REMARK  Name = ZINCrH000004ntvD.0
REMARK                            x       y       z     vdW  Elec       q    Type
REMARK                         _______ _______ _______ _____ _____    ______ ____
ROOT
ATOM      1  S   LIG    1        0.100   1.219  -0.063  0.00  0.00    +2.710 S 
ATOM      2  O   LIG    1        1.094   2.215  -0.261  0.00  0.00    -0.940 OA
ATOM      3  O   LIG    1        0.402  -0.163   0.071  0.00  0.00    -0.930 OA
ENDROOT
BRANCH   1   4
ATOM      4  C   LIG    1       -0.783   1.679   1.390  0.00  0.00    -0.680 A 
ATOM      5  C   LIG    1       -1.030   0.741   2.375  0.00  0.00    +0.220 A 
ATOM      6  C   LIG    1       -1.720   1.103   3.517  0.00  0.00    -0.060 A 
ATOM      7  C   LIG    1       -2.170   2.401   3.670  0.00  0.00    +0.160 A 
ATOM      8  C   LIG    1       -1.928   3.338   2.683  0.00  0.00    -0.100 A 
ATOM      9  C   LIG    1       -2.420   4.753   2.849  0.00  0.00    +0.120 C 
ATOM     10  C   LIG    1       -1.235   2.977   1.543  0.00  0.00    +0.070 A 
ATOM     11  C   LIG    1       -0.971   3.998   0.466  0.00  0.00    +0.120 C 
BRANCH   6  12
ATOM     12  N   LIG    1       -1.980   0.100   4.574  0.00  0.00    +0.030 N 
ATOM     13  O   LIG    1       -1.582  -1.043   4.439  0.00  0.00    -0.150 OA
ATOM     14  O   LIG    1       -2.591   0.418   5.579  0.00  0.00    -0.160 OA
ENDBRANCH   6  12
ENDBRANCH   1   4
BRANCH   1  19
ATOM     15  C   LIG    1       -1.783   0.260  -1.873  0.00  0.00    +0.290 C 
ATOM     16  C   LIG    1       -2.576   0.836  -3.065  0.00  0.00    +0.050 C 
ATOM     17  C   LIG    1       -1.720   2.058  -3.492  0.00  0.00    +0.040 C 
ATOM     18  C   LIG    1       -1.201   2.567  -2.124  0.00  0.00    +0.260 C 
ATOM     19  N   LIG    1       -0.950   1.347  -1.337  0.00  0.00    -1.000 NA
BRANCH  15  24
ATOM     20  C   LIG    1       -3.873  -2.024   0.292  0.00  0.00    +0.140 A 
ATOM     21  C   LIG    1       -4.492  -1.113   1.135  0.00  0.00    -0.070 A 
ATOM     22  C   LIG    1       -4.231   0.237   1.002  0.00  0.00    +0.040 A 
ATOM     23  C   LIG    1       -3.354   0.680   0.029  0.00  0.00    -0.030 A 
ATOM     24  C   LIG    1       -2.737  -0.226  -0.813  0.00  0.00    -0.080 A 
ATOM     25  C   LIG    1       -2.998  -1.577  -0.687  0.00  0.00    +0.010 A 
BRANCH  20  27
ATOM     26  C   LIG    1       -5.045  -3.741   1.446  0.00  0.00    +0.250 C 
ATOM     27  O   LIG    1       -4.129  -3.353   0.421  0.00  0.00    -0.310 OA
ENDBRANCH  20  27
ENDBRANCH  15  24
ENDBRANCH   1  19
TORSDOF 5
