REMARK  Name = ZINCvU00000005rH.0
REMARK                            x       y       z     vdW  Elec       q    Type
REMARK                         _______ _______ _______ _____ _____    ______ ____
ROOT
ATOM      1  N   LIG    1        3.556  -3.511  -2.796  0.00  0.00    -0.530 N 
ATOM      2  C   LIG    1        3.406  -4.853  -2.652  0.00  0.00    +0.590 A 
ATOM      3  N   LIG    1        2.655  -5.364  -1.723  0.00  0.00    -0.490 NA
ATOM      4  C   LIG    1        1.982  -4.586  -0.847  0.00  0.00    +0.070 A 
ATOM      5  C   LIG    1        2.089  -3.203  -0.936  0.00  0.00    -0.220 A 
ATOM      6  C   LIG    1        1.300  -2.523   0.082  0.00  0.00    +0.010 A 
ATOM      7  C   LIG    1        0.636  -3.340   0.900  0.00  0.00    -0.040 A 
ATOM      8  S   LIG    1        0.915  -5.019   0.483  0.00  0.00    +0.230 S 
ATOM      9  C   LIG    1        2.919  -2.663  -1.965  0.00  0.00    +0.560 A 
ATOM     10  O   LIG    1        3.049  -1.457  -2.088  0.00  0.00    -0.500 OA
ENDROOT
BRANCH   6  11
ATOM     11  C   LIG    1        1.244  -1.047   0.201  0.00  0.00    -0.050 A 
ATOM     12  C   LIG    1        0.013  -0.398   0.288  0.00  0.00    +0.060 A 
ATOM     13  C   LIG    1       -0.034   0.976   0.400  0.00  0.00    -0.020 A 
ATOM     14  C   LIG    1        1.140   1.712   0.426  0.00  0.00    +0.110 A 
ATOM     15  C   LIG    1        2.366   1.071   0.340  0.00  0.00    -0.010 A 
ATOM     16  F   LIG    1        1.090   3.057   0.535  0.00  0.00    -0.140 F 
ATOM     17  C   LIG    1        2.423  -0.303   0.228  0.00  0.00    +0.100 A 
ENDBRANCH   6  11
BRANCH   1  18
ATOM     18  C   LIG    1        4.414  -2.982  -3.859  0.00  0.00    +0.380 C 
BRANCH  18  24
ATOM     19  C   LIG    1        9.811  -6.789  -3.023  0.00  0.00    +0.120 C 
ATOM     20  C   LIG    1        8.754  -5.717  -3.097  0.00  0.00    -0.020 A 
ATOM     21  C   LIG    1        9.039  -4.445  -2.650  0.00  0.00    +0.040 A 
ATOM     22  C   LIG    1        8.070  -3.452  -2.715  0.00  0.00    +0.160 A 
ATOM     23  C   LIG    1        6.802  -3.757  -3.240  0.00  0.00    -0.140 A 
ATOM     24  C   LIG    1        5.787  -2.702  -3.305  0.00  0.00    -0.020 A 
ATOM     25  C   LIG    1        6.119  -1.465  -2.857  0.00  0.00    -0.010 A 
ATOM     26  C   LIG    1        7.410  -1.230  -2.338  0.00  0.00    +0.510 A 
ATOM     27  O   LIG    1        7.694  -0.116  -1.935  0.00  0.00    -0.440 OA
ATOM     28  C   LIG    1        6.526  -5.052  -3.690  0.00  0.00    +0.080 A 
ATOM     29  O   LIG    1        8.335  -2.201  -2.282  0.00  0.00    -0.270 OA
ATOM     30  C   LIG    1        7.502  -6.021  -3.615  0.00  0.00    -0.050 A 
ATOM     31 CL   LIG    1        7.165  -7.631  -4.172  0.00  0.00    -0.040 Cl
ENDBRANCH  18  24
ENDBRANCH   1  18
TORSDOF 3
