REMARK  Name = ZINCpk00000Rk7KO.0
REMARK                            x       y       z     vdW  Elec       q    Type
REMARK                         _______ _______ _______ _____ _____    ______ ____
ROOT
ATOM      1  N   LIG    1        4.524  -0.195  -1.330  0.00  0.00    -0.470 N 
ATOM      2  C   LIG    1        4.533   1.271  -1.232  0.00  0.00    +0.190 C 
ATOM      3  C   LIG    1        3.713   1.704  -0.012  0.00  0.00    +0.280 C 
ATOM      4  N   LIG    1        2.378   1.095  -0.107  0.00  0.00    -0.630 N 
ATOM      5  C   LIG    1        2.289  -0.355  -0.336  0.00  0.00    +0.320 C 
ATOM      6  C   LIG    1        1.265   1.845   0.019  0.00  0.00    +0.710 C 
ATOM      7  N   LIG    1        1.364   3.184   0.134  0.00  0.00    -0.740 N 
ATOM      8  H   LIG    1        2.237   3.601   0.201  0.00  0.00    +0.400 HD
ATOM      9  O   LIG    1        0.172   1.313   0.029  0.00  0.00    -0.580 OA
ATOM     10  C   LIG    1        3.165  -0.706  -1.550  0.00  0.00    +0.190 C 
ENDROOT
BRANCH   1  15
ATOM     11  C   LIG    1        6.650  -0.942  -5.790  0.00  0.00    +0.140 C 
ATOM     12  C   LIG    1        6.366  -0.987  -4.311  0.00  0.00    +0.040 A 
ATOM     13  N   LIG    1        7.073  -1.628  -3.414  0.00  0.00    -0.260 NA
ATOM     14  N   LIG    1        6.490  -1.421  -2.158  0.00  0.00    -0.350 N 
ATOM     15  C   LIG    1        5.393  -0.635  -2.332  0.00  0.00    +0.170 A 
ATOM     16  C   LIG    1        6.974  -1.958  -0.883  0.00  0.00    +0.360 C 
ATOM     17  C   LIG    1        5.300  -0.351  -3.663  0.00  0.00    +0.050 A 
BRANCH  17  18
ATOM     18  N   LIG    1        4.305   0.443  -4.278  0.00  0.00    -0.870 N 
ATOM     19  H   LIG    1        4.325   0.588  -5.237  0.00  0.00    +0.400 HD
ATOM     20  H   LIG    1        3.604   0.843  -3.741  0.00  0.00    +0.390 HD
ENDBRANCH  17  18
ENDBRANCH   1  15
BRANCH   7  21
ATOM     21  C   LIG    1        0.154   4.008   0.166  0.00  0.00    +0.340 C 
BRANCH  21  22
ATOM     22  C   LIG    1        0.537   5.459   0.306  0.00  0.00    -0.150 A 
ATOM     23  C   LIG    1        0.453   6.304  -0.784  0.00  0.00    +0.070 A 
ATOM     24  C   LIG    1        0.805   7.635  -0.655  0.00  0.00    +0.000 A 
ATOM     25  C   LIG    1        1.242   8.121   0.562  0.00  0.00    +0.060 A 
ATOM     26  C   LIG    1        1.327   7.277   1.654  0.00  0.00    -0.020 A 
ATOM     27  C   LIG    1        0.969   5.946   1.528  0.00  0.00    +0.110 A 
ATOM     28  F   LIG    1        1.046   5.121   2.595  0.00  0.00    -0.130 F 
ENDBRANCH  21  22
ENDBRANCH   7  21
TORSDOF 4
