REMARK  Name = ZINCrH000004jbQf.0
REMARK                            x       y       z     vdW  Elec       q    Type
REMARK                         _______ _______ _______ _____ _____    ______ ____
ROOT
ATOM      1  N   LIG    1       -0.041   1.075   0.352  0.00  0.00    -1.120 NA
ATOM      2  H   LIG    1       -0.043   0.114   0.223  0.00  0.00    +0.420 HD
ENDROOT
BRANCH   1   3
ATOM      3  S   LIG    1       -1.470   1.884   0.565  0.00  0.00    +2.700 S 
ATOM      4  O   LIG    1       -1.292   2.723   1.698  0.00  0.00    -0.950 OA
ATOM      5  O   LIG    1       -2.501   0.910   0.473  0.00  0.00    -0.960 OA
BRANCH   3   6
ATOM      6  C   LIG    1       -1.674   2.955  -0.820  0.00  0.00    -0.670 A 
ATOM      7  C   LIG    1       -2.324   2.504  -1.926  0.00  0.00    +0.170 A 
ATOM      8  C   LIG    1       -2.489   3.355  -3.032  0.00  0.00    -0.080 A 
ATOM      9  C   LIG    1       -3.155   2.925  -4.192  0.00  0.00    +0.040 A 
ATOM     10  C   LIG    1       -3.295   3.778  -5.244  0.00  0.00    +0.010 A 
ATOM     11  C   LIG    1       -2.788   5.075  -5.188  0.00  0.00    +0.040 A 
ATOM     12  C   LIG    1       -2.137   5.526  -4.082  0.00  0.00    +0.010 A 
ATOM     13  C   LIG    1       -1.973   4.674  -2.976  0.00  0.00    -0.010 A 
ATOM     14  C   LIG    1       -1.307   5.105  -1.815  0.00  0.00    +0.020 A 
ATOM     15  C   LIG    1       -1.172   4.254  -0.762  0.00  0.00    +0.090 A 
ENDBRANCH   3   6
ENDBRANCH   1   3
BRANCH   1  16
ATOM     16  C   LIG    1        1.225   1.812   0.353  0.00  0.00    +0.300 C 
BRANCH  16  17
ATOM     17  C   LIG    1        2.387   0.829   0.509  0.00  0.00    +0.070 C 
BRANCH  17  20
ATOM     18  N   LIG    1        4.856   0.923   0.636  0.00  0.00    -0.670 N 
ATOM     19  H   LIG    1        4.854  -0.032   0.803  0.00  0.00    +0.410 HD
ATOM     20  C   LIG    1        3.689   1.587   0.510  0.00  0.00    +0.520 C 
ATOM     21  O   LIG    1        3.688   2.795   0.398  0.00  0.00    -0.510 OA
BRANCH  18  26
ATOM     22  C   LIG    1        8.363   1.892   1.164  0.00  0.00    -0.060 A 
ATOM     23  C   LIG    1        8.467   2.975   0.310  0.00  0.00    -0.010 A 
ATOM     24  C   LIG    1        7.374   3.379  -0.435  0.00  0.00    +0.030 A 
ATOM     25  C   LIG    1        6.177   2.697  -0.334  0.00  0.00    +0.000 A 
ATOM     26  C   LIG    1        6.069   1.612   0.527  0.00  0.00    +0.150 A 
ATOM     27  C   LIG    1        7.167   1.210   1.274  0.00  0.00    -0.020 A 
BRANCH  22  29
ATOM     28  C   LIG    1       10.364   0.428   1.181  0.00  0.00    +0.030 C 
ATOM     29  C   LIG    1        9.556   1.456   1.975  0.00  0.00    +0.050 C 
ENDBRANCH  22  29
ENDBRANCH  18  26
ENDBRANCH  17  20
ENDBRANCH  16  17
ENDBRANCH   1  16
TORSDOF 7
