REMARK  Name = ZINCpe00000VVGTI.0
REMARK                            x       y       z     vdW  Elec       q    Type
REMARK                         _______ _______ _______ _____ _____    ______ ____
ROOT
ATOM      1  N   LIG    1        4.444   2.781  -0.973  0.00  0.00    -0.490 N 
ATOM      2  C   LIG    1        5.629   1.946  -1.165  0.00  0.00    +0.220 C 
ATOM      3  C   LIG    1        6.834   2.836  -1.369  0.00  0.00    +0.040 C 
ATOM      4  C   LIG    1        7.518   3.098  -0.017  0.00  0.00    +0.270 C 
ATOM      5  N   LIG    1        6.525   3.311   1.054  0.00  0.00    -0.610 N 
ATOM      6  C   LIG    1        5.329   4.105   0.860  0.00  0.00    +0.310 C 
ATOM      7  C   LIG    1        6.739   2.744   2.258  0.00  0.00    +0.520 C 
ATOM      8  O   LIG    1        5.985   2.975   3.179  0.00  0.00    -0.530 OA
ATOM      9  C   LIG    1        4.180   3.200   0.352  0.00  0.00    +0.180 C 
ENDROOT
BRANCH   1  14
ATOM     10  C   LIG    1        0.045   0.242  -3.299  0.00  0.00    +0.140 C 
ATOM     11  C   LIG    1        1.200   0.971  -2.662  0.00  0.00    +0.040 A 
ATOM     12  C   LIG    1        1.026   2.259  -2.178  0.00  0.00    +0.060 A 
ATOM     13  C   LIG    1        2.116   2.891  -1.600  0.00  0.00    +0.020 A 
ATOM     14  C   LIG    1        3.321   2.192  -1.542  0.00  0.00    +0.250 A 
ATOM     15  N   LIG    1        3.390   0.963  -2.032  0.00  0.00    -0.280 NA
ATOM     16  N   LIG    1        2.377   0.383  -2.566  0.00  0.00    -0.220 NA
ENDBRANCH   1  14
BRANCH   7  17
ATOM     17  C   LIG    1        7.916   1.825   2.460  0.00  0.00    -0.010 C 
ATOM     18  C   LIG    1        7.535   0.360   2.145  0.00  0.00    +0.080 C 
ATOM     19  C   LIG    1        8.295  -0.450   3.172  0.00  0.00    +0.520 C 
ATOM     20  N   LIG    1        8.715   0.347   4.170  0.00  0.00    -0.590 N 
ATOM     21  O   LIG    1        8.495  -1.644   3.105  0.00  0.00    -0.520 OA
ATOM     22  C   LIG    1        8.299   1.737   3.954  0.00  0.00    +0.310 C 
BRANCH  20  23
ATOM     23  C   LIG    1        9.490  -0.114   5.325  0.00  0.00    +0.210 C 
ATOM     24  C   LIG    1       10.012  -1.552   5.297  0.00  0.00    +0.040 C 
ATOM     25  C   LIG    1        8.853  -1.177   6.223  0.00  0.00    +0.000 C 
ENDBRANCH  20  23
ENDBRANCH   7  17
TORSDOF 3
