REMARK  Name = ZINCpe00000MJKTO.0
REMARK                            x       y       z     vdW  Elec       q    Type
REMARK                         _______ _______ _______ _____ _____    ______ ____
ROOT
ATOM      1  C   LIG    1        0.949   1.667   1.485  0.00  0.00    +0.210 C 
ATOM      2  C   LIG    1       -0.405   0.917   1.631  0.00  0.00    +0.060 C 
ATOM      3  C   LIG    1       -0.054  -0.166   2.695  0.00  0.00    +0.230 C 
ATOM      4  C   LIG    1        0.972   0.592   3.563  0.00  0.00    +0.160 C 
ATOM      5  C   LIG    1        1.859  -0.335   4.345  0.00  0.00    +0.040 C 
ATOM      6  C   LIG    1        2.567  -1.331   3.426  0.00  0.00    +0.030 C 
ATOM      7  C   LIG    1        1.504  -2.173   2.709  0.00  0.00    +0.240 C 
ATOM      8  C   LIG    1        2.179  -3.130   1.724  0.00  0.00    +0.040 C 
ATOM      9  N   LIG    1        0.613  -1.263   1.984  0.00  0.00    -0.600 N 
ATOM     10  C   LIG    1        0.405  -1.434   0.663  0.00  0.00    +0.600 C 
ATOM     11  O   LIG    1       -0.619  -1.026   0.151  0.00  0.00    -0.500 OA
ATOM     12  O   LIG    1        1.729   1.400   2.660  0.00  0.00    -0.330 OA
ENDROOT
BRANCH  10  13
ATOM     13  C   LIG    1        1.424  -2.117  -0.163  0.00  0.00    -0.000 A 
ATOM     14  C   LIG    1        1.195  -3.418  -0.626  0.00  0.00    +0.120 A 
ATOM     15  C   LIG    1        2.175  -4.014  -1.399  0.00  0.00    -0.040 A 
ATOM     16  C   LIG    1        3.337  -3.286  -1.661  0.00  0.00    +0.350 A 
ATOM     17  N   LIG    1        3.471  -2.056  -1.176  0.00  0.00    -0.300 NA
ATOM     18  N   LIG    1        2.561  -1.500  -0.463  0.00  0.00    -0.170 NA
BRANCH  16  19
ATOM     19  N   LIG    1        4.348  -3.845  -2.426  0.00  0.00    -0.600 N 
ATOM     20  C   LIG    1        5.610  -3.125  -2.609  0.00  0.00    +0.300 C 
ATOM     21  C   LIG    1        4.154  -5.155  -3.051  0.00  0.00    +0.300 C 
ENDBRANCH  16  19
ENDBRANCH  10  13
BRANCH   1  22
ATOM     22  C   LIG    1        0.713   3.149   1.354  0.00  0.00    +0.450 C 
ATOM     23  O   LIG    1        1.109   3.902   2.212  0.00  0.00    -0.490 OA
BRANCH  22  25
ATOM     24  C   LIG    1       -0.128   5.072   0.224  0.00  0.00    +0.250 C 
ATOM     25  O   LIG    1        0.064   3.634   0.284  0.00  0.00    -0.360 OA
ENDBRANCH  22  25
ENDBRANCH   1  22
TORSDOF 4
