REMARK  Name = ZINCqH0000036kg3.0
REMARK                            x       y       z     vdW  Elec       q    Type
REMARK                         _______ _______ _______ _____ _____    ______ ____
ROOT
ATOM      1  C   LIG    1       -3.132  -1.099   4.533  0.00  0.00    +0.270 C 
ATOM      2  C   LIG    1       -2.157  -0.344   5.439  0.00  0.00    +0.080 C 
ENDROOT
BRANCH   1   9
ATOM      3  C   LIG    1       -4.333  -5.258   4.822  0.00  0.00    +0.130 A 
ATOM      4  C   LIG    1       -3.929  -6.039   5.893  0.00  0.00    -0.080 A 
ATOM      5  C   LIG    1       -3.693  -5.451   7.120  0.00  0.00    +0.050 A 
ATOM      6  C   LIG    1       -3.861  -4.089   7.275  0.00  0.00    -0.020 A 
ATOM      7  C   LIG    1       -4.268  -3.304   6.206  0.00  0.00    -0.080 A 
ATOM      8  C   LIG    1       -4.446  -1.825   6.430  0.00  0.00    +0.290 C 
ATOM      9  N   LIG    1       -4.465  -1.110   5.150  0.00  0.00    -0.520 NA
ATOM     10  C   LIG    1       -5.459  -1.712   4.247  0.00  0.00    +0.220 C 
ATOM     11  C   LIG    1       -4.937  -3.073   3.788  0.00  0.00    +0.060 C 
ATOM     12  C   LIG    1       -4.501  -3.886   4.980  0.00  0.00    -0.110 A 
BRANCH   3  14
ATOM     13  C   LIG    1       -4.374  -7.248   3.521  0.00  0.00    +0.250 C 
ATOM     14  O   LIG    1       -4.565  -5.835   3.613  0.00  0.00    -0.310 OA
ENDBRANCH   3  14
ENDBRANCH   1   9
BRANCH   1  15
ATOM     15  C   LIG    1       -3.205  -0.413   3.193  0.00  0.00    +0.190 A 
ATOM     16  N   LIG    1       -2.678  -0.838   2.070  0.00  0.00    -0.470 NA
ATOM     17  C   LIG    1       -2.993   0.090   1.149  0.00  0.00    +0.180 A 
ATOM     18  N   LIG    1       -3.690   1.010   1.746  0.00  0.00    -0.380 NA
ATOM     19  O   LIG    1       -3.823   0.740   2.921  0.00  0.00    +0.100 OA
BRANCH  17  20
ATOM     20  C   LIG    1       -2.615   0.064  -0.310  0.00  0.00    +0.220 C 
BRANCH  20  21
ATOM     21  C   LIG    1       -1.294   0.766  -0.498  0.00  0.00    -0.090 A 
ATOM     22  C   LIG    1       -0.114   0.051  -0.417  0.00  0.00    +0.030 A 
ATOM     23  C   LIG    1        1.097   0.694  -0.596  0.00  0.00    +0.000 A 
ATOM     24  C   LIG    1        1.128   2.052  -0.850  0.00  0.00    +0.000 A 
ATOM     25  C   LIG    1       -0.052   2.768  -0.926  0.00  0.00    +0.000 A 
ATOM     26  C   LIG    1       -1.263   2.126  -0.748  0.00  0.00    +0.010 A 
ENDBRANCH  20  21
ENDBRANCH  17  20
ENDBRANCH   1  15
TORSDOF 5
