REMARK  Name = ZINCvU0000000EJs.0
REMARK                            x       y       z     vdW  Elec       q    Type
REMARK                         _______ _______ _______ _____ _____    ______ ____
ROOT
ATOM      1  C   LIG    1       -0.539   4.581  -1.174  0.00  0.00    +0.280 A 
ATOM      2  N   LIG    1       -1.678   5.190  -1.278  0.00  0.00    -0.460 NA
ATOM      3  C   LIG    1       -2.093   5.479  -2.497  0.00  0.00    +0.100 A 
ATOM      4  C   LIG    1       -1.269   5.086  -3.471  0.00  0.00    -0.070 A 
ATOM      5  S   LIG    1        0.122   4.303  -2.726  0.00  0.00    +0.150 S 
ENDROOT
BRANCH   1   6
ATOM      6  N   LIG    1        0.056   4.202   0.025  0.00  0.00    -0.470 N 
ATOM      7  C   LIG    1       -0.504   4.559   1.197  0.00  0.00    +0.520 C 
ATOM      8  O   LIG    1       -1.574   5.130   1.209  0.00  0.00    -0.470 OA
ATOM      9  C   LIG    1        0.199   4.249   2.494  0.00  0.00    +0.110 C 
BRANCH   6  15
ATOM     10  C   LIG    1        1.181   2.057   0.008  0.00  0.00    +0.150 A 
ATOM     11  C   LIG    1        2.353   1.318   0.002  0.00  0.00    -0.060 A 
ATOM     12  C   LIG    1        3.576   1.962  -0.008  0.00  0.00    +0.080 A 
ATOM     13  C   LIG    1        3.635   3.343  -0.003  0.00  0.00    -0.010 A 
ATOM     14  C   LIG    1        2.470   4.088   0.008  0.00  0.00    +0.080 A 
ATOM     15  C   LIG    1        1.239   3.449   0.013  0.00  0.00    +0.060 A 
BRANCH  10  17
ATOM     16  C   LIG    1       -0.006  -0.004   0.007  0.00  0.00    +0.250 C 
ATOM     17  O   LIG    1       -0.023   1.425   0.014  0.00  0.00    -0.310 OA
ENDBRANCH  10  17
ENDBRANCH   6  15
ENDBRANCH   1   6
BRANCH   3  18
ATOM     18  C   LIG    1       -3.394   6.190  -2.768  0.00  0.00    +0.180 C 
BRANCH  18  19
ATOM     19  S   LIG    1       -4.723   4.969  -2.951  0.00  0.00    +0.060 S 
BRANCH  19  20
ATOM     20  C   LIG    1       -6.140   5.970  -3.257  0.00  0.00    +0.210 A 
ATOM     21  N   LIG    1       -6.148   7.282  -3.322  0.00  0.00    -0.310 NA
ATOM     22  N   LIG    1       -7.472   7.671  -3.582  0.00  0.00    -0.470 N 
ATOM     23  H   LIG    1       -7.801   8.577  -3.686  0.00  0.00    +0.440 HD
ATOM     24  C   LIG    1       -8.196   6.532  -3.660  0.00  0.00    +0.340 A 
ATOM     25  N   LIG    1       -7.378   5.517  -3.466  0.00  0.00    -0.490 NA
BRANCH  24  26
ATOM     26  C   LIG    1       -9.649   6.441  -3.921  0.00  0.00    -0.080 A 
ATOM     27  C   LIG    1      -10.401   7.601  -4.109  0.00  0.00    +0.060 A 
ATOM     28  C   LIG    1      -11.755   7.509  -4.359  0.00  0.00    +0.010 A 
ATOM     29  C   LIG    1      -12.371   6.271  -4.411  0.00  0.00    +0.070 A 
ATOM     30  C   LIG    1      -11.634   5.117  -4.220  0.00  0.00    -0.010 A 
ATOM     31  C   LIG    1      -10.276   5.193  -3.975  0.00  0.00    +0.160 A 
ATOM     32  F   LIG    1       -9.557   4.065  -3.788  0.00  0.00    -0.110 F 
ENDBRANCH  24  26
ENDBRANCH  19  20
ENDBRANCH  18  19
ENDBRANCH   3  18
TORSDOF 7
