REMARK  Name = ZINCvU0000000EJs.1
REMARK                            x       y       z     vdW  Elec       q    Type
REMARK                         _______ _______ _______ _____ _____    ______ ____
ROOT
ATOM      1  C   LIG    1        0.629  -6.422   0.942  0.00  0.00    +0.280 A 
ATOM      2  N   LIG    1        0.459  -5.144   1.081  0.00  0.00    -0.470 NA
ATOM      3  C   LIG    1        0.354  -4.432  -0.025  0.00  0.00    +0.100 A 
ATOM      4  C   LIG    1        0.435  -5.141  -1.152  0.00  0.00    -0.070 A 
ATOM      5  S   LIG    1        0.669  -6.832  -0.717  0.00  0.00    +0.150 S 
ENDROOT
BRANCH   1   6
ATOM      6  N   LIG    1        0.758  -7.327   1.990  0.00  0.00    -0.470 N 
ATOM      7  C   LIG    1        0.711  -6.893   3.266  0.00  0.00    +0.520 C 
ATOM      8  O   LIG    1        0.555  -5.713   3.499  0.00  0.00    -0.470 OA
ATOM      9  C   LIG    1        0.851  -7.874   4.401  0.00  0.00    +0.120 C 
BRANCH   6  15
ATOM     10  C   LIG    1       -0.167  -9.531   1.596  0.00  0.00    +0.150 A 
ATOM     11  C   LIG    1        0.017 -10.877   1.329  0.00  0.00    -0.060 A 
ATOM     12  C   LIG    1        1.295 -11.386   1.187  0.00  0.00    +0.080 A 
ATOM     13  C   LIG    1        2.392 -10.554   1.310  0.00  0.00    -0.010 A 
ATOM     14  C   LIG    1        2.217  -9.208   1.571  0.00  0.00    +0.080 A 
ATOM     15  C   LIG    1        0.938  -8.692   1.721  0.00  0.00    +0.060 A 
BRANCH  10  17
ATOM     16  C   LIG    1       -2.508  -9.948   1.595  0.00  0.00    +0.240 C 
ATOM     17  O   LIG    1       -1.423  -9.029   1.736  0.00  0.00    -0.310 OA
ENDBRANCH  10  17
ENDBRANCH   6  15
ENDBRANCH   1   6
BRANCH   3  18
ATOM     18  C   LIG    1        0.154  -2.938  -0.015  0.00  0.00    +0.220 C 
BRANCH  18  19
ATOM     19  S   LIG    1        1.765  -2.113  -0.026  0.00  0.00    +0.030 S 
BRANCH  19  20
ATOM     20  C   LIG    1        1.246  -0.429  -0.012  0.00  0.00    +0.260 A 
ATOM     21  N   LIG    1        0.002  -0.004   0.002  0.00  0.00    -0.530 NA
ATOM     22  C   LIG    1       -0.016   1.337   0.009  0.00  0.00    +0.270 A 
ATOM     23  N   LIG    1        1.221   1.779   0.000  0.00  0.00    -0.280 NA
ATOM     24  N   LIG    1        2.058   0.652  -0.014  0.00  0.00    -0.460 N 
ATOM     25  H   LIG    1        3.028   0.649  -0.024  0.00  0.00    +0.450 HD
BRANCH  22  26
ATOM     26  C   LIG    1       -1.235   2.183   0.020  0.00  0.00    -0.050 A 
ATOM     27  C   LIG    1       -2.496   1.593   0.017  0.00  0.00    +0.090 A 
ATOM     28  C   LIG    1       -3.627   2.384   0.032  0.00  0.00    +0.000 A 
ATOM     29  C   LIG    1       -3.510   3.763   0.039  0.00  0.00    +0.070 A 
ATOM     30  C   LIG    1       -2.261   4.357   0.036  0.00  0.00    -0.020 A 
ATOM     31  C   LIG    1       -1.122   3.574   0.027  0.00  0.00    +0.130 A 
ATOM     32  F   LIG    1        0.098   4.155   0.024  0.00  0.00    -0.120 F 
ENDBRANCH  22  26
ENDBRANCH  19  20
ENDBRANCH  18  19
ENDBRANCH   3  18
TORSDOF 7
