REMARK  Name = ZINCpk00000FbzjD.0
REMARK                            x       y       z     vdW  Elec       q    Type
REMARK                         _______ _______ _______ _____ _____    ______ ____
ROOT
ATOM      1  C   LIG    1        3.667   2.174  -0.024  0.00  0.00    +0.580 C 
ATOM      2  N   LIG    1        4.835   1.506   0.063  0.00  0.00    -0.610 N 
ATOM      3  C   LIG    1        4.987   0.040   0.072  0.00  0.00    +0.270 C 
ATOM      4  C   LIG    1        6.431  -0.209  -0.437  0.00  0.00    +0.090 C 
ATOM      5  C   LIG    1        7.197   0.972   0.215  0.00  0.00    +0.110 C 
ATOM      6  C   LIG    1        6.167   2.120   0.169  0.00  0.00    +0.260 C 
ATOM      7  O   LIG    1        3.666   3.386  -0.122  0.00  0.00    -0.520 OA
ENDROOT
BRANCH   1  14
ATOM      8  C   LIG    1       -3.517  -0.992  -0.381  0.00  0.00    +0.130 C 
ATOM      9  C   LIG    1       -2.246  -0.184  -0.441  0.00  0.00    +0.170 A 
ATOM     10  N   LIG    1       -1.154  -0.673   0.096  0.00  0.00    -0.480 NA
ATOM     11  C   LIG    1       -0.002   0.004   0.069  0.00  0.00    +0.150 A 
ATOM     12  C   LIG    1        1.163  -0.531   0.650  0.00  0.00    +0.040 A 
ATOM     13  C   LIG    1        2.325   0.169   0.614  0.00  0.00    +0.050 A 
ATOM     14  C   LIG    1        2.389   1.433   0.001  0.00  0.00    -0.140 A 
ATOM     15  C   LIG    1        1.259   1.988  -0.579  0.00  0.00    +0.120 A 
ATOM     16  C   LIG    1        0.052   1.278  -0.551  0.00  0.00    -0.120 A 
ATOM     17  C   LIG    1       -1.121   1.808  -1.126  0.00  0.00    +0.100 A 
ATOM     18  C   LIG    1       -2.262   1.060  -1.067  0.00  0.00    -0.030 A 
ENDBRANCH   1  14
BRANCH   5  19
ATOM     19  O   LIG    1        7.552   0.665   1.565  0.00  0.00    -0.540 OA
ATOM     20  H   LIG    1        7.966   1.400   2.039  0.00  0.00    +0.380 HD
ENDBRANCH   5  19
BRANCH   5  21
ATOM     21  C   LIG    1        8.441   1.327  -0.602  0.00  0.00    +0.330 C 
BRANCH  21  22
ATOM     22  N   LIG    1        9.076   2.518  -0.032  0.00  0.00    -0.300 N 
ATOM     23  C   LIG    1       10.363   2.614   0.372  0.00  0.00    +0.140 A 
ATOM     24  C   LIG    1       10.524   3.879   0.826  0.00  0.00    +0.140 A 
ATOM     25  N   LIG    1        9.339   4.485   0.687  0.00  0.00    -0.260 NA
ATOM     26  N   LIG    1        8.503   3.652   0.176  0.00  0.00    -0.090 NA
ENDBRANCH  21  22
ENDBRANCH   5  21
TORSDOF 4
