REMARK  Name = ZINCrg000000tSEb.0
REMARK                            x       y       z     vdW  Elec       q    Type
REMARK                         _______ _______ _______ _____ _____    ______ ____
ROOT
ATOM      1  C   LIG    1        6.990   0.285  -3.942  0.00  0.00    +0.260 C 
ATOM      2  C   LIG    1        7.875  -0.948  -4.150  0.00  0.00    +0.010 C 
ATOM      3  C   LIG    1        8.759  -1.150  -2.917  0.00  0.00    +0.020 C 
ATOM      4  C   LIG    1        7.878  -1.389  -1.689  0.00  0.00    +0.010 C 
ATOM      5  C   LIG    1        6.994  -0.156  -1.452  0.00  0.00    +0.260 C 
ATOM      6  N   LIG    1        6.246   0.127  -2.684  0.00  0.00    -0.620 N 
ATOM      7  C   LIG    1        4.904   0.244  -2.661  0.00  0.00    +0.710 C 
ATOM      8  N   LIG    1        4.246   0.228  -1.485  0.00  0.00    -0.740 N 
ATOM      9  H   LIG    1        4.729   0.056  -0.662  0.00  0.00    +0.400 HD
ATOM     10  O   LIG    1        4.286   0.365  -3.702  0.00  0.00    -0.570 OA
ENDROOT
BRANCH   1  14
ATOM     11  O   LIG    1        4.572   3.017  -7.095  0.00  0.00    -0.540 OA
ATOM     12  C   LIG    1        5.261   2.137  -6.623  0.00  0.00    +0.520 C 
ATOM     13  C   LIG    1        5.378   1.826  -5.147  0.00  0.00    +0.070 C 
ATOM     14  C   LIG    1        6.007   0.414  -5.107  0.00  0.00    +0.040 C 
ATOM     15  C   LIG    1        6.745   0.358  -6.462  0.00  0.00    +0.250 C 
ATOM     16  N   LIG    1        6.032   1.298  -7.335  0.00  0.00    -0.740 N 
ATOM     17  H   LIG    1        6.107   1.311  -8.303  0.00  0.00    +0.410 HD
ENDBRANCH   1  14
BRANCH   8  18
ATOM     18  C   LIG    1        2.802   0.470  -1.450  0.00  0.00    +0.270 C 
BRANCH  18  19
ATOM     19  C   LIG    1        2.307   0.397  -0.004  0.00  0.00    +0.320 C 
BRANCH  19  20
ATOM     20  N   LIG    1        0.863   0.639   0.031  0.00  0.00    -0.530 N 
ATOM     21  C   LIG    1       -0.096  -0.301  -0.068  0.00  0.00    +0.680 A 
ATOM     22  N   LIG    1       -1.309   0.280  -0.003  0.00  0.00    -0.640 N 
ATOM     23  H   LIG    1       -2.162  -0.179  -0.054  0.00  0.00    +0.440 HD
ATOM     24  C   LIG    1       -1.131   1.653   0.153  0.00  0.00    +0.090 A 
ATOM     25  C   LIG    1       -2.008   2.719   0.276  0.00  0.00    +0.030 A 
ATOM     26  C   LIG    1       -1.516   4.002   0.413  0.00  0.00    +0.030 A 
ATOM     27  C   LIG    1       -0.151   4.228   0.431  0.00  0.00    +0.020 A 
ATOM     28  C   LIG    1        0.732   3.172   0.310  0.00  0.00    +0.030 A 
ATOM     29  O   LIG    1        0.103  -1.494  -0.200  0.00  0.00    -0.550 OA
ATOM     30  C   LIG    1        0.247   1.881   0.171  0.00  0.00    +0.090 A 
ENDBRANCH  19  20
ENDBRANCH  18  19
ENDBRANCH   8  18
TORSDOF 4
