REMARK  Name = ZINCnE000001Qxf4.0
REMARK                            x       y       z     vdW  Elec       q    Type
REMARK                         _______ _______ _______ _____ _____    ______ ____
ROOT
ATOM      1  C   LIG    1       -3.435   6.043   5.871  0.00  0.00    -0.040 A 
ATOM      2  C   LIG    1       -3.498   7.010   6.846  0.00  0.00    +0.090 A 
ATOM      3  C   LIG    1       -4.469   7.950   6.448  0.00  0.00    -0.260 A 
ATOM      4  C   LIG    1       -4.987   7.534   5.241  0.00  0.00    +0.140 A 
ATOM      5  C   LIG    1       -6.009   8.450   4.752  0.00  0.00    -0.150 A 
ATOM      6  C   LIG    1       -6.233   9.505   5.579  0.00  0.00    -0.150 A 
ATOM      7  C   LIG    1       -7.238  10.595   5.306  0.00  0.00    +0.150 C 
ATOM      8  S   LIG    1       -5.240   9.445   6.959  0.00  0.00    +0.140 S 
ATOM      9  N   LIG    1       -4.348   6.359   4.888  0.00  0.00    -0.520 N 
ATOM     10  H   LIG    1       -4.515   5.844   4.083  0.00  0.00    +0.420 HD
ENDROOT
BRANCH   1  13
ATOM     11  N   LIG    1       -2.595   3.991   4.859  0.00  0.00    -0.720 N 
ATOM     12  H   LIG    1       -3.208   4.132   4.121  0.00  0.00    +0.410 HD
ATOM     13  C   LIG    1       -2.554   4.872   5.878  0.00  0.00    +0.600 C 
ATOM     14  O   LIG    1       -1.785   4.696   6.805  0.00  0.00    -0.530 OA
BRANCH  11  15
ATOM     15  C   LIG    1       -1.713   2.821   4.867  0.00  0.00    +0.340 C 
ATOM     16  C   LIG    1       -2.366   1.696   5.672  0.00  0.00    +0.060 C 
BRANCH  15  21
ATOM     17  C   LIG    1       -0.013   1.086   0.008  0.00  0.00    +0.150 C 
ATOM     18  C   LIG    1       -0.718   1.572   1.248  0.00  0.00    -0.220 A 
ATOM     19  C   LIG    1       -2.026   1.821   1.362  0.00  0.00    +0.220 A 
ATOM     20  N   LIG    1       -2.402   2.234   2.555  0.00  0.00    -0.460 NA
ATOM     21  C   LIG    1       -1.482   2.357   3.452  0.00  0.00    +0.030 A 
ATOM     22  S   LIG    1        0.037   1.919   2.801  0.00  0.00    +0.140 S 
ENDBRANCH  15  21
ENDBRANCH  11  15
ENDBRANCH   1  13
BRANCH   5  23
ATOM     23  C   LIG    1       -6.727   8.252   3.490  0.00  0.00    +0.540 C 
ATOM     24  O   LIG    1       -7.577   9.059   3.136  0.00  0.00    -0.680 OA
ATOM     25  O   LIG    1       -6.478   7.278   2.790  0.00  0.00    -0.690 OA
ENDBRANCH   5  23
TORSDOF 4
