REMARK  Name = ZINCrD000000Dg2j.0
REMARK                            x       y       z     vdW  Elec       q    Type
REMARK                         _______ _______ _______ _____ _____    ______ ____
ROOT
ATOM      1  N   LIG    1       -5.535   2.101  -0.040  0.00  0.00    -0.490 NA
ATOM      2  C   LIG    1       -5.546   2.845  -1.307  0.00  0.00    +0.250 C 
ATOM      3  C   LIG    1       -4.306   3.743  -1.392  0.00  0.00    +0.230 C 
ATOM      4  N   LIG    1       -4.212   4.514  -0.146  0.00  0.00    -0.450 N 
ATOM      5  C   LIG    1       -3.477   5.630   0.093  0.00  0.00    +0.160 A 
ATOM      6  C   LIG    1       -3.691   6.009   1.372  0.00  0.00    -0.060 A 
ATOM      7  C   LIG    1       -4.594   5.087   1.942  0.00  0.00    -0.040 A 
ATOM      8  C   LIG    1       -4.894   4.184   0.996  0.00  0.00    -0.030 A 
ATOM      9  C   LIG    1       -5.811   2.991   1.102  0.00  0.00    +0.310 C 
ENDROOT
BRANCH   9  10
ATOM     10  C   LIG    1       -5.548   2.259   2.393  0.00  0.00    -0.080 A 
ATOM     11  C   LIG    1       -6.604   1.771   3.139  0.00  0.00    +0.040 A 
ATOM     12  C   LIG    1       -6.363   1.096   4.321  0.00  0.00    +0.000 A 
ATOM     13  C   LIG    1       -5.065   0.918   4.762  0.00  0.00    +0.010 A 
ATOM     14  C   LIG    1       -4.008   1.411   4.019  0.00  0.00    +0.000 A 
ATOM     15  C   LIG    1       -4.250   2.082   2.834  0.00  0.00    +0.010 A 
ENDBRANCH   9  10
BRANCH   1  16
ATOM     16  C   LIG    1       -4.263   1.390   0.142  0.00  0.00    +0.270 C 
BRANCH  16  20
ATOM     17  O   LIG    1       -6.020  -0.975  -3.451  0.00  0.00    -0.480 OA
ATOM     18  C   LIG    1       -5.072  -0.795  -2.707  0.00  0.00    +0.530 A 
ATOM     19  N   LIG    1       -5.124   0.130  -1.729  0.00  0.00    -0.570 NA
ATOM     20  C   LIG    1       -4.119   0.335  -0.924  0.00  0.00    +0.450 A 
ATOM     21  N   LIG    1       -2.962  -0.345  -0.996  0.00  0.00    -0.630 N 
ATOM     22  H   LIG    1       -2.248  -0.148  -0.368  0.00  0.00    +0.420 HD
ATOM     23  C   LIG    1       -2.783  -1.325  -1.951  0.00  0.00    +0.180 A 
ATOM     24  C   LIG    1       -1.599  -2.042  -2.056  0.00  0.00    -0.020 A 
ATOM     25  C   LIG    1       -1.470  -3.007  -3.033  0.00  0.00    +0.080 A 
ATOM     26  C   LIG    1       -2.509  -3.266  -3.916  0.00  0.00    -0.010 A 
ATOM     27  C   LIG    1       -3.690  -2.561  -3.831  0.00  0.00    +0.110 A 
ATOM     28  C   LIG    1       -3.835  -1.583  -2.850  0.00  0.00    -0.210 A 
ENDBRANCH  16  20
ENDBRANCH   1  16
TORSDOF 3
