REMARK  Name = ZINCfA000000bgiU.0
REMARK                            x       y       z     vdW  Elec       q    Type
REMARK                         _______ _______ _______ _____ _____    ______ ____
ROOT
ATOM      1  N   LIG    1        0.002  -0.004   0.002  0.00  0.00    -0.510 N 
ATOM      2  H   LIG    1        0.490  -0.338   0.820  0.00  0.00    +0.430 HD
ATOM      3  H   LIG    1        0.474  -0.330  -0.828  0.00  0.00    +0.430 HD
ENDROOT
BRANCH   1   7
ATOM      4  C   LIG    1       -2.536  -2.512   0.884  0.00  0.00    +0.030 C 
ATOM      5  C   LIG    1       -3.190  -1.232   1.444  0.00  0.00    +0.070 C 
ATOM      6  C   LIG    1       -2.072  -0.164   1.351  0.00  0.00    +0.050 C 
ATOM      7  C   LIG    1       -1.376  -0.512   0.012  0.00  0.00    +0.170 C 
ATOM      8  C   LIG    1       -1.383  -2.055  -0.027  0.00  0.00    +0.090 C 
BRANCH   4   9
ATOM      9  S   LIG    1       -3.748  -3.459  -0.078  0.00  0.00    -0.240 S 
BRANCH   9  11
ATOM     10  C   LIG    1       -6.049  -4.814   0.519  0.00  0.00    +0.080 C 
ATOM     11  C   LIG    1       -4.943  -3.989   1.181  0.00  0.00    +0.070 C 
ENDBRANCH   9  11
ENDBRANCH   4   9
ENDBRANCH   1   7
BRANCH   1  12
ATOM     12  C   LIG    1       -0.018   1.465   0.010  0.00  0.00    +0.280 C 
BRANCH  12  13
ATOM     13  C   LIG    1        1.417   1.994  -0.001  0.00  0.00    -0.020 C 
ATOM     14  C   LIG    1        1.390   3.504   0.245  0.00  0.00    +0.070 C 
ATOM     15  C   LIG    1        2.613   4.151  -0.457  0.00  0.00    +0.140 C 
ATOM     16  S   LIG    1        2.631   3.227  -2.048  0.00  0.00    -0.250 S 
ATOM     17  C   LIG    1        2.073   1.629  -1.342  0.00  0.00    +0.100 C 
ENDBRANCH  12  13
ENDBRANCH   1  12
TORSDOF 5
