REMARK  Name = ZINCvU0000000AJs.0
REMARK                            x       y       z     vdW  Elec       q    Type
REMARK                         _______ _______ _______ _____ _____    ______ ____
ROOT
ATOM      1  C   LIG    1       -1.053   2.676   4.736  0.00  0.00    +0.430 C 
ATOM      2  O   LIG    1       -2.027   3.022   5.371  0.00  0.00    -0.440 OA
ENDROOT
BRANCH   1   6
ATOM      3  C   LIG    1       -0.013   1.086   0.008  0.00  0.00    +0.140 C 
ATOM      4  C   LIG    1       -0.718   1.572   1.248  0.00  0.00    +0.020 A 
ATOM      5  C   LIG    1       -0.129   1.833   2.427  0.00  0.00    +0.000 A 
ATOM      6  C   LIG    1       -1.196   2.277   3.334  0.00  0.00    -0.260 A 
ATOM      7  C   LIG    1       -2.363   2.240   2.594  0.00  0.00    +0.130 A 
ATOM      8  C   LIG    1       -3.738   2.608   3.091  0.00  0.00    +0.150 C 
ATOM      9  N   LIG    1       -2.058   1.822   1.350  0.00  0.00    -0.390 N 
BRANCH   9  10
ATOM     10  C   LIG    1       -2.984   1.664   0.310  0.00  0.00    +0.110 A 
ATOM     11  C   LIG    1       -3.651   2.769  -0.202  0.00  0.00    +0.050 A 
ATOM     12  C   LIG    1       -4.559   2.611  -1.230  0.00  0.00    +0.050 A 
ATOM     13  C   LIG    1       -4.811   1.351  -1.744  0.00  0.00    -0.030 A 
ATOM     14  C   LIG    1       -4.152   0.247  -1.232  0.00  0.00    +0.050 A 
ATOM     15 CL   LIG    1       -5.958   1.155  -3.033  0.00  0.00    -0.050 Cl
ATOM     16  C   LIG    1       -3.239   0.401  -0.207  0.00  0.00    +0.050 A 
ENDBRANCH   9  10
ENDBRANCH   1   6
BRANCH   1  17
ATOM     17  C   LIG    1        0.305   2.657   5.390  0.00  0.00    +0.160 C 
ATOM     18  C   LIG    1        0.706   1.211   5.689  0.00  0.00    +0.070 C 
BRANCH  17  19
ATOM     19  O   LIG    1        0.256   3.412   6.629  0.00  0.00    -0.330 OA
BRANCH  19  20
ATOM     20  C   LIG    1        1.387   4.021   7.016  0.00  0.00    +0.470 C 
ATOM     21  O   LIG    1        2.385   3.927   6.342  0.00  0.00    -0.500 OA
BRANCH  20  22
ATOM     22  C   LIG    1        1.413   4.824   8.293  0.00  0.00    +0.020 C 
ATOM     23  C   LIG    1        0.371   5.939   8.205  0.00  0.00    +0.080 C 
ATOM     24  C   LIG    1        0.368   6.748   9.509  0.00  0.00    -0.020 C 
ATOM     25  C   LIG    1        0.749   8.200   9.194  0.00  0.00    +0.040 C 
ATOM     26  C   LIG    1        2.133   8.252   8.551  0.00  0.00    +0.010 C 
ATOM     27  C   LIG    1        3.192   7.665   9.481  0.00  0.00    +0.040 C 
ATOM     28  C   LIG    1        2.858   6.203   9.802  0.00  0.00    -0.030 C 
ATOM     29  C   LIG    1        1.460   6.177  10.400  0.00  0.00    +0.370 C 
ATOM     30  O   LIG    1        1.234   5.736  11.501  0.00  0.00    -0.450 OA
ATOM     31  C   LIG    1        2.812   5.404   8.493  0.00  0.00    +0.070 C 
ENDBRANCH  20  22
ENDBRANCH  19  20
ENDBRANCH  17  19
ENDBRANCH   1  17
TORSDOF 6
