REMARK  Name = ZINCpk00000ebk3D.0
REMARK                            x       y       z     vdW  Elec       q    Type
REMARK                         _______ _______ _______ _____ _____    ______ ____
ROOT
ATOM      1  C   LIG    1        2.824   2.254   2.040  0.00  0.00    +0.430 A 
ATOM      2  N   LIG    1        2.887   3.550   1.843  0.00  0.00    -0.340 NA
ATOM      3  N   LIG    1        3.552   4.374   2.754  0.00  0.00    -0.240 N 
ATOM      4  C   LIG    1        4.157   3.829   3.860  0.00  0.00    +0.150 A 
ATOM      5  C   LIG    1        4.093   2.438   4.067  0.00  0.00    +0.200 A 
ATOM      6  N   LIG    1        4.704   4.831   4.530  0.00  0.00    -0.230 NA
ATOM      7  N   LIG    1        4.473   5.934   3.908  0.00  0.00    -0.200 NA
ATOM      8  C   LIG    1        3.776   5.703   2.823  0.00  0.00    +0.100 A 
ATOM      9  C   LIG    1        3.434   1.665   3.165  0.00  0.00    +0.000 A 
ENDROOT
BRANCH   1  13
ATOM     10  C   LIG    1       -0.041   0.156  -0.107  0.00  0.00    +0.040 C 
ATOM     11  C   LIG    1        0.131   1.672  -0.227  0.00  0.00    +0.050 C 
ATOM     12  C   LIG    1        1.618   2.023  -0.121  0.00  0.00    +0.310 C 
ATOM     13  N   LIG    1        2.151   1.453   1.124  0.00  0.00    -0.580 N 
ATOM     14  C   LIG    1        1.961   0.019   1.382  0.00  0.00    +0.310 C 
ATOM     15  C   LIG    1        0.470  -0.310   1.259  0.00  0.00    +0.050 C 
BRANCH  10  16
ATOM     16  C   LIG    1       -1.499  -0.197  -0.245  0.00  0.00    +0.470 C 
ATOM     17  O   LIG    1       -2.317   0.674  -0.421  0.00  0.00    -0.490 OA
BRANCH  16  18
ATOM     18  O   LIG    1       -1.889  -1.479  -0.172  0.00  0.00    -0.350 OA
BRANCH  18  19
ATOM     19  C   LIG    1       -3.310  -1.745  -0.314  0.00  0.00    +0.410 C 
BRANCH  19  21
ATOM     20  N   LIG    1       -3.737  -4.311  -0.126  0.00  0.00    -0.390 NA
ATOM     21  C   LIG    1       -3.551  -3.193  -0.208  0.00  0.00    +0.200 C 
ENDBRANCH  19  21
ENDBRANCH  18  19
ENDBRANCH  16  18
ENDBRANCH  10  16
ENDBRANCH   1  13
BRANCH   8  22
ATOM     22  C   LIG    1        3.307   6.736   1.831  0.00  0.00    +0.580 C 
ATOM     23  F   LIG    1        1.936   6.957   1.999  0.00  0.00    -0.160 F 
ATOM     24  F   LIG    1        3.550   6.279   0.531  0.00  0.00    -0.160 F 
ATOM     25  F   LIG    1        4.001   7.933   2.041  0.00  0.00    -0.150 F 
ENDBRANCH   8  22
TORSDOF 6
