REMARK  Name = ZINCpe000000UXKS.0
REMARK                            x       y       z     vdW  Elec       q    Type
REMARK                         _______ _______ _______ _____ _____    ______ ____
ROOT
ATOM      1  N   LIG    1        7.687  -0.804   1.439  0.00  0.00    -0.670 N 
ATOM      2  H   LIG    1        8.310  -0.061   1.399  0.00  0.00    +0.420 HD
ATOM      3  C   LIG    1        6.361  -0.576   1.376  0.00  0.00    +0.500 C 
ATOM      4  O   LIG    1        5.585  -1.508   1.342  0.00  0.00    -0.500 OA
ENDROOT
BRANCH   1   9
ATOM      5  C   LIG    1        7.987  -4.458   1.056  0.00  0.00    -0.120 A 
ATOM      6  C   LIG    1        9.133  -4.704   1.815  0.00  0.00    +0.030 A 
ATOM      7  C   LIG    1        9.784  -3.659   2.439  0.00  0.00    +0.030 A 
ATOM      8  C   LIG    1        9.310  -2.367   2.310  0.00  0.00    +0.010 A 
ATOM      9  C   LIG    1        8.167  -2.113   1.561  0.00  0.00    +0.140 A 
ATOM     10  C   LIG    1        7.505  -3.155   0.931  0.00  0.00    +0.090 A 
BRANCH   5  14
ATOM     11  C   LIG    1        7.061  -7.941  -0.152  0.00  0.00    +0.290 C 
ATOM     12  N   LIG    1        7.755  -6.834   0.510  0.00  0.00    -0.730 N 
ATOM     13  H   LIG    1        8.551  -7.006   1.037  0.00  0.00    +0.400 HD
ATOM     14  C   LIG    1        7.287  -5.576   0.388  0.00  0.00    +0.560 C 
ATOM     15  O   LIG    1        6.289  -5.360  -0.272  0.00  0.00    -0.530 OA
ENDBRANCH   5  14
ENDBRANCH   1   9
BRANCH   3  16
ATOM     16  C   LIG    1        5.840   0.838   1.349  0.00  0.00    +0.360 C 
BRANCH  16  17
ATOM     17  N   LIG    1        4.377   0.819   1.281  0.00  0.00    -0.570 N 
ATOM     18  C   LIG    1        3.572   0.810   2.352  0.00  0.00    +0.710 C 
ATOM     19  N   LIG    1        2.265   0.792   2.014  0.00  0.00    -0.710 N 
ATOM     20  H   LIG    1        1.506   0.783   2.617  0.00  0.00    +0.440 HD
ATOM     21  C   LIG    1        2.228   0.789   0.555  0.00  0.00    +0.110 C 
ATOM     22  C   LIG    1        1.452   1.991  -0.004  0.00  0.00    +0.050 C 
ATOM     23  C   LIG    1       -0.022   1.529   0.015  0.00  0.00    +0.030 C 
ATOM     24  C   LIG    1       -0.002  -0.011   0.018  0.00  0.00    +0.030 C 
ATOM     25  C   LIG    1        1.484  -0.434   0.000  0.00  0.00    +0.060 C 
ATOM     26  O   LIG    1        3.973   0.817   3.500  0.00  0.00    -0.540 OA
ATOM     27  C   LIG    1        3.669   0.807   0.129  0.00  0.00    +0.540 C 
ATOM     28  O   LIG    1        4.104   0.811  -1.003  0.00  0.00    -0.450 OA
ENDBRANCH  16  17
ENDBRANCH   3  16
TORSDOF 4
