REMARK  Name = ZINCrg000000qYAj.0
REMARK                            x       y       z     vdW  Elec       q    Type
REMARK                         _______ _______ _______ _____ _____    ______ ____
ROOT
ATOM      1  C   LIG    1        1.379   3.765   3.464  0.00  0.00    +0.520 C 
ATOM      2  N   LIG    1        1.024   2.962   2.442  0.00  0.00    -0.610 N 
ATOM      3  C   LIG    1        0.361   3.514   1.252  0.00  0.00    +0.290 C 
ATOM      4  C   LIG    1        1.145   3.086   0.008  0.00  0.00    +0.060 C 
ATOM      5  C   LIG    1        1.286   1.562  -0.002  0.00  0.00    +0.220 C 
ATOM      6  C   LIG    1        2.064   1.112   1.237  0.00  0.00    +0.020 C 
ATOM      7  C   LIG    1        1.291   1.518   2.496  0.00  0.00    +0.280 C 
ATOM      8  O   LIG    1        1.153   4.955   3.408  0.00  0.00    -0.530 OA
ENDROOT
BRANCH   5   9
ATOM      9  C   LIG    1        2.028   1.134  -1.242  0.00  0.00    +0.050 A 
ATOM     10  N   LIG    1        2.566   1.933  -2.128  0.00  0.00    -0.270 NA
ATOM     11  N   LIG    1        3.159   1.146  -3.124  0.00  0.00    -0.470 N 
ATOM     12  H   LIG    1        3.631   1.475  -3.905  0.00  0.00    +0.440 HD
ATOM     13  C   LIG    1        2.957  -0.149  -2.805  0.00  0.00    +0.240 A 
ATOM     14  C   LIG    1        2.265  -0.185  -1.642  0.00  0.00    -0.120 A 
ENDBRANCH   5   9
BRANCH   5  15
ATOM     15  O   LIG    1       -0.011   0.963   0.007  0.00  0.00    -0.540 OA
ATOM     16  H   LIG    1        0.002  -0.004   0.002  0.00  0.00    +0.380 HD
ENDBRANCH   5  15
BRANCH   1  17
ATOM     17  C   LIG    1        2.059   3.184   4.677  0.00  0.00    +0.050 C 
BRANCH  17  18
ATOM     18  C   LIG    1        2.353   4.300   5.681  0.00  0.00    +0.300 C 
BRANCH  18  20
ATOM     19  C   LIG    1        3.369   4.538   7.883  0.00  0.00    +0.560 C 
ATOM     20  N   LIG    1        3.013   3.736   6.860  0.00  0.00    -0.730 N 
ATOM     21  H   LIG    1        3.195   2.784   6.905  0.00  0.00    +0.400 HD
ATOM     22  O   LIG    1        3.142   5.731   7.826  0.00  0.00    -0.510 OA
BRANCH  19  28
ATOM     23  C   LIG    1        4.412   4.802  10.133  0.00  0.00    +0.190 A 
ATOM     24  C   LIG    1        5.031   4.255  11.247  0.00  0.00    -0.080 A 
ATOM     25  C   LIG    1        5.285   2.899  11.303  0.00  0.00    +0.080 A 
ATOM     26  C   LIG    1        4.919   2.074  10.252  0.00  0.00    -0.040 A 
ATOM     27  C   LIG    1        4.297   2.599   9.140  0.00  0.00    +0.080 A 
ATOM     28  C   LIG    1        4.034   3.969   9.070  0.00  0.00    -0.180 A 
BRANCH  23  30
ATOM     29  C   LIG    1        4.579   6.920  11.196  0.00  0.00    +0.240 C 
ATOM     30  O   LIG    1        4.166   6.135  10.075  0.00  0.00    -0.280 OA
ENDBRANCH  23  30
ENDBRANCH  19  28
ENDBRANCH  18  20
ENDBRANCH  17  18
ENDBRANCH   1  17
TORSDOF 7
