REMARK  Name = ZINCpk00000eaFhh.0
REMARK                            x       y       z     vdW  Elec       q    Type
REMARK                         _______ _______ _______ _____ _____    ______ ____
ROOT
ATOM      1  C   LIG    1        5.119   0.349   3.094  0.00  0.00    +0.520 C 
ATOM      2  N   LIG    1        6.308   0.971   3.229  0.00  0.00    -0.660 N 
ATOM      3  H   LIG    1        6.695   1.444   2.476  0.00  0.00    +0.410 HD
ATOM      4  O   LIG    1        4.585  -0.153   4.060  0.00  0.00    -0.490 OA
ENDROOT
BRANCH   2   5
ATOM      5  C   LIG    1        6.980   0.933   4.451  0.00  0.00    +0.160 A 
ATOM      6  C   LIG    1        6.750  -0.095   5.340  0.00  0.00    +0.020 A 
ATOM      7  C   LIG    1        7.417  -0.139   6.561  0.00  0.00    +0.060 A 
ATOM      8  C   LIG    1        8.310   0.827   6.911  0.00  0.00    +0.030 A 
ATOM      9  C   LIG    1        8.575   1.892   6.033  0.00  0.00    +0.140 A 
ATOM     10  N   LIG    1        9.449   2.851   6.358  0.00  0.00    -0.470 NA
ATOM     11  C   LIG    1        9.700   3.848   5.544  0.00  0.00    +0.290 A 
ATOM     12  C   LIG    1        9.072   3.960   4.307  0.00  0.00    -0.030 A 
ATOM     13  C   LIG    1        8.168   3.013   3.913  0.00  0.00    +0.070 A 
ATOM     14  C   LIG    1        7.905   1.944   4.786  0.00  0.00    -0.120 A 
ENDBRANCH   2   5
BRANCH   1  16
ATOM     15  C   LIG    1        5.312  -0.563   0.796  0.00  0.00    +0.070 C 
ATOM     16  C   LIG    1        4.455   0.279   1.743  0.00  0.00    +0.190 C 
BRANCH  16  17
ATOM     17  O   LIG    1        3.143  -0.330   1.880  0.00  0.00    -0.330 OA
BRANCH  17  18
ATOM     18  C   LIG    1        2.198   0.056   1.009  0.00  0.00    +0.470 C 
ATOM     19  O   LIG    1        2.458   0.876   0.160  0.00  0.00    -0.480 OA
BRANCH  18  20
ATOM     20  C   LIG    1        0.813  -0.532   1.089  0.00  0.00    +0.150 C 
ATOM     21  C   LIG    1        0.828  -1.954   0.520  0.00  0.00    +0.260 C 
ATOM     22  O   LIG    1       -0.502  -2.479   0.530  0.00  0.00    -0.370 OA
ATOM     23  C   LIG    1       -1.435  -1.700  -0.223  0.00  0.00    +0.240 C 
ATOM     24  C   LIG    1       -1.472  -0.276   0.339  0.00  0.00    +0.170 C 
ATOM     25  N   LIG    1       -0.118   0.294   0.307  0.00  0.00    -0.520 NA
ATOM     26  C   LIG    1       -0.119   1.682   0.786  0.00  0.00    +0.200 C 
ENDBRANCH  18  20
ENDBRANCH  17  18
ENDBRANCH  16  17
ENDBRANCH   1  16
TORSDOF 5
