REMARK  Name = ZINCpk000004I7Ec.0
REMARK                            x       y       z     vdW  Elec       q    Type
REMARK                         _______ _______ _______ _____ _____    ______ ____
ROOT
ATOM      1  C   LIG    1       -2.449   1.117   0.020  0.00  0.00    +0.270 C 
ENDROOT
BRANCH   1   2
ATOM      2  N   LIG    1       -1.191   1.867   0.018  0.00  0.00    -0.610 N 
ATOM      3  C   LIG    1       -0.014   1.209   0.009  0.00  0.00    +0.520 C 
ATOM      4  O   LIG    1        0.002  -0.004   0.002  0.00  0.00    -0.520 OA
ATOM      5  C   LIG    1       -1.210   3.331   0.026  0.00  0.00    +0.280 C 
BRANCH   3   6
ATOM      6  C   LIG    1        1.280   1.980   0.001  0.00  0.00    +0.160 C 
BRANCH   6   7
ATOM      7  C   LIG    1        2.439   1.016  -0.016  0.00  0.00    +0.020 A 
ATOM      8  N   LIG    1        2.664   0.053   0.831  0.00  0.00    -0.330 NA
ATOM      9  O   LIG    1        3.675  -0.552   0.558  0.00  0.00    +0.110 OA
ATOM     10  C   LIG    1        4.267  -0.054  -0.536  0.00  0.00    -0.000 A 
ATOM     11  C   LIG    1        3.493   0.975  -0.957  0.00  0.00    -0.050 A 
BRANCH  10  12
ATOM     12  C   LIG    1        5.540  -0.545  -1.176  0.00  0.00    +0.050 C 
ATOM     13  C   LIG    1        6.136  -1.853  -0.651  0.00  0.00    +0.040 C 
ATOM     14  C   LIG    1        6.813  -0.520  -0.328  0.00  0.00    +0.050 C 
ENDBRANCH  10  12
ENDBRANCH   6   7
ENDBRANCH   3   6
ENDBRANCH   1   2
BRANCH   1  15
ATOM     15  C   LIG    1       -2.881   0.848   1.463  0.00  0.00    +0.170 C 
BRANCH  15  16
ATOM     16  O   LIG    1       -1.871   0.086   2.128  0.00  0.00    -0.540 OA
ATOM     17  H   LIG    1       -1.693  -0.772   1.718  0.00  0.00    +0.380 HD
ENDBRANCH  15  16
BRANCH  15  18
ATOM     18  C   LIG    1       -4.195   0.065   1.465  0.00  0.00    +0.250 C 
BRANCH  18  20
ATOM     19  C   LIG    1       -4.293  -1.159   3.569  0.00  0.00    +0.520 C 
ATOM     20  N   LIG    1       -4.670  -0.089   2.842  0.00  0.00    -0.620 N 
ATOM     21  C   LIG    1       -5.554   0.921   3.429  0.00  0.00    +0.280 C 
ATOM     22  O   LIG    1       -3.560  -1.995   3.083  0.00  0.00    -0.530 OA
BRANCH  19  23
ATOM     23  C   LIG    1       -4.781  -1.317   4.986  0.00  0.00    +0.050 C 
BRANCH  23  25
ATOM     24  C   LIG    1       -2.688  -2.489   5.688  0.00  0.00    +0.030 C 
ATOM     25  C   LIG    1       -4.210  -2.606   5.581  0.00  0.00    +0.000 C 
ATOM     26  C   LIG    1       -4.803  -2.832   6.973  0.00  0.00    +0.010 C 
ENDBRANCH  23  25
ENDBRANCH  19  23
ENDBRANCH  18  20
ENDBRANCH  15  18
ENDBRANCH   1  15
TORSDOF 10
