REMARK  Name = ZINCrD000000Cfpu.0
REMARK                            x       y       z     vdW  Elec       q    Type
REMARK                         _______ _______ _______ _____ _____    ______ ____
ROOT
ATOM      1  O   LIG    1       -4.749  -3.775  -1.930  0.00  0.00    -0.520 OA
ATOM      2  C   LIG    1       -3.809  -4.009  -1.196  0.00  0.00    +0.710 C 
ATOM      3  N   LIG    1       -2.947  -3.025  -0.871  0.00  0.00    -0.740 N 
ATOM      4  H   LIG    1       -2.196  -3.212  -0.285  0.00  0.00    +0.390 HD
ATOM      5  N   LIG    1       -3.628  -5.252  -0.707  0.00  0.00    -0.650 N 
ATOM      6  H   LIG    1       -2.878  -5.438  -0.121  0.00  0.00    +0.410 HD
ENDROOT
BRANCH   3   7
ATOM      7  C   LIG    1       -3.143  -1.674  -1.403  0.00  0.00    +0.270 C 
ATOM      8  C   LIG    1       -4.123  -0.909  -0.508  0.00  0.00    +0.010 C 
ATOM      9  C   LIG    1       -3.518  -0.762   0.890  0.00  0.00    +0.210 C 
ATOM     10  O   LIG    1       -2.259  -0.092   0.795  0.00  0.00    -0.370 OA
ATOM     11  C   LIG    1       -1.287  -0.785   0.010  0.00  0.00    +0.200 C 
ATOM     12  C   LIG    1       -1.803  -0.933  -1.424  0.00  0.00    +0.030 C 
BRANCH  11  13
ATOM     13  C   LIG    1        0.002  -0.004   0.002  0.00  0.00    -0.140 A 
ATOM     14  C   LIG    1        1.222  -0.663  -0.013  0.00  0.00    +0.060 A 
ATOM     15  C   LIG    1        2.382   0.096  -0.020  0.00  0.00    -0.030 A 
ATOM     16  C   LIG    1        2.285   1.475  -0.012  0.00  0.00    +0.260 A 
ATOM     17  N   LIG    1        1.107   2.068   0.003  0.00  0.00    -0.480 NA
ATOM     18  C   LIG    1       -0.017   1.378   0.010  0.00  0.00    +0.290 A 
ENDBRANCH  11  13
ENDBRANCH   3   7
BRANCH   5  19
ATOM     19  C   LIG    1       -4.516  -6.266  -1.042  0.00  0.00    +0.460 A 
ATOM     20  N   LIG    1       -5.567  -6.140  -1.816  0.00  0.00    -0.460 NA
ATOM     21  C   LIG    1       -6.189  -7.327  -1.918  0.00  0.00    +0.180 A 
ATOM     22  C   LIG    1       -5.514  -8.224  -1.179  0.00  0.00    +0.120 A 
ATOM     23  N   LIG    1       -4.447  -7.559  -0.617  0.00  0.00    -0.430 N 
BRANCH  23  24
ATOM     24  C   LIG    1       -3.476  -8.107   0.232  0.00  0.00    +0.120 A 
ATOM     25  C   LIG    1       -2.128  -7.908  -0.034  0.00  0.00    +0.000 A 
ATOM     26  C   LIG    1       -1.173  -8.446   0.807  0.00  0.00    +0.040 A 
ATOM     27  C   LIG    1       -1.558  -9.190   1.907  0.00  0.00    +0.020 A 
ATOM     28  C   LIG    1       -2.900  -9.395   2.171  0.00  0.00    +0.040 A 
ATOM     29  C   LIG    1       -3.859  -8.855   1.337  0.00  0.00    +0.020 A 
ENDBRANCH  23  24
ENDBRANCH   5  19
TORSDOF 4
