REMARK  Name = ZINCqH0000037nGe.0
REMARK                            x       y       z     vdW  Elec       q    Type
REMARK                         _______ _______ _______ _____ _____    ______ ____
ROOT
ATOM      1  C   LIG    1        4.353   0.700  -0.616  0.00  0.00    -0.090 A 
ATOM      2  C   LIG    1        3.139   0.342  -1.131  0.00  0.00    +0.140 A 
ATOM      3  N   LIG    1        2.288   0.240  -0.087  0.00  0.00    -0.310 N 
ATOM      4  N   LIG    1        3.022   0.552   1.066  0.00  0.00    -0.050 NA
ATOM      5  N   LIG    1        4.234   0.812   0.718  0.00  0.00    -0.190 NA
ENDROOT
BRANCH   1  12
ATOM      6  C   LIG    1       10.031  -1.580   0.525  0.00  0.00    +0.020 C 
ATOM      7  C   LIG    1        8.873  -1.350  -0.448  0.00  0.00    -0.010 C 
ATOM      8  C   LIG    1        7.545  -1.472   0.303  0.00  0.00    +0.030 C 
ATOM      9  C   LIG    1        6.389  -1.273  -0.676  0.00  0.00    +0.260 C 
ATOM     10  N   LIG    1        6.571   0.005  -1.377  0.00  0.00    -0.600 N 
ATOM     11  C   LIG    1        7.848   0.262  -2.057  0.00  0.00    +0.290 C 
ATOM     12  C   LIG    1        5.587   0.925  -1.393  0.00  0.00    +0.610 C 
ATOM     13  O   LIG    1        5.715   1.942  -2.048  0.00  0.00    -0.520 OA
ATOM     14  C   LIG    1        8.989   0.049  -1.058  0.00  0.00    -0.070 C 
ATOM     15  C   LIG    1        8.901   1.099   0.051  0.00  0.00    +0.030 C 
ATOM     16  C   LIG    1       10.332   0.180  -1.781  0.00  0.00    +0.040 C 
ENDBRANCH   1  12
BRANCH   3  17
ATOM     17  C   LIG    1        0.930  -0.104  -0.147  0.00  0.00    +0.160 A 
ATOM     18  C   LIG    1        0.156   0.302  -1.225  0.00  0.00    +0.020 A 
ATOM     19  C   LIG    1       -1.182  -0.038  -1.282  0.00  0.00    +0.080 A 
ATOM     20  C   LIG    1       -1.751  -0.784  -0.267  0.00  0.00    +0.010 A 
ATOM     21  C   LIG    1       -0.981  -1.196   0.808  0.00  0.00    +0.120 A 
ATOM     22  F   LIG    1       -1.539  -1.929   1.797  0.00  0.00    -0.130 F 
ATOM     23  C   LIG    1        0.357  -0.853   0.873  0.00  0.00    +0.010 A 
ENDBRANCH   3  17
BRANCH   2  24
ATOM     24  C   LIG    1        2.813   0.105  -2.583  0.00  0.00    +0.000 C 
ATOM     25  C   LIG    1        3.986  -0.072  -3.550  0.00  0.00    +0.060 C 
ATOM     26  C   LIG    1        3.162   1.217  -3.575  0.00  0.00    +0.080 C 
ENDBRANCH   2  24
TORSDOF 3
