REMARK  Name = ZINCvU0000000593.0
REMARK                            x       y       z     vdW  Elec       q    Type
REMARK                         _______ _______ _______ _____ _____    ______ ____
ROOT
ATOM      1  O   LIG    1       -3.237  -6.421  -0.197  0.00  0.00    -0.320 OA
ENDROOT
BRANCH   1   2
ATOM      2  C   LIG    1       -4.167  -7.245   0.326  0.00  0.00    +0.550 C 
ATOM      3  O   LIG    1       -5.207  -6.789   0.760  0.00  0.00    -0.520 OA
BRANCH   2   7
ATOM      4  C   LIG    1       -1.986 -11.827  -0.186  0.00  0.00    +0.130 C 
ATOM      5  C   LIG    1       -2.944 -10.710   0.137  0.00  0.00    +0.010 A 
ATOM      6  C   LIG    1       -2.731  -9.405  -0.105  0.00  0.00    +0.030 A 
ATOM      7  C   LIG    1       -3.924  -8.695   0.372  0.00  0.00    -0.230 A 
ATOM      8  C   LIG    1       -4.766  -9.662   0.876  0.00  0.00    +0.130 A 
ATOM      9  C   LIG    1       -6.122  -9.421   1.489  0.00  0.00    +0.150 C 
ATOM     10  N   LIG    1       -4.169 -10.862   0.724  0.00  0.00    -0.390 N 
BRANCH  10  11
ATOM     11  C   LIG    1       -4.723 -12.088   1.116  0.00  0.00    +0.100 A 
ATOM     12  C   LIG    1       -5.873 -12.560   0.499  0.00  0.00    +0.020 A 
ATOM     13  C   LIG    1       -6.413 -13.772   0.883  0.00  0.00    +0.020 A 
ATOM     14  C   LIG    1       -5.817 -14.508   1.890  0.00  0.00    +0.020 A 
ATOM     15  C   LIG    1       -4.674 -14.038   2.510  0.00  0.00    +0.020 A 
ATOM     16  C   LIG    1       -4.126 -12.830   2.126  0.00  0.00    +0.020 A 
ENDBRANCH  10  11
ENDBRANCH   2   7
ENDBRANCH   1   2
BRANCH   1  17
ATOM     17  C   LIG    1       -3.545  -5.002  -0.209  0.00  0.00    +0.180 C 
ATOM     18  C   LIG    1       -4.259  -4.646  -1.514  0.00  0.00    +0.070 C 
BRANCH  17  19
ATOM     19  C   LIG    1       -2.268  -4.210  -0.102  0.00  0.00    +0.520 C 
ATOM     20  N   LIG    1       -2.314  -2.868   0.007  0.00  0.00    -0.670 N 
ATOM     21  H   LIG    1       -3.170  -2.417   0.085  0.00  0.00    +0.410 HD
ATOM     22  O   LIG    1       -1.197  -4.780  -0.116  0.00  0.00    -0.490 OA
BRANCH  20  23
ATOM     23  C   LIG    1       -1.129  -2.124   0.010  0.00  0.00    +0.160 A 
ATOM     24  C   LIG    1       -1.103  -0.882  -0.585  0.00  0.00    -0.010 A 
ATOM     25  C   LIG    1        0.089  -0.139  -0.580  0.00  0.00    -0.030 A 
ATOM     26  C   LIG    1        0.156   1.132  -1.177  0.00  0.00    +0.020 A 
ATOM     27  C   LIG    1        1.327   1.825  -1.155  0.00  0.00    +0.010 A 
ATOM     28  C   LIG    1        2.464   1.294  -0.549  0.00  0.00    +0.000 A 
ATOM     29  C   LIG    1        2.436   0.066   0.039  0.00  0.00    +0.030 A 
ATOM     30  C   LIG    1        1.245  -0.680   0.036  0.00  0.00    -0.060 A 
ATOM     31  C   LIG    1        1.182  -1.951   0.634  0.00  0.00    +0.040 A 
ATOM     32  C   LIG    1        0.017  -2.651   0.617  0.00  0.00    +0.020 A 
ENDBRANCH  20  23
ENDBRANCH  17  19
ENDBRANCH   1  17
TORSDOF 6
