REMARK  Name = ZINCpe00000VVGa3.0
REMARK                            x       y       z     vdW  Elec       q    Type
REMARK                         _______ _______ _______ _____ _____    ______ ____
ROOT
ATOM      1  C   LIG    1        2.832   2.030   0.698  0.00  0.00    +0.210 C 
ENDROOT
BRANCH   1   7
ATOM      2  C   LIG    1        2.499   4.422   0.863  0.00  0.00    +0.140 C 
ATOM      3  C   LIG    1        3.223   5.770   0.895  0.00  0.00    +0.030 C 
ATOM      4  C   LIG    1        4.091   5.848   2.154  0.00  0.00    +0.010 C 
ATOM      5  C   LIG    1        5.078   4.677   2.157  0.00  0.00    +0.030 C 
ATOM      6  C   LIG    1        4.300   3.361   2.089  0.00  0.00    +0.180 C 
ATOM      7  N   LIG    1        3.486   3.335   0.867  0.00  0.00    -0.510 NA
BRANCH   2   8
ATOM      8  C   LIG    1        1.645   4.331  -0.403  0.00  0.00    +0.340 C 
BRANCH   8  12
ATOM      9  C   LIG    1       -1.106   8.295  -1.759  0.00  0.00    +0.110 C 
ATOM     10  C   LIG    1       -0.556   7.128  -0.981  0.00  0.00    -0.240 A 
ATOM     11  C   LIG    1        0.465   6.327  -1.362  0.00  0.00    +0.230 A 
ATOM     12  N   LIG    1        0.645   5.402  -0.396  0.00  0.00    -0.370 N 
ATOM     13  N   LIG    1       -0.293   5.646   0.615  0.00  0.00    -0.290 NA
ATOM     14  C   LIG    1       -1.011   6.682   0.265  0.00  0.00    +0.230 A 
ENDBRANCH   8  12
ENDBRANCH   2   8
ENDBRANCH   1   7
BRANCH   1  15
ATOM     15  C   LIG    1        3.863   0.998   0.319  0.00  0.00    +0.520 C 
ATOM     16  N   LIG    1        3.490  -0.281   0.111  0.00  0.00    -0.710 N 
ATOM     17  H   LIG    1        2.559  -0.537   0.205  0.00  0.00    +0.400 HD
ATOM     18  O   LIG    1        5.027   1.317   0.202  0.00  0.00    -0.520 OA
BRANCH  16  19
ATOM     19  C   LIG    1        4.492  -1.285  -0.257  0.00  0.00    +0.240 C 
ATOM     20  C   LIG    1        3.818  -2.428  -1.019  0.00  0.00    +0.040 C 
ATOM     21  C   LIG    1        4.817  -3.142  -1.912  0.00  0.00    +0.030 C 
ATOM     22  C   LIG    1        5.894  -3.891  -1.150  0.00  0.00    +0.010 C 
ATOM     23  C   LIG    1        6.812  -2.919  -0.406  0.00  0.00    +0.270 C 
ATOM     24  N   LIG    1        6.216  -2.619   0.906  0.00  0.00    -0.720 N 
ATOM     25  H   LIG    1        6.616  -2.982   1.712  0.00  0.00    +0.400 HD
ATOM     26  C   LIG    1        5.129  -1.851   0.995  0.00  0.00    +0.510 C 
ATOM     27  O   LIG    1        4.649  -1.606   2.081  0.00  0.00    -0.540 OA
ENDBRANCH  16  19
ENDBRANCH   1  15
TORSDOF 5
