REMARK  Name = ZINCzw0000000hCb.1
REMARK                            x       y       z     vdW  Elec       q    Type
REMARK                         _______ _______ _______ _____ _____    ______ ____
ROOT
ATOM      1  C   LIG    1        1.574   6.675   3.625  0.00  0.00    +0.220 C 
ENDROOT
BRANCH   1   2
ATOM      2  C   LIG    1        0.098   6.692   3.319  0.00  0.00    -0.140 A 
ATOM      3  C   LIG    1       -0.636   5.523   3.389  0.00  0.00    +0.010 A 
ATOM      4  C   LIG    1       -1.990   5.540   3.113  0.00  0.00    +0.060 A 
ATOM      5  C   LIG    1       -2.609   6.725   2.759  0.00  0.00    -0.050 A 
ATOM      6  C   LIG    1       -1.874   7.893   2.684  0.00  0.00    +0.060 A 
ATOM      7  C   LIG    1       -0.520   7.877   2.964  0.00  0.00    +0.060 A 
BRANCH   5   8
ATOM      8  C   LIG    1       -4.084   6.742   2.453  0.00  0.00    +0.230 C 
BRANCH   8   9
ATOM      9  O   LIG    1       -4.285   6.498   1.060  0.00  0.00    -0.380 OA
ATOM     10  C   LIG    1       -5.658   6.494   0.663  0.00  0.00    +0.220 C 
ENDBRANCH   8   9
ENDBRANCH   5   8
ENDBRANCH   1   2
BRANCH   1  13
ATOM     11  N   LIG    1        1.694   7.846   5.800  0.00  0.00    -0.690 N 
ATOM     12  H   LIG    1        1.503   8.672   5.330  0.00  0.00    +0.410 HD
ATOM     13  C   LIG    1        1.778   6.687   5.118  0.00  0.00    +0.510 C 
ATOM     14  O   LIG    1        2.018   5.653   5.705  0.00  0.00    -0.520 OA
BRANCH  11  15
ATOM     15  C   LIG    1        1.893   7.857   7.252  0.00  0.00    +0.310 C 
BRANCH  15  16
ATOM     16  C   LIG    1        1.746   9.287   7.775  0.00  0.00    +0.180 C 
BRANCH  16  17
ATOM     17  O   LIG    1        0.403   9.732   7.574  0.00  0.00    -0.390 OA
BRANCH  17  19
ATOM     18  C   LIG    1       -1.304  11.432   7.766  0.00  0.00    +0.050 C 
ATOM     19  C   LIG    1        0.157  11.063   8.031  0.00  0.00    +0.160 C 
ENDBRANCH  17  19
ENDBRANCH  16  17
ENDBRANCH  15  16
ENDBRANCH  11  15
ENDBRANCH   1  13
BRANCH   1  20
ATOM     20  N   LIG    1        2.177   5.461   3.057  0.00  0.00    -0.370 N 
ATOM     21  C   LIG    1        3.615   5.442   3.359  0.00  0.00    +0.320 C 
ATOM     22  H   LIG    1        1.738   4.647   3.461  0.00  0.00    +0.430 HD
BRANCH  20  23
ATOM     23  C   LIG    1        1.982   5.452   1.601  0.00  0.00    +0.270 C 
BRANCH  23  24
ATOM     24  C   LIG    1        2.498   4.132   1.026  0.00  0.00    +0.010 C 
BRANCH  24  25
ATOM     25  C   LIG    1        2.296   4.123  -0.491  0.00  0.00    +0.310 C 
BRANCH  25  26
ATOM     26  N   LIG    1        2.790   2.858  -1.042  0.00  0.00    -0.620 N 
ATOM     27  C   LIG    1        1.962   1.801  -1.151  0.00  0.00    +0.600 C 
ATOM     28  O   LIG    1        0.785   1.919  -0.868  0.00  0.00    -0.540 OA
ATOM     29  C   LIG    1        4.185   2.744  -1.474  0.00  0.00    +0.290 C 
BRANCH  27  30
ATOM     30  C   LIG    1        2.481   0.503  -1.619  0.00  0.00    -0.310 A 
ATOM     31  C   LIG    1        1.929  -0.738  -1.371  0.00  0.00    +0.320 A 
ATOM     32  N   LIG    1        2.706  -1.651  -1.974  0.00  0.00    -0.330 N 
ATOM     33  N   LIG    1        3.761  -0.986  -2.610  0.00  0.00    -0.280 NA
ATOM     34  C   LIG    1        3.633   0.296  -2.409  0.00  0.00    +0.270 A 
BRANCH  32  35
ATOM     35  C   LIG    1        2.488  -3.100  -1.967  0.00  0.00    +0.220 C 
ATOM     36  C   LIG    1        1.525  -3.664  -0.921  0.00  0.00    +0.060 C 
ATOM     37  C   LIG    1        3.031  -3.891  -0.775  0.00  0.00    +0.050 C 
ENDBRANCH  32  35
ENDBRANCH  27  30
ENDBRANCH  25  26
ENDBRANCH  24  25
ENDBRANCH  23  24
ENDBRANCH  20  23
ENDBRANCH   1  20
TORSDOF 15
