REMARK  Name = ZINCzw0000000hCb.2
REMARK                            x       y       z     vdW  Elec       q    Type
REMARK                         _______ _______ _______ _____ _____    ______ ____
ROOT
ATOM      1  C   LIG    1       -1.146  -5.844   4.416  0.00  0.00    +0.220 C 
ENDROOT
BRANCH   1   2
ATOM      2  C   LIG    1       -1.324  -5.388   5.841  0.00  0.00    -0.140 A 
ATOM      3  C   LIG    1       -1.899  -4.159   6.107  0.00  0.00    +0.010 A 
ATOM      4  C   LIG    1       -2.066  -3.743   7.415  0.00  0.00    +0.060 A 
ATOM      5  C   LIG    1       -1.649  -4.551   8.456  0.00  0.00    -0.050 A 
ATOM      6  C   LIG    1       -1.070  -5.777   8.190  0.00  0.00    +0.060 A 
ATOM      7  C   LIG    1       -0.907  -6.196   6.883  0.00  0.00    +0.060 A 
BRANCH   5   8
ATOM      8  C   LIG    1       -1.827  -4.095   9.881  0.00  0.00    +0.230 C 
BRANCH   8   9
ATOM      9  O   LIG    1       -0.669  -3.369  10.297  0.00  0.00    -0.390 OA
ATOM     10  C   LIG    1       -0.735  -2.889  11.642  0.00  0.00    +0.220 C 
ENDBRANCH   8   9
ENDBRANCH   5   8
ENDBRANCH   1   2
BRANCH   1  13
ATOM     11  N   LIG    1       -2.829  -7.646   4.213  0.00  0.00    -0.690 N 
ATOM     12  H   LIG    1       -2.261  -8.197   4.774  0.00  0.00    +0.410 HD
ATOM     13  C   LIG    1       -2.451  -6.391   3.897  0.00  0.00    +0.510 C 
ATOM     14  O   LIG    1       -3.161  -5.702   3.196  0.00  0.00    -0.520 OA
BRANCH  11  15
ATOM     15  C   LIG    1       -4.097  -8.178   3.708  0.00  0.00    +0.310 C 
BRANCH  15  16
ATOM     16  C   LIG    1       -4.284  -9.611   4.209  0.00  0.00    +0.180 C 
BRANCH  16  17
ATOM     17  O   LIG    1       -4.416  -9.605   5.632  0.00  0.00    -0.390 OA
BRANCH  17  19
ATOM     18  C   LIG    1       -4.726 -10.775   7.724  0.00  0.00    +0.050 C 
ATOM     19  C   LIG    1       -4.597 -10.902   6.205  0.00  0.00    +0.160 C 
ENDBRANCH  17  19
ENDBRANCH  16  17
ENDBRANCH  15  16
ENDBRANCH  11  15
ENDBRANCH   1  13
BRANCH   1  20
ATOM     20  N   LIG    1       -0.727  -4.706   3.586  0.00  0.00    -0.370 N 
ATOM     21  C   LIG    1        0.539  -4.167   4.099  0.00  0.00    +0.340 C 
ATOM     22  H   LIG    1       -1.436  -3.989   3.617  0.00  0.00    +0.430 HD
BRANCH  20  23
ATOM     23  C   LIG    1       -0.544  -5.153   2.199  0.00  0.00    +0.260 C 
BRANCH  23  24
ATOM     24  C   LIG    1       -0.274  -3.942   1.304  0.00  0.00    +0.020 C 
BRANCH  24  25
ATOM     25  C   LIG    1       -0.083  -4.407  -0.141  0.00  0.00    +0.310 C 
BRANCH  25  26
ATOM     26  N   LIG    1        0.175  -3.247  -0.997  0.00  0.00    -0.610 N 
ATOM     27  C   LIG    1        1.440  -2.829  -1.202  0.00  0.00    +0.600 C 
ATOM     28  O   LIG    1        2.369  -3.436  -0.707  0.00  0.00    -0.550 OA
ATOM     29  C   LIG    1       -0.942  -2.542  -1.631  0.00  0.00    +0.300 C 
BRANCH  27  30
ATOM     30  C   LIG    1        1.696  -1.635  -2.028  0.00  0.00    -0.310 A 
ATOM     31  C   LIG    1        2.871  -0.912  -2.081  0.00  0.00    +0.330 A 
ATOM     32  N   LIG    1        2.686   0.093  -2.952  0.00  0.00    -0.330 N 
ATOM     33  N   LIG    1        1.383   0.009  -3.457  0.00  0.00    -0.280 NA
ATOM     34  C   LIG    1        0.787  -1.020  -2.918  0.00  0.00    +0.270 A 
BRANCH  32  35
ATOM     35  C   LIG    1        3.679   1.107  -3.312  0.00  0.00    +0.220 C 
ATOM     36  C   LIG    1        4.891   1.268  -2.392  0.00  0.00    +0.060 C 
ATOM     37  C   LIG    1        3.795   2.336  -2.408  0.00  0.00    +0.050 C 
ENDBRANCH  32  35
ENDBRANCH  27  30
ENDBRANCH  25  26
ENDBRANCH  24  25
ENDBRANCH  23  24
ENDBRANCH  20  23
ENDBRANCH   1  20
TORSDOF 15
