REMARK  Name = ZINCrH000004jObU.0
REMARK                            x       y       z     vdW  Elec       q    Type
REMARK                         _______ _______ _______ _____ _____    ______ ____
ROOT
ATOM      1  C   LIG    1       -5.909   5.737  -1.097  0.00  0.00    +0.190 A 
ATOM      2  C   LIG    1       -7.232   5.402  -0.843  0.00  0.00    -0.020 A 
ATOM      3  C   LIG    1       -8.191   5.572  -1.824  0.00  0.00    +0.070 A 
ATOM      4  C   LIG    1       -7.836   6.075  -3.060  0.00  0.00    -0.020 A 
ATOM      5  C   LIG    1       -6.514   6.413  -3.321  0.00  0.00    +0.170 A 
ATOM      6  C   LIG    1       -5.551   6.250  -2.336  0.00  0.00    +0.040 A 
ENDROOT
BRANCH   1  10
ATOM      7  C   LIG    1       -3.048   5.465   1.899  0.00  0.00    +0.280 C 
ATOM      8  N   LIG    1       -2.720   5.169   0.502  0.00  0.00    -0.620 N 
ATOM      9  C   LIG    1       -3.678   5.231  -0.443  0.00  0.00    +0.710 C 
ATOM     10  N   LIG    1       -4.939   5.565  -0.103  0.00  0.00    -0.690 N 
ATOM     11  H   LIG    1       -5.174   5.686   0.830  0.00  0.00    +0.410 HD
ATOM     12  O   LIG    1       -3.405   4.986  -1.602  0.00  0.00    -0.560 OA
BRANCH   8  13
ATOM     13  C   LIG    1       -1.349   4.806   0.134  0.00  0.00    +0.350 C 
BRANCH  13  14
ATOM     14  C   LIG    1       -1.183   3.312   0.226  0.00  0.00    -0.200 C 
ATOM     15  C   LIG    1       -1.340   2.601  -0.852  0.00  0.00    +0.010 C 
ATOM     16  C   LIG    1       -1.204   1.103  -0.859  0.00  0.00    +0.040 C 
ATOM     17  C   LIG    1       -0.478   0.647   0.410  0.00  0.00    +0.220 C 
ATOM     18  O   LIG    1       -1.082   1.298   1.535  0.00  0.00    -0.380 OA
ATOM     19  C   LIG    1       -0.845   2.707   1.559  0.00  0.00    +0.260 C 
ENDBRANCH  13  14
ENDBRANCH   8  13
ENDBRANCH   1  10
BRANCH   5  20
ATOM     20  N   LIG    1       -6.154   6.925  -4.576  0.00  0.00    -0.310 N 
ATOM     21  C   LIG    1       -7.003   7.228  -5.584  0.00  0.00    +0.320 A 
ATOM     22  C   LIG    1       -6.264   7.692  -6.618  0.00  0.00    -0.330 A 
ATOM     23  C   LIG    1       -4.920   7.673  -6.230  0.00  0.00    +0.300 A 
ATOM     24  N   LIG    1       -4.854   7.218  -5.005  0.00  0.00    -0.270 NA
BRANCH  22  25
ATOM     25  C   LIG    1       -6.795   8.149  -7.952  0.00  0.00    +0.550 C 
ATOM     26  F   LIG    1       -7.965   7.444  -8.255  0.00  0.00    -0.180 F 
ATOM     27  F   LIG    1       -5.836   7.909  -8.943  0.00  0.00    -0.170 F 
ATOM     28  F   LIG    1       -7.077   9.518  -7.898  0.00  0.00    -0.180 F 
ENDBRANCH  22  25
ENDBRANCH   5  20
TORSDOF 5
