REMARK  Name = ZINCrH000004ougt.0
REMARK                            x       y       z     vdW  Elec       q    Type
REMARK                         _______ _______ _______ _____ _____    ______ ____
ROOT
ATOM      1  N   LIG    1        2.151  -2.528  -0.915  0.00  0.00    -0.620 N 
ATOM      2  C   LIG    1        1.708  -3.321  -1.911  0.00  0.00    +0.710 C 
ATOM      3  N   LIG    1        2.541  -3.676  -2.910  0.00  0.00    -0.740 N 
ATOM      4  H   LIG    1        3.459  -3.362  -2.911  0.00  0.00    +0.400 HD
ATOM      5  O   LIG    1        0.558  -3.715  -1.909  0.00  0.00    -0.580 OA
ATOM      6  C   LIG    1        3.537  -2.053  -0.917  0.00  0.00    +0.280 C 
ENDROOT
BRANCH   1   8
ATOM      7  C   LIG    1        1.869  -2.524   1.515  0.00  0.00    +0.030 C 
ATOM      8  C   LIG    1        1.246  -2.142   0.171  0.00  0.00    +0.300 C 
BRANCH   8   9
ATOM      9  C   LIG    1        1.017  -0.653   0.128  0.00  0.00    -0.100 A 
ATOM     10  C   LIG    1        1.060   0.019  -1.080  0.00  0.00    +0.020 A 
ATOM     11  C   LIG    1        0.850   1.384  -1.119  0.00  0.00    +0.000 A 
ATOM     12  C   LIG    1        0.596   2.078   0.049  0.00  0.00    +0.000 A 
ATOM     13  C   LIG    1        0.554   1.407   1.257  0.00  0.00    +0.000 A 
ATOM     14  C   LIG    1        0.764   0.041   1.296  0.00  0.00    +0.020 A 
ENDBRANCH   8   9
ENDBRANCH   1   8
BRANCH   3  15
ATOM     15  C   LIG    1        2.060  -4.538  -3.993  0.00  0.00    +0.340 C 
BRANCH  15  16
ATOM     16  C   LIG    1        3.178  -4.784  -4.973  0.00  0.00    -0.110 A 
ATOM     17  C   LIG    1        3.180  -4.137  -6.195  0.00  0.00    +0.040 A 
ATOM     18  C   LIG    1        4.208  -4.359  -7.092  0.00  0.00    +0.010 A 
ATOM     19  C   LIG    1        5.228  -5.235  -6.772  0.00  0.00    +0.010 A 
ATOM     20  C   LIG    1        5.223  -5.885  -5.552  0.00  0.00    +0.010 A 
ATOM     21  C   LIG    1        4.198  -5.660  -4.653  0.00  0.00    -0.090 A 
BRANCH  21  22
ATOM     22  C   LIG    1        4.193  -6.369  -3.323  0.00  0.00    +0.360 C 
BRANCH  22  23
ATOM     23  N   LIG    1        5.427  -7.145  -3.178  0.00  0.00    -0.620 N 
ATOM     24  C   LIG    1        6.635  -6.661  -2.501  0.00  0.00    +0.250 C 
ATOM     25  C   LIG    1        7.772  -7.597  -2.966  0.00  0.00    +0.040 C 
ATOM     26  C   LIG    1        6.993  -8.882  -3.330  0.00  0.00    +0.050 C 
ATOM     27  C   LIG    1        5.596  -8.395  -3.644  0.00  0.00    +0.510 C 
ATOM     28  O   LIG    1        4.752  -9.037  -4.233  0.00  0.00    -0.520 OA
ENDBRANCH  22  23
ENDBRANCH  21  22
ENDBRANCH  15  16
ENDBRANCH   3  15
TORSDOF 6
