REMARK  Name = ZINCrD000000BfwF.0
REMARK                            x       y       z     vdW  Elec       q    Type
REMARK                         _______ _______ _______ _____ _____    ______ ____
ROOT
ATOM      1  O   LIG    1       -8.665   2.471  -0.262  0.00  0.00    -0.510 OA
ATOM      2  C   LIG    1       -8.492   1.271  -0.177  0.00  0.00    +0.550 C 
ATOM      3  N   LIG    1       -7.242   0.776  -0.084  0.00  0.00    -0.710 N 
ATOM      4  H   LIG    1       -7.104  -0.182  -0.016  0.00  0.00    +0.410 HD
ENDROOT
BRANCH   2   5
ATOM      5  C   LIG    1       -9.652   0.355  -0.176  0.00  0.00    -0.070 A 
ATOM      6  C   LIG    1       -9.456  -1.023  -0.085  0.00  0.00    +0.110 A 
ATOM      7  C   LIG    1      -10.544  -1.874  -0.078  0.00  0.00    -0.000 A 
ATOM      8  C   LIG    1      -11.827  -1.362  -0.174  0.00  0.00    +0.100 A 
ATOM      9  C   LIG    1      -12.027   0.005  -0.271  0.00  0.00    +0.000 A 
ATOM     10 CL   LIG    1      -13.640   0.637  -0.390  0.00  0.00    -0.000 Cl
ATOM     11 CL   LIG    1      -10.303  -3.589   0.044  0.00  0.00    -0.010 Cl
ATOM     12  C   LIG    1      -10.948   0.865  -0.272  0.00  0.00    +0.030 A 
BRANCH  12  13
ATOM     13  N   LIG    1      -11.164   2.326  -0.376  0.00  0.00    +0.030 N 
ATOM     14  O   LIG    1      -11.304   2.994   0.632  0.00  0.00    -0.110 OA
ATOM     15  O   LIG    1      -11.201   2.860  -1.470  0.00  0.00    -0.110 OA
ENDBRANCH  12  13
ENDBRANCH   2   5
BRANCH   3  16
ATOM     16  C   LIG    1       -6.092   1.684  -0.085  0.00  0.00    +0.270 C 
BRANCH  16  17
ATOM     17  C   LIG    1       -4.801   0.871   0.030  0.00  0.00    +0.220 C 
BRANCH  17  18
ATOM     18  O   LIG    1       -4.816   0.123   1.248  0.00  0.00    -0.550 OA
ATOM     19  H   LIG    1       -4.882   0.668   2.044  0.00  0.00    +0.380 HD
ENDBRANCH  17  18
BRANCH  17  20
ATOM     20  C   LIG    1       -3.600   1.819   0.029  0.00  0.00    +0.180 C 
BRANCH  20  21
ATOM     21  O   LIG    1       -2.391   1.057   0.019  0.00  0.00    -0.290 OA
BRANCH  21  22
ATOM     22  C   LIG    1       -1.223   1.753   0.017  0.00  0.00    +0.150 A 
ATOM     23  C   LIG    1       -0.013   1.076   0.008  0.00  0.00    +0.020 A 
ATOM     24  C   LIG    1        1.175   1.783   0.000  0.00  0.00    +0.080 A 
ATOM     25  C   LIG    1        1.158   3.167   0.008  0.00  0.00    +0.030 A 
ATOM     26  C   LIG    1       -0.052   3.846   0.023  0.00  0.00    +0.110 A 
ATOM     27  F   LIG    1       -0.068   5.197   0.031  0.00  0.00    -0.120 F 
ATOM     28  F   LIG    1        2.319   3.856   0.001  0.00  0.00    -0.130 F 
ATOM     29  C   LIG    1       -1.241   3.140   0.030  0.00  0.00    -0.070 A 
ENDBRANCH  21  22
ENDBRANCH  20  21
ENDBRANCH  17  20
ENDBRANCH  16  17
ENDBRANCH   3  16
TORSDOF 8
