REMARK  Name = ZINCkj00000XHZVd.0
REMARK                            x       y       z     vdW  Elec       q    Type
REMARK                         _______ _______ _______ _____ _____    ______ ____
ROOT
ATOM      1  O   LIG    1       -0.333   2.627   5.119  0.00  0.00    -0.530 OA
ATOM      2  C   LIG    1       -0.483   3.233   4.073  0.00  0.00    +0.640 C 
ATOM      3  N   LIG    1       -0.329   2.595   2.896  0.00  0.00    -0.640 N 
ATOM      4  C   LIG    1        0.105   1.239   2.504  0.00  0.00    +0.340 C 
ATOM      5  C   LIG    1       -0.703   1.470   1.218  0.00  0.00    +0.010 C 
ATOM      6  C   LIG    1       -2.151   1.001   1.321  0.00  0.00    +0.100 C 
ATOM      7  C   LIG    1       -2.911   1.445   0.066  0.00  0.00    +0.040 C 
ATOM      8  C   LIG    1       -2.172   0.929  -1.173  0.00  0.00    +0.060 C 
ATOM      9  C   LIG    1       -0.745   1.480  -1.180  0.00  0.00    +0.260 C 
ATOM     10  N   LIG    1       -0.025   1.001   0.008  0.00  0.00    -0.490 N 
ATOM     11  H   LIG    1        0.920   1.356  -0.006  0.00  0.00    +0.430 HD
ATOM     12  H   LIG    1       -0.004  -0.008   0.004  0.00  0.00    +0.430 HD
ATOM     13  C   LIG    1       -0.525   2.972   1.482  0.00  0.00    +0.320 C 
ENDROOT
BRANCH   2  14
ATOM     14  C   LIG    1       -0.820   4.611   4.094  0.00  0.00    -0.170 A 
ATOM     15  C   LIG    1       -1.113   5.410   3.001  0.00  0.00    +0.300 A 
ATOM     16  N   LIG    1       -1.374   6.631   3.439  0.00  0.00    -0.490 NA
ATOM     17  C   LIG    1       -1.266   6.667   4.766  0.00  0.00    +0.260 A 
ATOM     18  C   LIG    1       -1.441   7.710   5.694  0.00  0.00    +0.070 A 
ATOM     19  C   LIG    1       -1.264   7.461   7.022  0.00  0.00    +0.090 A 
ATOM     20  C   LIG    1       -0.910   6.172   7.443  0.00  0.00    +0.030 A 
ATOM     21  C   LIG    1       -0.745   5.182   6.536  0.00  0.00    +0.240 A 
ATOM     22  N   LIG    1       -0.927   5.420   5.210  0.00  0.00    -0.320 N 
ENDBRANCH   2  14
TORSDOF 1
