REMARK  Name = ZINCvU0000000BZT.0
REMARK                            x       y       z     vdW  Elec       q    Type
REMARK                         _______ _______ _______ _____ _____    ______ ____
ROOT
ATOM      1  C   LIG    1        4.010  -0.413   0.215  0.00  0.00    +0.260 A 
ATOM      2  N   LIG    1        4.639   0.660  -0.216  0.00  0.00    -0.280 NA
ATOM      3  N   LIG    1        3.667   1.656  -0.402  0.00  0.00    -0.360 N 
ATOM      4  C   LIG    1        2.481   1.103  -0.060  0.00  0.00    +0.320 A 
ATOM      5  N   LIG    1        2.704  -0.140   0.313  0.00  0.00    -0.520 NA
ENDROOT
BRANCH   4   6
ATOM      6  C   LIG    1        1.164   1.777  -0.095  0.00  0.00    -0.080 A 
ATOM      7  C   LIG    1        1.078   3.168  -0.151  0.00  0.00    +0.280 A 
ATOM      8  N   LIG    1       -0.093   3.765  -0.179  0.00  0.00    -0.470 NA
ATOM      9  C   LIG    1       -1.233   3.090  -0.158  0.00  0.00    +0.110 A 
ATOM     10  C   LIG    1       -2.526   3.866  -0.186  0.00  0.00    +0.310 C 
ATOM     11  O   LIG    1       -3.611   3.006  -0.533  0.00  0.00    -0.370 OA
ATOM     12  C   LIG    1       -3.679   1.828   0.277  0.00  0.00    +0.220 C 
ATOM     13  C   LIG    1       -2.508   0.916  -0.096  0.00  0.00    +0.070 C 
ATOM     14  C   LIG    1       -1.228   1.710  -0.113  0.00  0.00    -0.120 A 
ATOM     15  C   LIG    1       -0.020   1.033  -0.073  0.00  0.00    +0.130 A 
ENDBRANCH   4   6
BRANCH   1  19
ATOM     16  C   LIG    1        5.834  -4.138   1.158  0.00  0.00    -0.070 A 
ATOM     17  C   LIG    1        4.459  -3.983   1.298  0.00  0.00    +0.030 A 
ATOM     18  C   LIG    1        3.866  -2.777   0.993  0.00  0.00    +0.080 A 
ATOM     19  C   LIG    1        4.646  -1.712   0.544  0.00  0.00    -0.020 A 
ATOM     20  C   LIG    1        6.023  -1.871   0.399  0.00  0.00    +0.070 A 
ATOM     21  C   LIG    1        6.614  -3.077   0.710  0.00  0.00    -0.010 A 
BRANCH  16  23
ATOM     22  C   LIG    1        8.345  -5.374   1.208  0.00  0.00    +0.140 C 
ATOM     23  S   LIG    1        6.590  -5.681   1.549  0.00  0.00    -0.110 S 
ENDBRANCH  16  23
ENDBRANCH   1  19
BRANCH   3  24
ATOM     24  C   LIG    1        3.893   3.025  -0.872  0.00  0.00    +0.360 C 
BRANCH  24  25
ATOM     25  C   LIG    1        5.328   3.176  -1.308  0.00  0.00    -0.100 A 
ATOM     26  C   LIG    1        5.667   3.011  -2.638  0.00  0.00    +0.020 A 
ATOM     27  C   LIG    1        6.983   3.150  -3.039  0.00  0.00    +0.010 A 
ATOM     28  C   LIG    1        7.960   3.453  -2.109  0.00  0.00    +0.010 A 
ATOM     29  C   LIG    1        7.621   3.617  -0.779  0.00  0.00    -0.090 A 
ATOM     30  C   LIG    1        8.686   3.948   0.235  0.00  0.00    +0.090 C 
ATOM     31  C   LIG    1        6.304   3.485  -0.380  0.00  0.00    +0.030 A 
ENDBRANCH  24  25
ENDBRANCH   3  24
TORSDOF 5
