REMARK  Name = ZINCpe00000bcWHe.0
REMARK                            x       y       z     vdW  Elec       q    Type
REMARK                         _______ _______ _______ _____ _____    ______ ____
ROOT
ATOM      1  C   LIG    1        3.543   3.063   2.600  0.00  0.00    +0.560 C 
ATOM      2  N   LIG    1        2.329   2.976   2.021  0.00  0.00    -0.600 N 
ATOM      3  C   LIG    1        1.102   3.174   2.807  0.00  0.00    +0.290 C 
ATOM      4  C   LIG    1        0.164   1.990   2.552  0.00  0.00    +0.180 C 
ATOM      5  N   LIG    1       -0.043   1.834   1.106  0.00  0.00    -0.500 NA
ATOM      6  C   LIG    1        1.216   1.513   0.420  0.00  0.00    +0.180 C 
ATOM      7  C   LIG    1        2.197   2.679   0.587  0.00  0.00    +0.280 C 
ATOM      8  O   LIG    1        3.636   3.375   3.772  0.00  0.00    -0.530 OA
ENDROOT
BRANCH   1  13
ATOM      9  C   LIG    1        7.005   1.924   1.672  0.00  0.00    +0.140 A 
ATOM     10  C   LIG    1        7.042   2.253   0.322  0.00  0.00    +0.010 A 
ATOM     11  C   LIG    1        5.946   2.842  -0.280  0.00  0.00    +0.040 A 
ATOM     12  C   LIG    1        4.806   3.103   0.453  0.00  0.00    +0.030 A 
ATOM     13  C   LIG    1        4.761   2.781   1.811  0.00  0.00    -0.110 A 
ATOM     14  C   LIG    1        5.866   2.186   2.419  0.00  0.00    +0.080 A 
BRANCH   9  16
ATOM     15  C   LIG    1        7.943   0.419   3.257  0.00  0.00    +0.540 C 
ATOM     16  N   LIG    1        8.116   1.328   2.277  0.00  0.00    -0.670 N 
ATOM     17  H   LIG    1        9.011   1.569   1.991  0.00  0.00    +0.410 HD
ATOM     18  O   LIG    1        6.822   0.056   3.559  0.00  0.00    -0.520 OA
BRANCH  15  20
ATOM     19  C   LIG    1        8.940  -1.030   4.929  0.00  0.00    +0.160 C 
ATOM     20  C   LIG    1        9.110  -0.133   3.962  0.00  0.00    -0.090 C 
ENDBRANCH  15  20
ENDBRANCH   9  16
ENDBRANCH   1  13
BRANCH   5  21
ATOM     21  C   LIG    1       -1.068   0.821   0.826  0.00  0.00    +0.090 C 
ATOM     22  C   LIG    1       -2.376   1.214   1.517  0.00  0.00    +0.070 C 
ATOM     23  C   LIG    1       -1.296   0.729  -0.684  0.00  0.00    +0.070 C 
BRANCH  21  24
ATOM     24  C   LIG    1       -0.608  -0.516   1.347  0.00  0.00    +0.490 C 
ATOM     25  O   LIG    1        0.448  -0.607   1.936  0.00  0.00    -0.530 OA
ATOM     26  N   LIG    1       -1.371  -1.612   1.158  0.00  0.00    -0.850 N 
ATOM     27  H   LIG    1       -2.249  -1.528   0.756  0.00  0.00    +0.400 HD
ATOM     28  H   LIG    1       -1.042  -2.484   1.429  0.00  0.00    +0.400 HD
ENDBRANCH  21  24
ENDBRANCH   5  21
TORSDOF 5
