REMARK  Name = ZINCrH000004oz6o.0
REMARK                            x       y       z     vdW  Elec       q    Type
REMARK                         _______ _______ _______ _____ _____    ______ ____
ROOT
ATOM      1  N   LIG    1       -0.249   4.494   8.286  0.00  0.00    -0.640 N 
ATOM      2  H   LIG    1        0.503   4.996   7.936  0.00  0.00    +0.420 HD
ATOM      3  C   LIG    1       -0.904   4.935   9.378  0.00  0.00    +0.710 C 
ATOM      4  N   LIG    1       -0.454   6.018  10.043  0.00  0.00    -0.610 N 
ATOM      5  C   LIG    1        0.682   6.794   9.527  0.00  0.00    +0.270 C 
ATOM      6  C   LIG    1        0.267   8.265   9.422  0.00  0.00    +0.010 C 
ATOM      7  C   LIG    1       -0.254   8.742  10.780  0.00  0.00    +0.020 C 
ATOM      8  C   LIG    1       -1.481   7.919  11.175  0.00  0.00    -0.070 C 
ATOM      9  C   LIG    1       -2.567   8.073  10.107  0.00  0.00    +0.000 C 
ATOM     10  C   LIG    1       -3.010   9.537  10.049  0.00  0.00    +0.200 C 
ATOM     11  O   LIG    1       -3.474   9.945  11.337  0.00  0.00    -0.380 OA
ATOM     12  C   LIG    1       -2.485   9.868  12.366  0.00  0.00    +0.210 C 
ATOM     13  C   LIG    1       -2.021   8.417  12.518  0.00  0.00    +0.020 C 
ATOM     14  C   LIG    1       -1.093   6.447  11.294  0.00  0.00    +0.310 C 
ATOM     15  O   LIG    1       -1.903   4.357   9.763  0.00  0.00    -0.550 OA
ENDROOT
BRANCH   1  19
ATOM     16  C   LIG    1       -0.603   1.681   6.149  0.00  0.00    +0.090 A 
ATOM     17  C   LIG    1       -1.644   1.219   6.843  0.00  0.00    -0.120 A 
ATOM     18  S   LIG    1       -1.954   2.336   8.171  0.00  0.00    +0.250 S 
ATOM     19  C   LIG    1       -0.650   3.318   7.662  0.00  0.00    +0.260 A 
ATOM     20  N   LIG    1       -0.088   2.804   6.614  0.00  0.00    -0.510 NA
BRANCH  16  21
ATOM     21  C   LIG    1       -0.056   0.975   4.935  0.00  0.00    +0.270 C 
BRANCH  21  27
ATOM     22  C   LIG    1        0.009   1.067   0.018  0.00  0.00    +0.020 C 
ATOM     23  C   LIG    1       -0.710   1.563   1.274  0.00  0.00    -0.010 C 
ATOM     24  C   LIG    1       -0.726   3.094   1.282  0.00  0.00    +0.000 C 
ATOM     25  C   LIG    1       -1.393   3.583   2.571  0.00  0.00    +0.010 C 
ATOM     26  C   LIG    1       -0.638   3.020   3.777  0.00  0.00    +0.170 C 
ATOM     27  N   LIG    1       -0.652   1.552   3.723  0.00  0.00    -0.530 NA
ATOM     28  C   LIG    1        0.026   1.058   2.517  0.00  0.00    +0.170 C 
ENDBRANCH  21  27
ENDBRANCH  16  21
ENDBRANCH   1  19
TORSDOF 3
