REMARK  Name = ZINCrD0000071snQ.0
REMARK                            x       y       z     vdW  Elec       q    Type
REMARK                         _______ _______ _______ _____ _____    ______ ____
ROOT
ATOM      1  C   LIG    1       -0.020   1.199   0.043  0.00  0.00    +0.530 C 
ATOM      2  O   LIG    1       -0.001  -0.016   0.041  0.00  0.00    -0.500 OA
ENDROOT
BRANCH   1   8
ATOM      3  N   LIG    1       -4.943   3.788   0.106  0.00  0.00    -0.380 N 
ATOM      4  N   LIG    1       -5.803   2.686   0.115  0.00  0.00    -0.230 NA
ATOM      5  C   LIG    1       -5.115   1.580   0.105  0.00  0.00    +0.310 A 
ATOM      6  C   LIG    1       -3.701   1.940   0.088  0.00  0.00    -0.240 A 
ATOM      7  C   LIG    1       -2.512   1.209   0.067  0.00  0.00    +0.240 A 
ATOM      8  C   LIG    1       -1.309   1.917   0.060  0.00  0.00    -0.230 A 
ATOM      9  C   LIG    1       -1.340   3.319   0.062  0.00  0.00    +0.410 A 
ATOM     10  N   LIG    1       -2.476   3.976   0.077  0.00  0.00    -0.510 NA
ATOM     11  C   LIG    1       -3.648   3.350   0.090  0.00  0.00    +0.340 A 
BRANCH   3  13
ATOM     12  C   LIG    1       -6.216   5.474  -1.125  0.00  0.00    +0.050 C 
ATOM     13  C   LIG    1       -5.363   5.191   0.114  0.00  0.00    +0.270 C 
ATOM     14  C   LIG    1       -6.185   5.471   1.374  0.00  0.00    +0.050 C 
ENDBRANCH   3  13
ENDBRANCH   1   8
BRANCH   1  15
ATOM     15  O   LIG    1        1.137   1.891   0.025  0.00  0.00    -0.320 OA
BRANCH  15  16
ATOM     16  C   LIG    1        2.366   1.119   0.003  0.00  0.00    +0.200 C 
ATOM     17  C   LIG    1        2.774   0.850  -1.447  0.00  0.00    +0.070 C 
BRANCH  16  18
ATOM     18  C   LIG    1        3.458   1.893   0.697  0.00  0.00    +0.520 C 
ATOM     19  N   LIG    1        4.695   1.369   0.798  0.00  0.00    -0.670 N 
ATOM     20  H   LIG    1        4.868   0.468   0.483  0.00  0.00    +0.420 HD
ATOM     21  O   LIG    1        3.222   2.987   1.163  0.00  0.00    -0.490 OA
BRANCH  19  22
ATOM     22  C   LIG    1        5.732   2.125   1.359  0.00  0.00    +0.110 A 
ATOM     23  C   LIG    1        5.467   3.007   2.397  0.00  0.00    +0.060 A 
ATOM     24  C   LIG    1        6.492   3.752   2.949  0.00  0.00    +0.030 A 
ATOM     25  C   LIG    1        7.781   3.620   2.467  0.00  0.00    +0.040 A 
ATOM     26  C   LIG    1        8.050   2.743   1.433  0.00  0.00    +0.000 A 
ATOM     27  C   LIG    1        7.031   1.990   0.880  0.00  0.00    +0.070 A 
ATOM     28  F   LIG    1        7.295   1.129  -0.127  0.00  0.00    -0.140 F 
ENDBRANCH  19  22
ENDBRANCH  16  18
ENDBRANCH  15  16
ENDBRANCH   1  15
TORSDOF 6
