REMARK  Name = ZINCrg00000fRfX0.0
REMARK                            x       y       z     vdW  Elec       q    Type
REMARK                         _______ _______ _______ _____ _____    ______ ____
ROOT
ATOM      1  N   LIG    1       -1.328  -0.449   0.057  0.00  0.00    -0.510 N 
ATOM      2  C   LIG    1       -1.700  -0.811  -1.189  0.00  0.00    +0.510 C 
ATOM      3  O   LIG    1       -2.730  -1.431  -1.358  0.00  0.00    -0.500 OA
ENDROOT
BRANCH   1   4
ATOM      4  C   LIG    1       -2.077  -0.882   1.171  0.00  0.00    -0.160 A 
ATOM      5  C   LIG    1       -3.379  -0.462   1.347  0.00  0.00    +0.510 A 
ATOM      6  N   LIG    1       -4.086  -0.905   2.441  0.00  0.00    -0.540 N 
ATOM      7  C   LIG    1       -3.510  -1.730   3.335  0.00  0.00    +0.710 A 
ATOM      8  N   LIG    1       -2.240  -2.145   3.182  0.00  0.00    -0.660 N 
ATOM      9  H   LIG    1       -1.848  -2.740   3.840  0.00  0.00    +0.430 HD
ATOM     10  O   LIG    1       -4.150  -2.106   4.298  0.00  0.00    -0.530 OA
ATOM     11  C   LIG    1       -1.506  -1.745   2.126  0.00  0.00    +0.570 A 
ATOM     12  O   LIG    1       -0.356  -2.128   1.997  0.00  0.00    -0.520 OA
BRANCH   5  13
ATOM     13  N   LIG    1       -3.966   0.386   0.438  0.00  0.00    -0.820 N 
ATOM     14  H   LIG    1       -4.894   0.645   0.545  0.00  0.00    +0.410 HD
ATOM     15  H   LIG    1       -3.450   0.726  -0.310  0.00  0.00    +0.420 HD
ENDBRANCH   5  13
BRANCH   6  16
ATOM     16  C   LIG    1       -5.471  -0.471   2.638  0.00  0.00    +0.300 C 
BRANCH  16  17
ATOM     17  C   LIG    1       -5.490   0.819   3.459  0.00  0.00    +0.010 C 
ATOM     18  C   LIG    1       -6.937   1.272   3.664  0.00  0.00    +0.040 C 
ENDBRANCH  16  17
ENDBRANCH   6  16
ENDBRANCH   1   4
BRANCH   1  19
ATOM     19  C   LIG    1       -0.146   0.394   0.251  0.00  0.00    +0.280 C 
BRANCH  19  20
ATOM     20  C   LIG    1       -0.555   1.867   0.194  0.00  0.00    -0.010 C 
BRANCH  20  22
ATOM     21  C   LIG    1        0.271   4.221   0.339  0.00  0.00    +0.010 C 
ATOM     22  C   LIG    1        0.680   2.748   0.397  0.00  0.00    +0.020 C 
ENDBRANCH  20  22
ENDBRANCH  19  20
ENDBRANCH   1  19
BRANCH   2  23
ATOM     23  C   LIG    1       -0.838  -0.447  -2.369  0.00  0.00    +0.260 C 
BRANCH  23  24
ATOM     24  O   LIG    1       -1.450  -0.946  -3.588  0.00  0.00    -0.330 OA
BRANCH  24  25
ATOM     25  C   LIG    1       -0.802  -0.703  -4.739  0.00  0.00    +0.470 C 
ATOM     26  O   LIG    1        0.241  -0.094  -4.728  0.00  0.00    -0.500 OA
BRANCH  25  27
ATOM     27  C   LIG    1       -1.377  -1.190  -6.044  0.00  0.00    +0.020 C 
ATOM     28  C   LIG    1       -1.089  -2.674  -6.328  0.00  0.00    +0.050 C 
ATOM     29  C   LIG    1       -0.852  -2.264  -7.793  0.00  0.00    +0.030 C 
ATOM     30  C   LIG    1       -0.498  -0.865  -7.263  0.00  0.00    +0.060 C 
ENDBRANCH  25  27
ENDBRANCH  24  25
ENDBRANCH  23  24
ENDBRANCH   2  23
TORSDOF 11
