REMARK  Name = ZINCkj00000cLUAW.0
REMARK                            x       y       z     vdW  Elec       q    Type
REMARK                         _______ _______ _______ _____ _____    ______ ____
ROOT
ATOM      1  C   LIG    1        0.721  -0.492  -1.259  0.00  0.00    +0.290 C 
ATOM      2  C   LIG    1        0.002  -0.004   0.002  0.00  0.00    +0.050 C 
ATOM      3  C   LIG    1       -0.019   1.526   0.010  0.00  0.00    +0.260 C 
ATOM      4  N   LIG    1        1.357   2.038   0.000  0.00  0.00    -0.380 N 
ATOM      5  C   LIG    1        2.030   1.633  -1.240  0.00  0.00    +0.260 C 
ATOM      6  H   LIG    1        1.860   1.664   0.791  0.00  0.00    +0.430 HD
ATOM      7  C   LIG    1        2.129   0.107  -1.297  0.00  0.00    +0.060 C 
ENDROOT
BRANCH   1  12
ATOM      8  C   LIG    1        1.952  -5.026   0.366  0.00  0.00    +0.340 C 
ATOM      9  N   LIG    1        1.366  -4.003  -0.503  0.00  0.00    -0.630 N 
ATOM     10  C   LIG    1        0.618  -4.264  -1.742  0.00  0.00    +0.270 C 
ATOM     11  C   LIG    1        0.231  -2.859  -2.243  0.00  0.00    +0.270 C 
ATOM     12  N   LIG    1        0.809  -1.955  -1.237  0.00  0.00    -0.640 N 
ATOM     13  C   LIG    1        1.425  -2.681  -0.295  0.00  0.00    +0.700 C 
ATOM     14  O   LIG    1        1.987  -2.185   0.662  0.00  0.00    -0.590 OA
ENDBRANCH   1  12
BRANCH   4  15
ATOM     15  C   LIG    1        1.333   3.504   0.087  0.00  0.00    +0.280 C 
BRANCH  15  16
ATOM     16  C   LIG    1        2.757   4.046  -0.049  0.00  0.00    +0.140 C 
ATOM     17  C   LIG    1        2.733   5.574   0.042  0.00  0.00    +0.010 C 
ATOM     18  C   LIG    1        4.168   6.105  -0.035  0.00  0.00    +0.020 C 
ATOM     19  C   LIG    1        4.996   5.470   1.086  0.00  0.00    +0.000 C 
ATOM     20  C   LIG    1        4.933   3.946   0.954  0.00  0.00    +0.230 C 
ATOM     21  O   LIG    1        3.570   3.520   1.002  0.00  0.00    -0.390 OA
ENDBRANCH  15  16
ENDBRANCH   4  15
TORSDOF 3
