REMARK  Name = ZINCrg000000sxCE.0
REMARK                            x       y       z     vdW  Elec       q    Type
REMARK                         _______ _______ _______ _____ _____    ______ ____
ROOT
ATOM      1  C   LIG    1       -1.140  10.300   0.087  0.00  0.00    +0.220 C 
ENDROOT
BRANCH   1   2
ATOM      2  C   LIG    1       -1.870   9.048   0.499  0.00  0.00    +0.520 C 
ATOM      3  N   LIG    1       -1.521   7.859  -0.030  0.00  0.00    -0.730 N 
ATOM      4  H   LIG    1       -0.799   7.809  -0.676  0.00  0.00    +0.410 HD
ATOM      5  O   LIG    1       -2.773   9.111   1.306  0.00  0.00    -0.530 OA
BRANCH   3   6
ATOM      6  C   LIG    1       -2.231   6.642   0.370  0.00  0.00    +0.300 C 
BRANCH   6   7
ATOM      7  C   LIG    1       -1.642   5.441  -0.372  0.00  0.00    +0.170 C 
ATOM      8  C   LIG    1       -2.369   4.136   0.033  0.00  0.00    +0.100 C 
ATOM      9  C   LIG    1       -1.234   3.131   0.028  0.00  0.00    -0.170 A 
ATOM     10  C   LIG    1       -1.219   1.754   0.017  0.00  0.00    +0.060 A 
ATOM     11  C   LIG    1       -0.013   1.076   0.008  0.00  0.00    -0.020 A 
ATOM     12  C   LIG    1        1.174   1.786   0.000  0.00  0.00    +0.050 A 
ATOM     13  C   LIG    1        1.161   3.165   0.011  0.00  0.00    -0.010 A 
ATOM     14  C   LIG    1       -0.049   3.855   0.026  0.00  0.00    +0.100 A 
ATOM     15  O   LIG    1       -0.290   5.195   0.049  0.00  0.00    -0.300 OA
ENDBRANCH   6   7
ENDBRANCH   3   6
ENDBRANCH   1   2
BRANCH   1  16
ATOM     16  N   LIG    1       -1.705  11.454   0.799  0.00  0.00    -0.650 NA
ATOM     17  H   LIG    1       -1.674  11.313   1.798  0.00  0.00    +0.370 HD
BRANCH  16  18
ATOM     18  C   LIG    1       -1.016  12.695   0.422  0.00  0.00    +0.210 C 
ATOM     19  C   LIG    1        0.470  12.584   0.777  0.00  0.00    +0.010 C 
ATOM     20  C   LIG    1        1.164  13.911   0.455  0.00  0.00    +0.210 C 
ATOM     21  O   LIG    1        0.527  14.969   1.175  0.00  0.00    -0.370 OA
ATOM     22  C   LIG    1       -0.852  15.149   0.847  0.00  0.00    +0.220 C 
ATOM     23  C   LIG    1       -1.627  13.873   1.186  0.00  0.00    +0.050 C 
BRANCH  18  28
ATOM     24  C   LIG    1       -0.957  12.167  -4.557  0.00  0.00    +0.200 C 
ATOM     25  C   LIG    1       -1.145  12.714  -3.166  0.00  0.00    +0.170 A 
ATOM     26  N   LIG    1       -1.634  13.878  -2.856  0.00  0.00    -0.380 NA
ATOM     27  O   LIG    1       -1.653  14.018  -1.651  0.00  0.00    +0.080 OA
ATOM     28  C   LIG    1       -1.164  12.924  -1.060  0.00  0.00    +0.200 A 
ATOM     29  N   LIG    1       -0.833  12.089  -2.016  0.00  0.00    -0.480 NA
ENDBRANCH  18  28
ENDBRANCH  16  18
ENDBRANCH   1  16
TORSDOF 6
