REMARK  Name = ZINCrD000001YJPB.0
REMARK                            x       y       z     vdW  Elec       q    Type
REMARK                         _______ _______ _______ _____ _____    ______ ____
ROOT
ATOM      1  C   LIG    1       -0.038   1.152  -2.486  0.00  0.00    +0.540 C 
ATOM      2  N   LIG    1       -0.571   1.391  -3.701  0.00  0.00    -0.610 N 
ATOM      3  C   LIG    1       -1.795   2.168  -3.965  0.00  0.00    +0.250 C 
ATOM      4  C   LIG    1       -2.309   1.651  -5.330  0.00  0.00    +0.040 C 
ATOM      5  C   LIG    1       -0.981   1.405  -6.093  0.00  0.00    +0.030 C 
ATOM      6  C   LIG    1       -0.029   0.914  -4.982  0.00  0.00    +0.170 C 
ATOM      7  C   LIG    1        0.032  -0.615  -4.984  0.00  0.00    +0.040 C 
ATOM      8  O   LIG    1        1.012   0.554  -2.390  0.00  0.00    -0.530 OA
ENDROOT
BRANCH   1  14
ATOM      9  C   LIG    1       -3.958   1.722   0.223  0.00  0.00    +0.550 C 
ATOM     10  N   LIG    1       -2.693   1.259   0.182  0.00  0.00    -0.610 N 
ATOM     11  C   LIG    1       -1.905   1.125   1.415  0.00  0.00    +0.260 C 
ATOM     12  C   LIG    1       -0.581   1.873   1.237  0.00  0.00    +0.010 C 
ATOM     13  C   LIG    1        0.126   1.359  -0.019  0.00  0.00    +0.060 C 
ATOM     14  C   LIG    1       -0.749   1.629  -1.245  0.00  0.00    -0.020 C 
ATOM     15  C   LIG    1       -2.076   0.878  -1.096  0.00  0.00    +0.290 C 
ATOM     16  O   LIG    1       -4.631   1.741  -0.790  0.00  0.00    -0.540 OA
BRANCH   9  18
ATOM     17  C   LIG    1       -5.732   2.760   1.512  0.00  0.00    +0.140 C 
ATOM     18  C   LIG    1       -4.525   2.203   1.492  0.00  0.00    -0.090 C 
ENDBRANCH   9  18
ENDBRANCH   1  14
BRANCH   6  19
ATOM     19  C   LIG    1        1.371   1.491  -5.202  0.00  0.00    +0.090 C 
BRANCH  19  20
ATOM     20  C   LIG    1        1.916   0.996  -6.517  0.00  0.00    -0.080 A 
ATOM     21  C   LIG    1        2.735  -0.116  -6.551  0.00  0.00    +0.030 A 
ATOM     22  C   LIG    1        3.233  -0.573  -7.759  0.00  0.00    +0.090 A 
ATOM     23  C   LIG    1        2.919   0.091  -8.933  0.00  0.00    +0.020 A 
ATOM     24  C   LIG    1        2.104   1.206  -8.899  0.00  0.00    +0.030 A 
ATOM     25  F   LIG    1        4.030  -1.663  -7.793  0.00  0.00    -0.130 F 
ATOM     26  C   LIG    1        1.602   1.660  -7.691  0.00  0.00    +0.090 A 
ATOM     27  F   LIG    1        0.806   2.751  -7.658  0.00  0.00    -0.130 F 
ENDBRANCH  19  20
ENDBRANCH   6  19
TORSDOF 4
