REMARK  Name = ZINCrg000000sN4Q.0
REMARK                            x       y       z     vdW  Elec       q    Type
REMARK                         _______ _______ _______ _____ _____    ______ ____
ROOT
ATOM      1  C   LIG    1       -1.601   0.487  -0.271  0.00  0.00    -0.040 C 
ATOM      2  C   LIG    1       -2.859   0.827  -0.433  0.00  0.00    -0.030 C 
ATOM      3  C   LIG    1       -3.999  -0.149  -0.334  0.00  0.00    +0.330 C 
ATOM      4  N   LIG    1       -3.462  -1.517  -0.304  0.00  0.00    -0.630 N 
ATOM      5  C   LIG    1       -2.284  -1.762   0.546  0.00  0.00    +0.310 C 
ATOM      6  C   LIG    1       -4.024  -2.507  -1.025  0.00  0.00    +0.720 C 
ATOM      7  N   LIG    1       -5.039  -2.233  -1.869  0.00  0.00    -0.740 N 
ATOM      8  H   LIG    1       -5.413  -1.339  -1.904  0.00  0.00    +0.390 HD
ATOM      9  O   LIG    1       -3.616  -3.647  -0.914  0.00  0.00    -0.580 OA
ATOM     10  C   LIG    1       -1.130  -0.910   0.007  0.00  0.00    +0.080 C 
ENDROOT
BRANCH   7  11
ATOM     11  C   LIG    1       -5.576  -3.286  -2.734  0.00  0.00    +0.270 C 
ATOM     12  C   LIG    1       -4.735  -3.381  -4.013  0.00  0.00    +0.020 C 
ATOM     13  C   LIG    1       -5.202  -4.602  -4.810  0.00  0.00    +0.090 C 
ATOM     14  C   LIG    1       -6.698  -4.589  -4.933  0.00  0.00    +0.520 C 
ATOM     15  N   LIG    1       -7.495  -3.858  -4.153  0.00  0.00    -0.710 N 
ATOM     16  H   LIG    1       -8.453  -3.936  -4.282  0.00  0.00    +0.400 HD
ATOM     17  O   LIG    1       -7.210  -5.282  -5.787  0.00  0.00    -0.550 OA
ATOM     18  C   LIG    1       -7.017  -2.948  -3.120  0.00  0.00    +0.230 C 
BRANCH  18  19
ATOM     19  C   LIG    1       -7.912  -3.068  -1.886  0.00  0.00    +0.160 C 
ATOM     20  C   LIG    1       -9.390  -2.797  -2.265  0.00  0.00    +0.010 C 
ATOM     21  C   LIG    1      -10.129  -3.573  -1.139  0.00  0.00    +0.020 C 
ATOM     22  C   LIG    1       -9.190  -4.774  -0.895  0.00  0.00    +0.190 C 
ATOM     23  O   LIG    1       -7.893  -4.415  -1.385  0.00  0.00    -0.370 OA
ENDBRANCH  18  19
ENDBRANCH   7  11
BRANCH   1  29
ATOM     24  C   LIG    1       -1.187   2.415  -2.667  0.00  0.00    +0.340 C 
ATOM     25  N   LIG    1       -0.404   2.396  -1.430  0.00  0.00    -0.370 N 
ATOM     26  N   LIG    1        0.668   3.243  -1.118  0.00  0.00    -0.290 NA
ATOM     27  C   LIG    1        1.122   2.927   0.069  0.00  0.00    +0.240 A 
ATOM     28  C   LIG    1        0.366   1.868   0.570  0.00  0.00    -0.100 A 
ATOM     29  C   LIG    1       -0.583   1.547  -0.377  0.00  0.00    +0.100 A 
ENDBRANCH   1  29
TORSDOF 3
