REMARK  Name = ZINCtV000002JC6H.0
REMARK                            x       y       z     vdW  Elec       q    Type
REMARK                         _______ _______ _______ _____ _____    ______ ____
ROOT
ATOM      1  N   LIG    1        6.561   0.839   1.325  0.00  0.00    -0.740 N 
ATOM      2  H   LIG    1        5.940   0.781   2.067  0.00  0.00    +0.400 HD
ENDROOT
BRANCH   1   3
ATOM      3  C   LIG    1        7.935   0.955   1.568  0.00  0.00    +0.220 A 
ATOM      4  C   LIG    1        8.825   1.032   0.505  0.00  0.00    -0.030 A 
ATOM      5  C   LIG    1       10.180   1.152   0.745  0.00  0.00    +0.050 A 
ATOM      6  C   LIG    1       10.653   1.183   2.050  0.00  0.00    -0.120 A 
ATOM      7  C   LIG    1        9.764   1.100   3.115  0.00  0.00    -0.030 A 
ATOM      8 BR   LIG    1       10.408   1.143   4.892  0.00  0.00    -0.030 Br
ATOM      9  C   LIG    1        8.408   0.986   2.874  0.00  0.00    +0.000 A 
BRANCH   6  10
ATOM     10  S   LIG    1       12.383   1.328   2.356  0.00  0.00    -0.070 S 
BRANCH  10  11
ATOM     11  C   LIG    1       13.088   1.400   0.686  0.00  0.00    +0.120 C 
BRANCH  11  12
ATOM     12  C   LIG    1       14.587   1.527   0.779  0.00  0.00    -0.080 A 
ATOM     13  C   LIG    1       15.173   2.778   0.824  0.00  0.00    +0.020 A 
ATOM     14  C   LIG    1       16.548   2.894   0.914  0.00  0.00    +0.010 A 
ATOM     15  C   LIG    1       17.337   1.759   0.949  0.00  0.00    +0.010 A 
ATOM     16  C   LIG    1       16.750   0.508   0.898  0.00  0.00    +0.010 A 
ATOM     17  C   LIG    1       15.376   0.392   0.813  0.00  0.00    +0.020 A 
ENDBRANCH  11  12
ENDBRANCH  10  11
ENDBRANCH   6  10
ENDBRANCH   1   3
BRANCH   1  18
ATOM     18  C   LIG    1        6.062   0.806  -0.052  0.00  0.00    +0.410 C 
BRANCH  18  21
ATOM     19  C   LIG    1        2.487   1.121  -0.016  0.00  0.00    +0.240 A 
ATOM     20  N   LIG    1        3.679   1.690  -0.025  0.00  0.00    -0.460 NA
ATOM     21  C   LIG    1        4.560   0.678  -0.039  0.00  0.00    +0.160 A 
ATOM     22  N   LIG    1        3.885  -0.433  -0.039  0.00  0.00    -0.360 NA
ATOM     23  O   LIG    1        2.693  -0.205  -0.020  0.00  0.00    +0.090 OA
BRANCH  19  29
ATOM     24  C   LIG    1       -2.521   1.026   0.019  0.00  0.00    +0.120 C 
ATOM     25  C   LIG    1       -1.210   1.769   0.017  0.00  0.00    -0.140 A 
ATOM     26  C   LIG    1       -1.192   3.152   0.030  0.00  0.00    +0.300 A 
ATOM     27  N   LIG    1       -0.052   3.818   0.023  0.00  0.00    -0.480 NA
ATOM     28  C   LIG    1        1.112   3.204   0.009  0.00  0.00    +0.330 A 
ATOM     29  C   LIG    1        1.179   1.810   0.001  0.00  0.00    -0.090 A 
ATOM     30  C   LIG    1       -0.013   1.076   0.008  0.00  0.00    +0.110 A 
ENDBRANCH  19  29
ENDBRANCH  18  21
ENDBRANCH   1  18
TORSDOF 7
