REMARK  Name = ZINCqH0000038FyH.0
REMARK                            x       y       z     vdW  Elec       q    Type
REMARK                         _______ _______ _______ _____ _____    ______ ____
ROOT
ATOM      1  C   LIG    1        1.040  -2.137  -0.367  0.00  0.00    +0.160 C 
ATOM      2  C   LIG    1        1.112  -0.642  -0.193  0.00  0.00    +0.250 A 
ATOM      3  C   LIG    1        2.358  -0.003  -0.257  0.00  0.00    -0.230 A 
ATOM      4  C   LIG    1        2.421   1.382  -0.096  0.00  0.00    +0.190 A 
ATOM      5  C   LIG    1        1.227   2.071   0.124  0.00  0.00    -0.240 A 
ATOM      6  C   LIG    1        0.887   3.475   0.332  0.00  0.00    +0.290 A 
ATOM      7  N   LIG    1       -0.404   3.548   0.487  0.00  0.00    -0.230 NA
ATOM      8  N   LIG    1       -0.973   2.275   0.393  0.00  0.00    -0.380 N 
ATOM      9  C   LIG    1        0.013   1.354   0.174  0.00  0.00    +0.340 A 
ATOM     10  N   LIG    1        0.007   0.035   0.015  0.00  0.00    -0.500 NA
ENDROOT
BRANCH   3  11
ATOM     11  C   LIG    1        3.588  -0.785  -0.492  0.00  0.00    +0.580 C 
ATOM     12  N   LIG    1        4.607  -0.720   0.388  0.00  0.00    -0.550 N 
ATOM     13  C   LIG    1        5.833  -1.356   0.130  0.00  0.00    +0.080 A 
ATOM     14  C   LIG    1        6.121  -1.817  -1.145  0.00  0.00    +0.050 A 
ATOM     15  C   LIG    1        7.328  -2.445  -1.394  0.00  0.00    +0.000 A 
ATOM     16  C   LIG    1        8.245  -2.612  -0.373  0.00  0.00    +0.030 A 
ATOM     17  C   LIG    1        7.963  -2.152   0.900  0.00  0.00    +0.000 A 
ATOM     18  C   LIG    1        6.756  -1.520   1.159  0.00  0.00    +0.090 A 
ATOM     19  O   LIG    1        6.491  -1.064   2.411  0.00  0.00    -0.310 OA
ATOM     20  C   LIG    1        5.124  -0.827   2.758  0.00  0.00    +0.240 C 
ATOM     21  C   LIG    1        4.475   0.024   1.653  0.00  0.00    +0.200 C 
ATOM     22  C   LIG    1        5.194   1.370   1.539  0.00  0.00    +0.050 C 
ATOM     23  O   LIG    1        3.682  -1.488  -1.480  0.00  0.00    -0.500 OA
ENDBRANCH   3  11
BRANCH   8  24
ATOM     24  C   LIG    1       -2.402   1.975   0.510  0.00  0.00    +0.270 C 
ATOM     25  C   LIG    1       -3.172   2.721  -0.582  0.00  0.00    +0.050 C 
ATOM     26  C   LIG    1       -2.906   2.421   1.885  0.00  0.00    +0.050 C 
ENDBRANCH   8  24
TORSDOF 2
