REMARK  Name = ZINCvU00000009IH.0
REMARK                            x       y       z     vdW  Elec       q    Type
REMARK                         _______ _______ _______ _____ _____    ______ ____
ROOT
ATOM      1  C   LIG    1        1.639   2.080   0.300  0.00  0.00    +0.220 C 
ENDROOT
BRANCH   1   2
ATOM      2  C   LIG    1        1.703   3.567   0.534  0.00  0.00    +0.510 C 
ATOM      3  N   LIG    1        2.876   4.219   0.404  0.00  0.00    -0.680 N 
ATOM      4  H   LIG    1        3.691   3.722   0.233  0.00  0.00    +0.410 HD
ATOM      5  O   LIG    1        0.701   4.177   0.840  0.00  0.00    -0.490 OA
BRANCH   3   6
ATOM      6  C   LIG    1        2.917   5.612   0.516  0.00  0.00    +0.150 A 
ATOM      7  C   LIG    1        1.843   6.376   0.075  0.00  0.00    +0.020 A 
ATOM      8  C   LIG    1        1.879   7.749   0.189  0.00  0.00    +0.040 A 
ATOM      9  C   LIG    1        2.999   8.373   0.737  0.00  0.00    -0.060 A 
ATOM     10  C   LIG    1        4.077   7.606   1.173  0.00  0.00    +0.040 A 
ATOM     11  C   LIG    1        4.034   6.232   1.063  0.00  0.00    -0.010 A 
BRANCH   9  12
ATOM     12  C   LIG    1        3.043   9.851   0.854  0.00  0.00    -0.040 A 
ATOM     13  C   LIG    1        4.160  10.476   1.406  0.00  0.00    +0.010 A 
ATOM     14  C   LIG    1        4.197  11.852   1.508  0.00  0.00    +0.000 A 
ATOM     15  C   LIG    1        3.125  12.610   1.074  0.00  0.00    +0.000 A 
ATOM     16  C   LIG    1        2.012  11.995   0.529  0.00  0.00    +0.000 A 
ATOM     17  C   LIG    1        1.966  10.620   0.417  0.00  0.00    +0.020 A 
ENDBRANCH   9  12
ENDBRANCH   3   6
ENDBRANCH   1   2
BRANCH   1  18
ATOM     18  N   LIG    1        0.261   1.612   0.503  0.00  0.00    -0.520 NA
BRANCH  18  19
ATOM     19  C   LIG    1       -0.639   2.166  -0.518  0.00  0.00    +0.220 C 
BRANCH  19  21
ATOM     20  C   LIG    1       -1.133   2.248  -2.966  0.00  0.00    +0.020 C 
ATOM     21  C   LIG    1       -0.288   1.573  -1.884  0.00  0.00    -0.030 C 
ENDBRANCH  19  21
ENDBRANCH  18  19
BRANCH  18  22
ATOM     22  C   LIG    1        0.200   0.144   0.517  0.00  0.00    +0.350 C 
BRANCH  22  23
ATOM     23  C   LIG    1       -1.130  -0.298   1.069  0.00  0.00    +0.180 A 
ATOM     24  N   LIG    1       -2.187  -0.609   0.373  0.00  0.00    -0.270 NA
ATOM     25  N   LIG    1       -3.144  -0.943   1.166  0.00  0.00    -0.270 NA
ATOM     26  C   LIG    1       -2.725  -0.854   2.410  0.00  0.00    +0.240 A 
ATOM     27  O   LIG    1       -1.439  -0.449   2.370  0.00  0.00    -0.210 OA
BRANCH  26  28
ATOM     28  C   LIG    1       -3.511  -1.148   3.618  0.00  0.00    -0.150 A 
ATOM     29  C   LIG    1       -4.809  -1.561   3.632  0.00  0.00    +0.100 A 
ATOM     30  C   LIG    1       -5.326  -1.771   4.891  0.00  0.00    +0.010 A 
ATOM     31  C   LIG    1       -4.480  -1.539   5.900  0.00  0.00    -0.010 A 
ATOM     32  S   LIG    1       -2.920  -1.028   5.270  0.00  0.00    +0.180 S 
ENDBRANCH  26  28
ENDBRANCH  22  23
ENDBRANCH  18  22
ENDBRANCH   1  18
TORSDOF 9
