REMARK  Name = ZINCkj000018RAEV.0
REMARK                            x       y       z     vdW  Elec       q    Type
REMARK                         _______ _______ _______ _____ _____    ______ ____
ROOT
ATOM      1  N   LIG    1       -5.160   0.837  -2.572  0.00  0.00    -0.660 N 
ATOM      2  H   LIG    1       -4.749   1.128  -3.401  0.00  0.00    +0.410 HD
ATOM      3  C   LIG    1       -4.481   0.938  -1.412  0.00  0.00    +0.510 C 
ATOM      4  O   LIG    1       -5.024   0.652  -0.365  0.00  0.00    -0.510 OA
ENDROOT
BRANCH   1   8
ATOM      5  C   LIG    1       -9.023  -0.732  -2.599  0.00  0.00    +0.130 A 
ATOM      6  C   LIG    1       -8.593   0.035  -1.526  0.00  0.00    +0.000 A 
ATOM      7  C   LIG    1       -7.314   0.554  -1.516  0.00  0.00    +0.060 A 
ATOM      8  C   LIG    1       -6.458   0.310  -2.581  0.00  0.00    +0.080 A 
ATOM      9  C   LIG    1       -6.890  -0.453  -3.658  0.00  0.00    +0.040 A 
ATOM     10  C   LIG    1       -8.168  -0.977  -3.663  0.00  0.00    -0.050 A 
BRANCH   5  12
ATOM     11  C   LIG    1      -10.659  -2.023  -3.745  0.00  0.00    +0.250 C 
ATOM     12  O   LIG    1      -10.283  -1.243  -2.608  0.00  0.00    -0.310 OA
ENDBRANCH   5  12
ENDBRANCH   1   8
BRANCH   3  13
ATOM     13  C   LIG    1       -3.049   1.407  -1.415  0.00  0.00    +0.050 C 
BRANCH  13  14
ATOM     14  C   LIG    1       -2.518   1.432   0.020  0.00  0.00    +0.330 C 
BRANCH  14  15
ATOM     15  N   LIG    1       -1.126   1.887   0.018  0.00  0.00    -0.440 N 
ATOM     16  C   LIG    1       -0.011   1.093   0.004  0.00  0.00    +0.190 A 
ATOM     17  C   LIG    1        1.054   1.916   0.001  0.00  0.00    +0.180 A 
ATOM     18  N   LIG    1        0.603   3.179   0.017  0.00  0.00    -0.440 NA
ATOM     19  C   LIG    1       -0.702   3.170   0.030  0.00  0.00    +0.100 A 
BRANCH  19  20
ATOM     20  C   LIG    1       -1.589   4.388   0.051  0.00  0.00    +0.420 C 
BRANCH  20  21
ATOM     21  N   LIG    1       -1.891   4.796  -1.328  0.00  0.00    -0.640 N 
ATOM     22  H   LIG    1       -2.364   4.044  -1.806  0.00  0.00    +0.420 HD
ATOM     23  H   LIG    1       -1.032   5.014  -1.810  0.00  0.00    +0.440 HD
ATOM     24  H   LIG    1       -2.485   5.612  -1.315  0.00  0.00    +0.450 HD
ENDBRANCH  20  21
ENDBRANCH  19  20
ENDBRANCH  14  15
ENDBRANCH  13  14
ENDBRANCH   3  13
TORSDOF 7
