REMARK  Name = ZINCqH0000002x5b.0
REMARK                            x       y       z     vdW  Elec       q    Type
REMARK                         _______ _______ _______ _____ _____    ______ ____
ROOT
ATOM      1  N   LIG    1       -2.275   4.763   1.720  0.00  0.00    -0.530 N 
ATOM      2  C   LIG    1       -3.176   4.792   0.731  0.00  0.00    +0.530 C 
ATOM      3  C   LIG    1       -2.631   4.035  -0.461  0.00  0.00    +0.110 C 
ATOM      4  C   LIG    1       -1.244   3.558   0.017  0.00  0.00    +0.260 C 
ATOM      5  O   LIG    1       -4.256   5.338   0.781  0.00  0.00    -0.460 OA
ATOM      6  C   LIG    1       -1.151   4.096   1.428  0.00  0.00    +0.500 C 
ATOM      7  O   LIG    1       -0.208   3.947   2.175  0.00  0.00    -0.450 OA
ENDROOT
BRANCH   1  11
ATOM      8  C   LIG    1       -2.915   6.597   5.409  0.00  0.00    -0.070 A 
ATOM      9  C   LIG    1       -2.772   7.368   4.270  0.00  0.00    +0.020 A 
ATOM     10  C   LIG    1       -2.560   6.763   3.047  0.00  0.00    +0.030 A 
ATOM     11  C   LIG    1       -2.490   5.380   2.961  0.00  0.00    +0.100 A 
ATOM     12  C   LIG    1       -2.638   4.608   4.105  0.00  0.00    +0.030 A 
ATOM     13  C   LIG    1       -2.846   5.218   5.327  0.00  0.00    +0.020 A 
BRANCH   8  14
ATOM     14  C   LIG    1       -3.147   7.260   6.742  0.00  0.00    +0.080 C 
BRANCH  14  15
ATOM     15  C   LIG    1       -4.650   7.426   6.975  0.00  0.00    +0.010 C 
BRANCH  15  17
ATOM     16  C   LIG    1       -6.388   8.264   8.561  0.00  0.00    +0.000 C 
ATOM     17  C   LIG    1       -4.885   8.099   8.329  0.00  0.00    -0.010 C 
ENDBRANCH  15  17
ENDBRANCH  14  15
ENDBRANCH   8  14
ENDBRANCH   1  11
BRANCH   4  18
ATOM     18  N   LIG    1       -1.174   2.095   0.017  0.00  0.00    -0.730 N 
ATOM     19  H   LIG    1       -1.989   1.570   0.035  0.00  0.00    +0.410 HD
BRANCH  18  20
ATOM     20  C   LIG    1        0.070   1.454  -0.010  0.00  0.00    +0.170 A 
ATOM     21  C   LIG    1        1.238   2.205  -0.043  0.00  0.00    -0.020 A 
ATOM     22  C   LIG    1        2.465   1.572  -0.074  0.00  0.00    -0.030 A 
ATOM     23  C   LIG    1        2.531   0.187  -0.075  0.00  0.00    +0.080 A 
ATOM     24  C   LIG    1        1.365  -0.564  -0.042  0.00  0.00    +0.020 A 
ATOM     25  C   LIG    1        0.137   0.067  -0.010  0.00  0.00    -0.010 A 
BRANCH  23  26
ATOM     26  O   LIG    1        3.740  -0.436  -0.107  0.00  0.00    -0.320 OA
ATOM     27  C   LIG    1        4.899   0.399  -0.139  0.00  0.00    +0.230 C 
ENDBRANCH  23  26
ENDBRANCH  18  20
ENDBRANCH   4  18
TORSDOF 7
