REMARK  Name = ZINCvU0000000ESE.0
REMARK                            x       y       z     vdW  Elec       q    Type
REMARK                         _______ _______ _______ _____ _____    ______ ____
ROOT
ATOM      1  C   LIG    1        7.241   3.653   0.014  0.00  0.00    +0.510 C 
ATOM      2  O   LIG    1        7.398   4.857  -0.003  0.00  0.00    -0.490 OA
ENDROOT
BRANCH   1   3
ATOM      3  C   LIG    1        8.386   2.763   0.283  0.00  0.00    -0.120 A 
ATOM      4  C   LIG    1        8.244   1.380   0.166  0.00  0.00    +0.090 A 
ATOM      5  C   LIG    1        9.320   0.553   0.414  0.00  0.00    +0.010 A 
ATOM      6  C   LIG    1       10.541   1.086   0.791  0.00  0.00    +0.060 A 
ATOM      7  C   LIG    1       10.699   2.452   0.918  0.00  0.00    +0.030 A 
ATOM      8  C   LIG    1        9.628   3.303   0.666  0.00  0.00    +0.010 A 
BRANCH   8   9
ATOM      9  C   LIG    1        9.793   4.769   0.801  0.00  0.00    -0.020 A 
ATOM     10  C   LIG    1       10.758   5.437   0.048  0.00  0.00    +0.040 A 
ATOM     11  C   LIG    1       10.903   6.804   0.174  0.00  0.00    +0.070 A 
ATOM     12  C   LIG    1       10.102   7.509   1.054  0.00  0.00    -0.180 A 
ATOM     13  C   LIG    1        9.146   6.851   1.808  0.00  0.00    +0.070 A 
ATOM     14  C   LIG    1        8.988   5.486   1.686  0.00  0.00    +0.070 A 
BRANCH  12  15
ATOM     15  C   LIG    1       10.270   9.001   1.192  0.00  0.00    +0.510 C 
ATOM     16  F   LIG    1        9.043   9.579   1.532  0.00  0.00    -0.180 F 
ATOM     17  F   LIG    1       10.716   9.534  -0.023  0.00  0.00    -0.180 F 
ATOM     18  F   LIG    1       11.208   9.274   2.193  0.00  0.00    -0.180 F 
ENDBRANCH  12  15
ENDBRANCH   8   9
ENDBRANCH   1   3
BRANCH   1  19
ATOM     19  O   LIG    1        6.020   3.129  -0.213  0.00  0.00    -0.330 OA
BRANCH  19  20
ATOM     20  C   LIG    1        4.940   4.064  -0.472  0.00  0.00    +0.270 C 
BRANCH  20  23
ATOM     21  N   LIG    1        2.517   3.968  -0.961  0.00  0.00    -0.660 N 
ATOM     22  H   LIG    1        2.531   4.931  -1.071  0.00  0.00    +0.410 HD
ATOM     23  C   LIG    1        3.660   3.303  -0.701  0.00  0.00    +0.520 C 
ATOM     24  O   LIG    1        3.659   2.091  -0.652  0.00  0.00    -0.490 OA
BRANCH  21  30
ATOM     25  C   LIG    1       -2.376   3.868  -0.492  0.00  0.00    +0.090 C 
ATOM     26  C   LIG    1       -1.076   3.196  -0.852  0.00  0.00    -0.070 A 
ATOM     27  C   LIG    1       -1.077   1.887  -1.299  0.00  0.00    -0.010 A 
ATOM     28  C   LIG    1        0.115   1.264  -1.625  0.00  0.00    +0.030 A 
ATOM     29  C   LIG    1        1.307   1.952  -1.516  0.00  0.00    +0.020 A 
ATOM     30  C   LIG    1        1.310   3.268  -1.073  0.00  0.00    +0.140 A 
ATOM     31  C   LIG    1        0.113   3.889  -0.741  0.00  0.00    -0.110 A 
ATOM     32  C   LIG    1        0.112   5.317  -0.259  0.00  0.00    +0.090 C 
ENDBRANCH  21  30
ENDBRANCH  20  23
ENDBRANCH  19  20
ENDBRANCH   1  19
TORSDOF 7
