REMARK  Name = ZINCrD00000F5LyI.0
REMARK                            x       y       z     vdW  Elec       q    Type
REMARK                         _______ _______ _______ _____ _____    ______ ____
ROOT
ATOM      1  C   LIG    1        3.422   2.618   1.146  0.00  0.00    -0.130 A 
ATOM      2  C   LIG    1        4.034   2.960  -0.060  0.00  0.00    +0.040 A 
ATOM      3  C   LIG    1        5.327   3.442  -0.063  0.00  0.00    +0.010 A 
ATOM      4  C   LIG    1        6.021   3.575   1.127  0.00  0.00    +0.050 A 
ATOM      5  C   LIG    1        5.421   3.233   2.326  0.00  0.00    -0.090 A 
ATOM      6  C   LIG    1        4.128   2.756   2.343  0.00  0.00    +0.100 A 
ENDROOT
BRANCH   5   7
ATOM      7  C   LIG    1        6.185   3.382   3.617  0.00  0.00    +0.270 C 
ATOM      8  C   LIG    1        6.175   4.859   4.065  0.00  0.00    +0.050 C 
ATOM      9  C   LIG    1        7.603   5.059   4.637  0.00  0.00    +0.040 C 
ATOM     10  C   LIG    1        8.444   4.166   3.690  0.00  0.00    +0.250 C 
ATOM     11  N   LIG    1        7.589   2.997   3.415  0.00  0.00    -0.610 N 
ATOM     12  C   LIG    1        8.023   1.778   3.039  0.00  0.00    +0.560 C 
ATOM     13  O   LIG    1        7.224   0.884   2.837  0.00  0.00    -0.530 OA
BRANCH  12  14
ATOM     14  C   LIG    1        9.463   1.528   2.873  0.00  0.00    -0.090 C 
ATOM     15  C   LIG    1        9.891   0.325   2.503  0.00  0.00    +0.140 C 
ENDBRANCH  12  14
ENDBRANCH   5   7
BRANCH   1  18
ATOM     16  N   LIG    1        1.357   1.975  -0.000  0.00  0.00    -0.720 N 
ATOM     17  H   LIG    1        1.778   2.216  -0.840  0.00  0.00    +0.400 HD
ATOM     18  C   LIG    1        2.035   2.106   1.157  0.00  0.00    +0.570 C 
ATOM     19  O   LIG    1        1.507   1.804   2.209  0.00  0.00    -0.530 OA
BRANCH  16  20
ATOM     20  C   LIG    1       -0.018   1.468   0.010  0.00  0.00    +0.400 C 
BRANCH  20  21
ATOM     21  C   LIG    1       -0.758   1.975  -1.229  0.00  0.00    +0.000 C 
ATOM     22  C   LIG    1       -1.282   3.414  -1.089  0.00  0.00    +0.060 C 
ATOM     23  C   LIG    1       -2.552   2.937  -1.817  0.00  0.00    +0.260 C 
ATOM     24  F   LIG    1       -3.734   3.471  -1.292  0.00  0.00    -0.190 F 
ATOM     25  F   LIG    1       -2.473   3.051  -3.209  0.00  0.00    -0.180 F 
ATOM     26  C   LIG    1       -2.228   1.527  -1.295  0.00  0.00    +0.070 C 
ENDBRANCH  20  21
BRANCH  20  28
ATOM     27  C   LIG    1        0.018  -1.178  -0.004  0.00  0.00    +0.050 C 
ATOM     28  C   LIG    1        0.002  -0.004   0.002  0.00  0.00    -0.210 C 
ENDBRANCH  20  28
ENDBRANCH  16  20
ENDBRANCH   1  18
TORSDOF 6
