REMARK  Name = ZINCnE000001QeiN.0
REMARK                            x       y       z     vdW  Elec       q    Type
REMARK                         _______ _______ _______ _____ _____    ______ ____
ROOT
ATOM      1  N   LIG    1        2.277   4.038   0.908  0.00  0.00    -0.730 N 
ATOM      2  H   LIG    1        2.055   4.281   1.820  0.00  0.00    +0.400 HD
ATOM      3  C   LIG    1        3.553   4.115   0.481  0.00  0.00    +0.590 C 
ATOM      4  O   LIG    1        3.831   3.811  -0.663  0.00  0.00    -0.520 OA
ENDROOT
BRANCH   1  11
ATOM      5  C   LIG    1       -1.296  -0.769   0.005  0.00  0.00    +0.090 C 
ATOM      6  C   LIG    1        0.002  -0.004   0.002  0.00  0.00    -0.100 A 
ATOM      7  C   LIG    1        1.199  -0.689  -0.008  0.00  0.00    +0.000 A 
ATOM      8  C   LIG    1        2.391   0.012  -0.010  0.00  0.00    +0.000 A 
ATOM      9  C   LIG    1        2.375   1.391  -0.005  0.00  0.00    +0.020 A 
ATOM     10  C   LIG    1        1.170   2.083   0.002  0.00  0.00    -0.090 A 
ATOM     11  C   LIG    1        1.225   3.588  -0.007  0.00  0.00    +0.290 C 
ATOM     12  C   LIG    1       -0.113   4.177   0.436  0.00  0.00    +0.030 C 
ATOM     13  C   LIG    1       -1.226   3.528  -0.395  0.00  0.00    +0.020 C 
ATOM     14  C   LIG    1       -1.359   2.068   0.034  0.00  0.00    +0.060 C 
ATOM     15  C   LIG    1       -0.017   1.385   0.010  0.00  0.00    -0.070 A 
ENDBRANCH   1  11
BRANCH   3  16
ATOM     16  C   LIG    1        4.610   4.568   1.400  0.00  0.00    -0.210 A 
ATOM     17  C   LIG    1        5.920   4.667   1.046  0.00  0.00    -0.050 A 
ATOM     18  S   LIG    1        6.860   5.225   2.354  0.00  0.00    +0.170 S 
ATOM     19  C   LIG    1        5.465   5.321   3.414  0.00  0.00    -0.100 A 
ATOM     20  C   LIG    1        4.364   4.946   2.772  0.00  0.00    +0.040 A 
BRANCH  17  21
ATOM     21  C   LIG    1        6.465   4.331  -0.318  0.00  0.00    +0.040 C 
BRANCH  21  22
ATOM     22  C   LIG    1        6.433   5.561  -1.188  0.00  0.00    +0.510 C 
ATOM     23  O   LIG    1        6.833   5.505  -2.338  0.00  0.00    -0.700 OA
ATOM     24  O   LIG    1        6.007   6.613  -0.742  0.00  0.00    -0.690 OA
ENDBRANCH  21  22
ENDBRANCH  17  21
ENDBRANCH   3  16
TORSDOF 4
