REMARK  Name = ZINCpe00000bcVZv.0
REMARK                            x       y       z     vdW  Elec       q    Type
REMARK                         _______ _______ _______ _____ _____    ______ ____
ROOT
ATOM      1  C   LIG    1        0.863   2.696   5.256  0.00  0.00    +0.140 C 
ATOM      2  C   LIG    1       -0.161   1.629   4.799  0.00  0.00    +0.300 C 
ATOM      3  N   LIG    1       -0.753   2.034   3.537  0.00  0.00    -0.590 N 
ATOM      4  C   LIG    1       -1.964   2.873   3.463  0.00  0.00    +0.270 C 
ATOM      5  C   LIG    1       -1.925   3.996   4.505  0.00  0.00    -0.000 C 
ATOM      6  C   LIG    1       -0.522   4.562   4.584  0.00  0.00    +0.230 C 
ATOM      7  C   LIG    1       -0.171   1.633   2.390  0.00  0.00    +0.650 C 
ATOM      8  O   LIG    1        0.831   0.945   2.425  0.00  0.00    -0.560 OA
ATOM      9  O   LIG    1        0.199   3.860   5.588  0.00  0.00    -0.380 OA
ENDROOT
BRANCH   1  10
ATOM     10  C   LIG    1        1.627   2.180   6.478  0.00  0.00    +0.300 C 
BRANCH  10  12
ATOM     11  C   LIG    1        3.386   2.952   7.976  0.00  0.00    +0.520 C 
ATOM     12  N   LIG    1        2.596   3.189   6.911  0.00  0.00    -0.720 N 
ATOM     13  H   LIG    1        2.668   4.029   6.431  0.00  0.00    +0.400 HD
ATOM     14  O   LIG    1        3.295   1.902   8.576  0.00  0.00    -0.530 OA
BRANCH  11  15
ATOM     15  C   LIG    1        4.383   3.990   8.421  0.00  0.00    +0.050 C 
BRANCH  15  16
ATOM     16  C   LIG    1        5.147   3.474   9.643  0.00  0.00    +0.290 C 
BRANCH  16  18
ATOM     17  C   LIG    1        6.906   4.246  11.141  0.00  0.00    +0.540 C 
ATOM     18  N   LIG    1        6.116   4.484  10.075  0.00  0.00    -0.730 N 
ATOM     19  H   LIG    1        6.189   5.323   9.595  0.00  0.00    +0.400 HD
ATOM     20  O   LIG    1        6.815   3.193  11.743  0.00  0.00    -0.540 OA
BRANCH  17  22
ATOM     21  C   LIG    1        8.660   5.025  12.627  0.00  0.00    +0.150 C 
ATOM     22  C   LIG    1        7.880   5.260  11.575  0.00  0.00    -0.090 C 
ENDBRANCH  17  22
ENDBRANCH  16  18
ENDBRANCH  15  16
ENDBRANCH  11  15
ENDBRANCH  10  12
ENDBRANCH   1  10
BRANCH   7  23
ATOM     23  O   LIG    1       -0.698   1.994   1.205  0.00  0.00    -0.360 OA
BRANCH  23  24
ATOM     24  C   LIG    1       -0.019   1.526   0.010  0.00  0.00    +0.140 C 
ATOM     25  C   LIG    1       -0.759   2.033  -1.229  0.00  0.00    +0.080 C 
ATOM     26  C   LIG    1        1.417   2.055  -0.000  0.00  0.00    +0.040 C 
ATOM     27  C   LIG    1        0.002  -0.004   0.002  0.00  0.00    +0.040 C 
ENDBRANCH  23  24
ENDBRANCH   7  23
TORSDOF 8
