REMARK  Name = ZINCrH000004r6WZ.0
REMARK                            x       y       z     vdW  Elec       q    Type
REMARK                         _______ _______ _______ _____ _____    ______ ____
ROOT
ATOM      1  N   LIG    1        4.760   6.220  -6.819  0.00  0.00    -0.440 N 
ATOM      2  C   LIG    1        5.518   7.295  -6.460  0.00  0.00    +0.490 A 
ATOM      3  N   LIG    1        5.593   7.377  -5.165  0.00  0.00    -0.480 NA
ATOM      4  C   LIG    1        4.887   6.362  -4.601  0.00  0.00    +0.040 A 
ATOM      5  C   LIG    1        4.638   5.983  -3.284  0.00  0.00    +0.160 A 
ATOM      6  C   LIG    1        3.853   4.861  -3.030  0.00  0.00    -0.150 A 
ATOM      7  C   LIG    1        3.324   4.117  -4.092  0.00  0.00    +0.060 A 
ATOM      8  C   LIG    1        3.562   4.489  -5.383  0.00  0.00    +0.020 A 
ATOM      9  C   LIG    1        4.343   5.605  -5.656  0.00  0.00    +0.080 A 
ENDROOT
BRANCH   1  15
ATOM     10  C   LIG    1        6.270   4.504 -11.173  0.00  0.00    +0.100 C 
ATOM     11  C   LIG    1        5.172   4.979 -10.257  0.00  0.00    -0.080 A 
ATOM     12  C   LIG    1        3.865   5.015 -10.707  0.00  0.00    +0.030 A 
ATOM     13  C   LIG    1        2.854   5.450  -9.870  0.00  0.00    +0.030 A 
ATOM     14  C   LIG    1        3.147   5.850  -8.581  0.00  0.00    -0.080 A 
ATOM     15  C   LIG    1        4.459   5.815  -8.126  0.00  0.00    +0.110 A 
ATOM     16  C   LIG    1        2.045   6.324  -7.669  0.00  0.00    +0.090 C 
ATOM     17  C   LIG    1        5.472   5.383  -8.971  0.00  0.00    +0.030 A 
ENDBRANCH   1  15
BRANCH   6  18
ATOM     18  C   LIG    1        3.584   4.452  -1.637  0.00  0.00    +0.570 C 
ATOM     19  N   LIG    1        2.825   3.366  -1.389  0.00  0.00    -0.730 N 
ATOM     20  H   LIG    1        2.455   2.854  -2.125  0.00  0.00    +0.400 HD
ATOM     21  O   LIG    1        4.047   5.093  -0.714  0.00  0.00    -0.530 OA
BRANCH  19  22
ATOM     22  C   LIG    1        2.557   2.959  -0.007  0.00  0.00    +0.420 C 
BRANCH  22  23
ATOM     23  C   LIG    1        1.691   1.726  -0.005  0.00  0.00    -0.050 A 
ATOM     24  N   LIG    1        2.117   0.504  -0.015  0.00  0.00    -0.230 NA
ATOM     25  N   LIG    1        1.234  -0.400  -0.012  0.00  0.00    -0.260 NA
ATOM     26  C   LIG    1        0.002  -0.004   0.002  0.00  0.00    -0.010 A 
ATOM     27  C   LIG    1       -1.210  -0.900   0.009  0.00  0.00    +0.210 C 
ATOM     28  S   LIG    1       -0.021   1.708   0.011  0.00  0.00    +0.200 S 
ENDBRANCH  22  23
ENDBRANCH  19  22
ENDBRANCH   6  18
TORSDOF 4
