REMARK  Name = ZINCpk00001AZin2.0
REMARK                            x       y       z     vdW  Elec       q    Type
REMARK                         _______ _______ _______ _____ _____    ______ ____
ROOT
ATOM      1  N   LIG    1        3.615  -3.963   1.258  0.00  0.00    -0.520 NA
ENDROOT
BRANCH   1   2
ATOM      2  C   LIG    1        4.365  -2.849   1.854  0.00  0.00    +0.130 C 
ATOM      3  C   LIG    1        4.169  -2.719   3.374  0.00  0.00    +0.050 C 
ATOM      4  C   LIG    1        4.128  -1.195   3.156  0.00  0.00    -0.010 C 
ATOM      5  C   LIG    1        3.657  -1.490   1.723  0.00  0.00    +0.020 C 
ENDBRANCH   1   2
BRANCH   1   6
ATOM      6  C   LIG    1        4.178  -5.256   1.670  0.00  0.00    +0.290 C 
BRANCH   6   9
ATOM      7  N   LIG    1        2.825  -6.223   4.902  0.00  0.00    -0.290 N 
ATOM      8  C   LIG    1        2.751  -6.240   3.551  0.00  0.00    +0.160 A 
ATOM      9  C   LIG    1        3.812  -5.528   3.106  0.00  0.00    -0.010 A 
ATOM     10  N   LIG    1        4.470  -5.108   4.193  0.00  0.00    -0.250 NA
ATOM     11  N   LIG    1        3.860  -5.536   5.241  0.00  0.00    -0.070 NA
BRANCH   7  12
ATOM     12  C   LIG    1        1.886  -6.870   5.822  0.00  0.00    +0.330 C 
BRANCH  12  14
ATOM     13  C   LIG    1        1.902  -8.571   7.802  0.00  0.00    +0.090 C 
ATOM     14  C   LIG    1        2.643  -7.782   6.753  0.00  0.00    +0.340 C 
ATOM     15  O   LIG    1        3.842  -7.881   6.658  0.00  0.00    -0.420 OA
ENDBRANCH  12  14
ENDBRANCH   7  12
ENDBRANCH   6   9
ENDBRANCH   1   6
BRANCH   1  16
ATOM     16  C   LIG    1        3.578  -3.848  -0.206  0.00  0.00    +0.290 C 
BRANCH  16  17
ATOM     17  C   LIG    1        2.628  -2.746  -0.599  0.00  0.00    +0.090 A 
ATOM     18  C   LIG    1        2.971  -1.467  -0.861  0.00  0.00    +0.100 A 
ATOM     19  N   LIG    1        1.820  -0.798  -1.177  0.00  0.00    -0.400 N 
ATOM     20  C   LIG    1        1.567   0.498  -1.523  0.00  0.00    +0.280 A 
ATOM     21  C   LIG    1        0.291   0.872  -1.786  0.00  0.00    -0.040 A 
ATOM     22  C   LIG    1       -0.736  -0.078  -1.695  0.00  0.00    +0.350 A 
ATOM     23  N   LIG    1       -0.466  -1.317  -1.359  0.00  0.00    -0.440 NA
ATOM     24  C   LIG    1        0.792  -1.701  -1.097  0.00  0.00    +0.370 A 
ATOM     25  N   LIG    1        1.306  -2.871  -0.746  0.00  0.00    -0.450 NA
ENDBRANCH  16  17
ENDBRANCH   1  16
TORSDOF 7
