REMARK  Name = ZINCrD000000CNJe.0
REMARK                            x       y       z     vdW  Elec       q    Type
REMARK                         _______ _______ _______ _____ _____    ______ ____
ROOT
ATOM      1  C   LIG    1       -1.286  -4.404   6.685  0.00  0.00    +0.570 C 
ATOM      2  N   LIG    1       -1.092  -3.834   5.479  0.00  0.00    -0.730 N 
ATOM      3  H   LIG    1       -1.742  -3.205   5.129  0.00  0.00    +0.400 HD
ATOM      4  O   LIG    1       -0.471  -5.192   7.123  0.00  0.00    -0.530 OA
ENDROOT
BRANCH   1  11
ATOM      5  O   LIG    1       -6.926  -3.115  11.648  0.00  0.00    -0.520 OA
ATOM      6  C   LIG    1       -5.924  -3.381  11.019  0.00  0.00    +0.520 C 
ATOM      7  C   LIG    1       -4.741  -3.985  11.727  0.00  0.00    +0.080 C 
ATOM      8  C   LIG    1       -4.038  -4.982  10.805  0.00  0.00    +0.110 C 
ATOM      9  C   LIG    1       -3.815  -4.348   9.456  0.00  0.00    -0.130 A 
ATOM     10  C   LIG    1       -2.696  -4.665   8.721  0.00  0.00    +0.130 A 
ATOM     11  C   LIG    1       -2.489  -4.071   7.473  0.00  0.00    -0.160 A 
ATOM     12  C   LIG    1       -3.427  -3.165   6.971  0.00  0.00    +0.080 A 
ATOM     13  C   LIG    1       -4.548  -2.857   7.708  0.00  0.00    -0.020 A 
ATOM     14  C   LIG    1       -4.748  -3.446   8.953  0.00  0.00    +0.190 A 
ATOM     15  N   LIG    1       -5.884  -3.133   9.698  0.00  0.00    -0.660 N 
ATOM     16  H   LIG    1       -6.651  -2.733   9.260  0.00  0.00    +0.410 HD
ENDBRANCH   1  11
BRANCH   2  17
ATOM     17  C   LIG    1        0.102  -4.165   4.697  0.00  0.00    +0.440 C 
BRANCH  17  18
ATOM     18  C   LIG    1        0.080  -3.417   3.429  0.00  0.00    -0.160 C 
ATOM     19  C   LIG    1        0.063  -2.821   2.418  0.00  0.00    -0.110 C 
BRANCH  19  20
ATOM     20  C   LIG    1        0.042  -2.094   1.184  0.00  0.00    +0.010 A 
ATOM     21  C   LIG    1        0.040  -2.778  -0.032  0.00  0.00    +0.080 A 
ATOM     22  C   LIG    1        0.019  -2.071  -1.217  0.00  0.00    +0.020 A 
ATOM     23  C   LIG    1       -0.006  -0.688  -1.201  0.00  0.00    +0.080 A 
ATOM     24  C   LIG    1        0.002  -0.004   0.002  0.00  0.00    -0.180 A 
ATOM     25  C   LIG    1        0.023  -0.699   1.194  0.00  0.00    +0.100 A 
BRANCH  24  26
ATOM     26  C   LIG    1       -0.018   1.503   0.010  0.00  0.00    +0.510 C 
ATOM     27  F   LIG    1       -0.673   1.954   1.161  0.00  0.00    -0.170 F 
ATOM     28  F   LIG    1       -0.695   1.966  -1.123  0.00  0.00    -0.170 F 
ATOM     29  F   LIG    1        1.294   1.987   0.000  0.00  0.00    -0.170 F 
ENDBRANCH  24  26
ENDBRANCH  19  20
ENDBRANCH  17  18
ENDBRANCH   2  17
TORSDOF 5
