REMARK  Name = ZINCvU0000000Ck3.0
REMARK                            x       y       z     vdW  Elec       q    Type
REMARK                         _______ _______ _______ _____ _____    ______ ____
ROOT
ATOM      1  N   LIG    1        3.447  -0.880  -0.035  0.00  0.00    -0.430 N 
ATOM      2  C   LIG    1        2.421   0.053  -0.021  0.00  0.00    +0.060 A 
ATOM      3  C   LIG    1        2.384   1.439  -0.014  0.00  0.00    +0.010 A 
ATOM      4  C   LIG    1        1.168   2.093   0.002  0.00  0.00    +0.030 A 
ATOM      5  C   LIG    1       -0.017   1.373   0.010  0.00  0.00    +0.010 A 
ATOM      6  C   LIG    1        0.002  -0.004   0.002  0.00  0.00    +0.060 A 
ATOM      7  C   LIG    1        1.224  -0.681  -0.013  0.00  0.00    +0.060 A 
ATOM      8  N   LIG    1        1.560  -1.998  -0.023  0.00  0.00    -0.490 NA
ATOM      9  C   LIG    1        2.865  -2.119  -0.036  0.00  0.00    +0.260 A 
ENDROOT
BRANCH   1  13
ATOM     10  C   LIG    1        7.537  -0.065  -0.069  0.00  0.00    +0.150 A 
ATOM     11  C   LIG    1        6.967  -0.704   1.022  0.00  0.00    +0.000 A 
ATOM     12  C   LIG    1        5.613  -0.974   1.034  0.00  0.00    +0.080 A 
ATOM     13  C   LIG    1        4.822  -0.606  -0.046  0.00  0.00    +0.070 A 
ATOM     14  C   LIG    1        5.395   0.028  -1.141  0.00  0.00    +0.070 A 
ATOM     15  C   LIG    1        6.748   0.303  -1.149  0.00  0.00    -0.060 A 
BRANCH  10  17
ATOM     16  C   LIG    1        9.391   0.861  -1.236  0.00  0.00    +0.250 C 
ATOM     17  O   LIG    1        8.871   0.201  -0.080  0.00  0.00    -0.310 OA
ENDBRANCH  10  17
ENDBRANCH   1  13
BRANCH   9  18
ATOM     18  S   LIG    1        3.740  -3.648  -0.052  0.00  0.00    +0.080 S 
BRANCH  18  19
ATOM     19  C   LIG    1        2.349  -4.806  -0.044  0.00  0.00    +0.020 C 
ATOM     20  C   LIG    1        1.555  -4.658  -1.343  0.00  0.00    +0.080 C 
BRANCH  19  21
ATOM     21  C   LIG    1        2.870  -6.216   0.068  0.00  0.00    +0.540 C 
ATOM     22  N   LIG    1        2.056  -7.203   0.492  0.00  0.00    -0.720 N 
ATOM     23  H   LIG    1        1.135  -7.006   0.725  0.00  0.00    +0.400 HD
ATOM     24  O   LIG    1        4.021  -6.463  -0.224  0.00  0.00    -0.520 OA
BRANCH  22  25
ATOM     25  C   LIG    1        2.562  -8.574   0.600  0.00  0.00    +0.270 C 
BRANCH  25  26
ATOM     26  C   LIG    1        1.445  -9.492   1.100  0.00  0.00    +0.060 C 
BRANCH  26  27
ATOM     27  C   LIG    1        1.965 -10.902   1.212  0.00  0.00    -0.120 C 
ATOM     28  C   LIG    1        2.406 -11.296   2.363  0.00  0.00    -0.050 C 
ATOM     29  C   LIG    1        2.959 -12.667   2.627  0.00  0.00    +0.050 C 
ATOM     30  C   LIG    1        2.553 -13.625   1.506  0.00  0.00    +0.010 C 
ATOM     31  C   LIG    1        2.874 -12.962   0.161  0.00  0.00    +0.020 C 
ATOM     32  C   LIG    1        1.946 -11.759  -0.020  0.00  0.00    +0.060 C 
ENDBRANCH  26  27
ENDBRANCH  25  26
ENDBRANCH  22  25
ENDBRANCH  19  21
ENDBRANCH  18  19
ENDBRANCH   9  18
TORSDOF 8
