REMARK  Name = ZINCrD00000F5LlB.0
REMARK                            x       y       z     vdW  Elec       q    Type
REMARK                         _______ _______ _______ _____ _____    ______ ____
ROOT
ATOM      1  C   LIG    1       -3.078   1.351   7.201  0.00  0.00    +0.510 C 
ATOM      2  N   LIG    1       -2.566   0.661   6.163  0.00  0.00    -0.680 N 
ATOM      3  H   LIG    1       -2.524  -0.307   6.197  0.00  0.00    +0.410 HD
ATOM      4  O   LIG    1       -3.202   2.555   7.127  0.00  0.00    -0.500 OA
ENDROOT
BRANCH   2   5
ATOM      5  C   LIG    1       -2.093   1.342   5.035  0.00  0.00    +0.140 A 
ATOM      6  C   LIG    1       -1.516   2.599   5.173  0.00  0.00    +0.070 A 
ATOM      7  C   LIG    1       -1.048   3.276   4.064  0.00  0.00    +0.050 A 
ATOM      8  C   LIG    1       -1.151   2.709   2.808  0.00  0.00    -0.000 A 
ATOM      9  C   LIG    1       -1.730   1.446   2.659  0.00  0.00    -0.110 A 
ATOM     10 CL   LIG    1       -0.562   3.565   1.417  0.00  0.00    -0.030 Cl
ATOM     11  C   LIG    1       -2.207   0.766   3.779  0.00  0.00    +0.040 A 
BRANCH   9  12
ATOM     12  C   LIG    1       -1.843   0.836   1.317  0.00  0.00    +0.550 C 
ATOM     13  N   LIG    1       -2.808  -0.070   1.068  0.00  0.00    -0.620 N 
ATOM     14  C   LIG    1       -3.766  -0.428   2.118  0.00  0.00    +0.280 C 
ATOM     15  C   LIG    1       -2.900  -0.699  -0.252  0.00  0.00    +0.290 C 
ATOM     16  O   LIG    1       -1.064   1.152   0.439  0.00  0.00    -0.510 OA
ENDBRANCH   9  12
ENDBRANCH   2   5
BRANCH   1  17
ATOM     17  C   LIG    1       -3.498   0.626   8.454  0.00  0.00    +0.120 C 
BRANCH  17  22
ATOM     18  C   LIG    1       -5.871   2.847  10.382  0.00  0.00    +0.140 A 
ATOM     19  C   LIG    1       -5.009   3.443  11.293  0.00  0.00    +0.030 A 
ATOM     20  C   LIG    1       -3.665   3.125  11.280  0.00  0.00    +0.030 A 
ATOM     21  C   LIG    1       -3.179   2.209  10.365  0.00  0.00    +0.000 A 
ATOM     22  C   LIG    1       -4.034   1.618   9.453  0.00  0.00    -0.060 A 
ATOM     23  C   LIG    1       -5.378   1.932   9.461  0.00  0.00    -0.010 A 
BRANCH  18  25
ATOM     24  C   LIG    1       -7.859   3.406  11.561  0.00  0.00    +0.540 C 
ATOM     25  N   LIG    1       -7.232   3.168  10.393  0.00  0.00    -0.670 N 
ATOM     26  H   LIG    1       -7.724   3.219   9.559  0.00  0.00    +0.410 HD
ATOM     27  O   LIG    1       -7.226   3.419  12.600  0.00  0.00    -0.520 OA
BRANCH  24  29
ATOM     28  C   LIG    1       -9.929   3.886  12.734  0.00  0.00    +0.160 C 
ATOM     29  C   LIG    1       -9.309   3.651  11.581  0.00  0.00    -0.090 C 
ENDBRANCH  24  29
ENDBRANCH  18  25
ENDBRANCH  17  22
ENDBRANCH   1  17
TORSDOF 6
