REMARK  Name = ZINCnE000001O7mF.0
REMARK                            x       y       z     vdW  Elec       q    Type
REMARK                         _______ _______ _______ _____ _____    ______ ____
ROOT
ATOM      1  C   LIG    1        0.647  -1.875   1.292  0.00  0.00    +0.510 A 
ATOM      2  N   LIG    1       -0.064  -2.540   0.393  0.00  0.00    -0.550 NA
ATOM      3  C   LIG    1       -0.170  -3.859   0.448  0.00  0.00    +0.350 A 
ATOM      4  C   LIG    1        0.462  -4.547   1.468  0.00  0.00    -0.110 A 
ATOM      5  C   LIG    1        1.200  -3.818   2.405  0.00  0.00    +0.240 A 
ATOM      6  N   LIG    1        1.268  -2.494   2.284  0.00  0.00    -0.530 NA
ENDROOT
BRANCH   1  10
ATOM      7  C   LIG    1       -0.780   2.046  -1.177  0.00  0.00    +0.020 C 
ATOM      8  C   LIG    1       -0.014   1.529   0.043  0.00  0.00    +0.010 C 
ATOM      9  C   LIG    1       -0.015  -0.001   0.036  0.00  0.00    +0.210 C 
ATOM     10  N   LIG    1        0.737  -0.497   1.195  0.00  0.00    -0.450 N 
ATOM     11  C   LIG    1        2.139  -0.065   1.143  0.00  0.00    +0.200 C 
ATOM     12  C   LIG    1        2.204   1.464   1.183  0.00  0.00    +0.050 C 
ATOM     13  C   LIG    1        1.430   2.034  -0.008  0.00  0.00    -0.090 C 
BRANCH  13  14
ATOM     14  C   LIG    1        1.440   3.540   0.059  0.00  0.00    +0.500 C 
ATOM     15  O   LIG    1        1.863   4.189  -0.882  0.00  0.00    -0.700 OA
ATOM     16  O   LIG    1        1.025   4.108   1.054  0.00  0.00    -0.700 OA
ENDBRANCH  13  14
ENDBRANCH   1  10
BRANCH   5  17
ATOM     17  C   LIG    1        1.897  -4.509   3.517  0.00  0.00    -0.040 A 
ATOM     18  C   LIG    1        1.816  -5.895   3.639  0.00  0.00    +0.050 A 
ATOM     19  C   LIG    1        2.471  -6.534   4.672  0.00  0.00    +0.040 A 
ATOM     20  C   LIG    1        3.197  -5.799   5.593  0.00  0.00    -0.080 A 
ATOM     21  C   LIG    1        3.276  -4.421   5.480  0.00  0.00    +0.040 A 
ATOM     22 BR   LIG    1        4.085  -6.680   7.011  0.00  0.00    -0.050 Br
ATOM     23  C   LIG    1        2.630  -3.774   4.447  0.00  0.00    +0.090 A 
ENDBRANCH   5  17
TORSDOF 3
