REMARK  Name = ZINCnE000001L6fp.2
REMARK                            x       y       z     vdW  Elec       q    Type
REMARK                         _______ _______ _______ _____ _____    ______ ____
ROOT
ATOM      1  N   LIG    1        1.515   1.867  -0.088  0.00  0.00    -0.480 NA
ATOM      2  C   LIG    1        0.077   1.526  -0.098  0.00  0.00    +0.050 C 
ATOM      3  C   LIG    1        0.037  -0.021  -0.015  0.00  0.00    +0.030 C 
ATOM      4  C   LIG    1        1.258  -0.412  -0.888  0.00  0.00    +0.000 C 
ATOM      5  C   LIG    1        2.277   0.706  -0.582  0.00  0.00    +0.190 C 
ENDROOT
BRANCH   5   6
ATOM      6  C   LIG    1        3.022   1.078  -1.838  0.00  0.00    -0.080 A 
ATOM      7  C   LIG    1        2.323   1.437  -2.976  0.00  0.00    +0.010 A 
ATOM      8  C   LIG    1        3.006   1.784  -4.126  0.00  0.00    +0.000 A 
ATOM      9  C   LIG    1        4.388   1.761  -4.143  0.00  0.00    -0.010 A 
ATOM     10  C   LIG    1        5.087   1.396  -3.007  0.00  0.00    +0.000 A 
ATOM     11  C   LIG    1        4.404   1.055  -1.855  0.00  0.00    +0.010 A 
ENDBRANCH   5   6
BRANCH   2  12
ATOM     12  C   LIG    1       -0.615   2.132   1.096  0.00  0.00    +0.510 C 
ATOM     13  O   LIG    1       -1.803   2.398   1.042  0.00  0.00    -0.710 OA
ATOM     14  O   LIG    1        0.015   2.358   2.116  0.00  0.00    -0.670 OA
ENDBRANCH   2  12
BRANCH   1  15
ATOM     15  C   LIG    1        1.779   3.058  -0.907  0.00  0.00    +0.220 C 
BRANCH  15  19
ATOM     16  C   LIG    1        0.525   6.552   1.209  0.00  0.00    +0.120 A 
ATOM     17  C   LIG    1        1.821   6.079   1.355  0.00  0.00    -0.040 A 
ATOM     18  C   LIG    1        2.224   4.949   0.670  0.00  0.00    +0.060 A 
ATOM     19  C   LIG    1        1.337   4.290  -0.161  0.00  0.00    -0.090 A 
ATOM     20  C   LIG    1        0.046   4.762  -0.312  0.00  0.00    +0.060 A 
ATOM     21  C   LIG    1       -0.363   5.888   0.375  0.00  0.00    -0.080 A 
BRANCH  16  23
ATOM     22  C   LIG    1       -1.222   8.093   1.683  0.00  0.00    +0.230 C 
ATOM     23  O   LIG    1        0.126   7.663   1.882  0.00  0.00    -0.320 OA
ENDBRANCH  16  23
ENDBRANCH  15  19
ENDBRANCH   1  15
TORSDOF 5
