REMARK  Name = ZINCrH000004qT6N.0
REMARK                            x       y       z     vdW  Elec       q    Type
REMARK                         _______ _______ _______ _____ _____    ______ ____
ROOT
ATOM      1  C   LIG    1       -3.979  -4.619   0.015  0.00  0.00    +0.250 C 
ENDROOT
BRANCH   1   4
ATOM      2  N   LIG    1       -5.237  -6.492  -0.999  0.00  0.00    -0.720 N 
ATOM      3  H   LIG    1       -6.055  -6.062  -0.704  0.00  0.00    +0.400 HD
ATOM      4  C   LIG    1       -4.042  -5.949  -0.690  0.00  0.00    +0.520 C 
ATOM      5  O   LIG    1       -3.019  -6.532  -0.980  0.00  0.00    -0.530 OA
BRANCH   2   6
ATOM      6  C   LIG    1       -5.299  -7.729  -1.780  0.00  0.00    +0.310 C 
ATOM      7  C   LIG    1       -5.161  -8.931  -0.844  0.00  0.00    +0.040 C 
BRANCH   6  11
ATOM      8  C   LIG    1      -10.141  -6.564  -2.633  0.00  0.00    +0.140 C 
ATOM      9  C   LIG    1       -8.816  -7.247  -2.852  0.00  0.00    -0.170 A 
ATOM     10  C   LIG    1       -7.726  -7.070  -2.104  0.00  0.00    +0.000 A 
ATOM     11  C   LIG    1       -6.621  -7.803  -2.500  0.00  0.00    -0.120 A 
ATOM     12  C   LIG    1       -6.817  -8.584  -3.563  0.00  0.00    -0.170 A 
ATOM     13  C   LIG    1       -5.778  -9.482  -4.185  0.00  0.00    +0.140 C 
ATOM     14  S   LIG    1       -8.472  -8.407  -4.130  0.00  0.00    +0.110 S 
ENDBRANCH   6  11
ENDBRANCH   2   6
ENDBRANCH   1   4
BRANCH   1  15
ATOM     15  N   LIG    1       -2.637  -4.050  -0.136  0.00  0.00    -0.710 N 
ATOM     16  H   LIG    1       -1.878  -4.633  -0.293  0.00  0.00    +0.410 HD
ATOM     17  C   LIG    1       -2.457  -2.717  -0.056  0.00  0.00    +0.520 C 
ATOM     18  O   LIG    1       -3.406  -1.988   0.140  0.00  0.00    -0.510 OA
BRANCH  17  19
ATOM     19  C   LIG    1       -1.077  -2.132  -0.211  0.00  0.00    +0.240 C 
BRANCH  19  20
ATOM     20  O   LIG    1       -1.146  -0.710  -0.088  0.00  0.00    -0.290 OA
BRANCH  20  21
ATOM     21  C   LIG    1        0.021  -0.023  -0.204  0.00  0.00    +0.130 A 
ATOM     22  C   LIG    1        0.028   1.360  -0.095  0.00  0.00    -0.020 A 
ATOM     23  C   LIG    1        1.216   2.055  -0.212  0.00  0.00    +0.050 A 
ATOM     24  C   LIG    1        2.397   1.374  -0.438  0.00  0.00    -0.030 A 
ATOM     25  C   LIG    1        2.394  -0.004  -0.547  0.00  0.00    +0.050 A 
ATOM     26  C   LIG    1        1.208  -0.704  -0.430  0.00  0.00    -0.080 A 
ENDBRANCH  20  21
ENDBRANCH  19  20
ENDBRANCH  17  19
ENDBRANCH   1  15
BRANCH   1  27
ATOM     27  C   LIG    1       -4.286  -4.814   1.501  0.00  0.00    -0.020 C 
ATOM     28  C   LIG    1       -4.327  -3.451   2.196  0.00  0.00    +0.030 C 
ATOM     29  C   LIG    1       -3.197  -5.679   2.138  0.00  0.00    +0.030 C 
ENDBRANCH   1  27
TORSDOF 8
