REMARK  Name = ZINCtV00000L6kgW.0
REMARK                            x       y       z     vdW  Elec       q    Type
REMARK                         _______ _______ _______ _____ _____    ______ ____
ROOT
ATOM      1  C   LIG    1        2.004   5.707   0.102  0.00  0.00    +0.080 C 
ENDROOT
BRANCH   1   4
ATOM      2  C   LIG    1        4.185   8.305   1.770  0.00  0.00    +0.160 A 
ATOM      3  C   LIG    1        3.180   7.374   1.550  0.00  0.00    -0.080 A 
ATOM      4  C   LIG    1        3.097   6.718   0.336  0.00  0.00    -0.020 A 
ATOM      5  C   LIG    1        4.018   6.981  -0.661  0.00  0.00    -0.070 A 
ATOM      6  C   LIG    1        5.022   7.915  -0.451  0.00  0.00    +0.160 A 
ATOM      7  C   LIG    1        5.109   8.576   0.768  0.00  0.00    +0.030 A 
BRANCH   2   9
ATOM      8  C   LIG    1        3.282   8.621   3.947  0.00  0.00    +0.250 C 
ATOM      9  O   LIG    1        4.265   8.950   2.964  0.00  0.00    -0.300 OA
ENDBRANCH   2   9
BRANCH   6  10
ATOM     10  O   LIG    1        5.924   8.177  -1.434  0.00  0.00    -0.300 OA
ATOM     11  C   LIG    1        5.774   7.459  -2.661  0.00  0.00    +0.240 C 
ENDBRANCH   6  10
BRANCH   7  12
ATOM     12  O   LIG    1        6.097   9.488   0.980  0.00  0.00    -0.310 OA
ATOM     13  C   LIG    1        7.323   9.001   1.528  0.00  0.00    +0.210 C 
ENDBRANCH   7  12
ENDBRANCH   1   4
BRANCH   1  14
ATOM     14  S   LIG    1        2.734   4.148  -0.470  0.00  0.00    -0.070 S 
BRANCH  14  15
ATOM     15  C   LIG    1        3.581   3.560   0.959  0.00  0.00    -0.080 A 
ATOM     16  C   LIG    1        4.394   2.436   0.874  0.00  0.00    +0.050 A 
ATOM     17  C   LIG    1        5.056   1.978   1.995  0.00  0.00    +0.050 A 
ATOM     18  C   LIG    1        4.907   2.634   3.205  0.00  0.00    -0.040 A 
ATOM     19  C   LIG    1        4.103   3.757   3.292  0.00  0.00    +0.040 A 
ATOM     20 CL   LIG    1        5.736   2.050   4.614  0.00  0.00    -0.070 Cl
ATOM     21  C   LIG    1        3.438   4.220   2.174  0.00  0.00    +0.010 A 
ENDBRANCH  14  15
ENDBRANCH   1  14
BRANCH   1  22
ATOM     22  C   LIG    1        1.039   6.238  -0.961  0.00  0.00    +0.080 C 
BRANCH  22  23
ATOM     23  C   LIG    1       -0.131   5.296  -1.091  0.00  0.00    +0.420 C 
ATOM     24  O   LIG    1       -0.238   4.353  -0.334  0.00  0.00    -0.430 OA
BRANCH  23  25
ATOM     25  C   LIG    1       -1.102   5.512  -2.094  0.00  0.00    -0.310 A 
ATOM     26  C   LIG    1       -2.207   4.729  -2.313  0.00  0.00    +0.110 A 
ATOM     27  C   LIG    1       -2.984   5.169  -3.354  0.00  0.00    -0.010 A 
ATOM     28  C   LIG    1       -2.538   6.272  -3.972  0.00  0.00    -0.050 A 
ATOM     29  S   LIG    1       -1.093   6.830  -3.257  0.00  0.00    +0.220 S 
ENDBRANCH  23  25
ENDBRANCH  22  23
ENDBRANCH   1  22
TORSDOF 9
