REMARK  Name = ZINCqH00000054PQ.0
REMARK                            x       y       z     vdW  Elec       q    Type
REMARK                         _______ _______ _______ _____ _____    ______ ____
ROOT
ATOM      1  N   LIG    1        1.250   3.491   0.329  0.00  0.00    -0.730 N 
ATOM      2  H   LIG    1        0.385   3.869   0.555  0.00  0.00    +0.410 HD
ATOM      3  C   LIG    1        1.412   2.154   0.293  0.00  0.00    +0.700 C 
ATOM      4  N   LIG    1        0.374   1.341   0.570  0.00  0.00    -0.680 N 
ATOM      5  H   LIG    1       -0.505   1.716   0.734  0.00  0.00    +0.410 HD
ATOM      6  O   LIG    1        2.496   1.681   0.010  0.00  0.00    -0.570 OA
ENDROOT
BRANCH   4   7
ATOM      7  C   LIG    1        0.563  -0.047   0.616  0.00  0.00    +0.160 A 
ATOM      8  C   LIG    1       -0.149  -0.814   1.534  0.00  0.00    +0.040 A 
ATOM      9  C   LIG    1        0.028  -2.180   1.589  0.00  0.00    +0.070 A 
ATOM     10  C   LIG    1        0.920  -2.797   0.726  0.00  0.00    -0.010 A 
ATOM     11  O   LIG    1        1.306  -4.080   0.537  0.00  0.00    -0.210 OA
ATOM     12  C   LIG    1        2.214  -4.102  -0.451  0.00  0.00    +0.280 A 
ATOM     13  N   LIG    1        2.423  -2.901  -0.898  0.00  0.00    -0.470 NA
ATOM     14  C   LIG    1        1.641  -2.031  -0.202  0.00  0.00    +0.040 A 
ATOM     15  C   LIG    1        1.452  -0.649  -0.255  0.00  0.00    +0.090 A 
BRANCH  12  16
ATOM     16  C   LIG    1        2.893  -5.344  -0.968  0.00  0.00    +0.070 C 
ATOM     17  C   LIG    1        2.378  -6.693  -0.463  0.00  0.00    +0.060 C 
ATOM     18  C   LIG    1        3.726  -6.158   0.024  0.00  0.00    +0.060 C 
ENDBRANCH  12  16
ENDBRANCH   4   7
BRANCH   1  19
ATOM     19  C   LIG    1        2.378   4.375   0.028  0.00  0.00    +0.300 C 
BRANCH  19  20
ATOM     20  C   LIG    1        1.929   5.833   0.139  0.00  0.00    +0.270 C 
BRANCH  20  21
ATOM     21  C   LIG    1        3.053   6.740  -0.290  0.00  0.00    -0.050 A 
ATOM     22  C   LIG    1        3.817   7.486   0.528  0.00  0.00    -0.040 A 
ATOM     23  C   LIG    1        4.741   8.176  -0.291  0.00  0.00    -0.060 A 
ATOM     24  C   LIG    1        4.486   7.810  -1.560  0.00  0.00    +0.160 A 
ATOM     25  O   LIG    1        3.467   6.936  -1.553  0.00  0.00    -0.170 OA
ENDBRANCH  20  21
BRANCH  20  27
ATOM     26  C   LIG    1        0.320   7.453  -0.669  0.00  0.00    +0.190 C 
ATOM     27  N   LIG    1        0.764   6.054  -0.729  0.00  0.00    -0.530 NA
ATOM     28  C   LIG    1        1.055   5.653  -2.112  0.00  0.00    +0.200 C 
ENDBRANCH  20  27
ENDBRANCH  19  20
ENDBRANCH   1  19
TORSDOF 6
