REMARK  Name = ZINCAx0000000cak.0
REMARK                            x       y       z     vdW  Elec       q    Type
REMARK                         _______ _______ _______ _____ _____    ______ ____
ROOT
ATOM      1  O   LIG    1        2.612  -2.146  -4.935  0.00  0.00    -0.500 OA
ATOM      2  C   LIG    1        2.337  -1.856  -3.787  0.00  0.00    +0.600 C 
ATOM      3  N   LIG    1        1.583  -2.689  -3.043  0.00  0.00    -0.660 N 
ATOM      4  H   LIG    1        1.419  -2.491  -2.108  0.00  0.00    +0.420 HD
ENDROOT
BRANCH   2   5
ATOM      5  C   LIG    1        2.829  -0.591  -3.207  0.00  0.00    +0.050 A 
ATOM      6  N   LIG    1        2.537  -0.270  -1.970  0.00  0.00    -0.190 NA
ATOM      7  N   LIG    1        2.922   0.805  -1.395  0.00  0.00    -0.350 N 
ATOM      8  C   LIG    1        3.678   1.745  -2.000  0.00  0.00    +0.520 A 
ATOM      9  C   LIG    1        4.090   1.521  -3.393  0.00  0.00    -0.140 A 
ATOM     10  C   LIG    1        4.871   2.425  -4.105  0.00  0.00    +0.090 A 
ATOM     11  C   LIG    1        5.211   2.143  -5.411  0.00  0.00    +0.030 A 
ATOM     12  C   LIG    1        4.782   0.970  -6.018  0.00  0.00    +0.060 A 
ATOM     13  C   LIG    1        4.007   0.061  -5.329  0.00  0.00    +0.070 A 
ATOM     14  O   LIG    1        4.013   2.753  -1.406  0.00  0.00    -0.490 OA
ATOM     15  C   LIG    1        3.653   0.326  -4.011  0.00  0.00    -0.030 A 
BRANCH   7  16
ATOM     16  C   LIG    1        2.518   1.032  -0.005  0.00  0.00    +0.380 C 
BRANCH  16  17
ATOM     17  C   LIG    1        1.205   1.771   0.022  0.00  0.00    -0.130 A 
ATOM     18  C   LIG    1        0.015   1.067   0.033  0.00  0.00    +0.040 A 
ATOM     19  C   LIG    1       -1.189   1.746   0.052  0.00  0.00    +0.000 A 
ATOM     20  C   LIG    1       -1.204   3.128   0.071  0.00  0.00    +0.020 A 
ATOM     21  C   LIG    1       -0.014   3.832   0.060  0.00  0.00    +0.010 A 
ATOM     22  C   LIG    1        1.190   3.153   0.035  0.00  0.00    +0.040 A 
ENDBRANCH  16  17
ENDBRANCH   7  16
ENDBRANCH   2   5
BRANCH   3  23
ATOM     23  C   LIG    1        1.036  -3.840  -3.620  0.00  0.00    +0.200 A 
ATOM     24  C   LIG    1       -0.213  -4.295  -3.217  0.00  0.00    -0.020 A 
ATOM     25  C   LIG    1       -0.752  -5.428  -3.793  0.00  0.00    +0.140 A 
ATOM     26  C   LIG    1       -0.045  -6.117  -4.761  0.00  0.00    -0.690 A 
ATOM     27  C   LIG    1        1.201  -5.670  -5.161  0.00  0.00    +0.140 A 
ATOM     28  C   LIG    1        1.744  -4.534  -4.593  0.00  0.00    +0.010 A 
BRANCH  26  29
ATOM     29  S   LIG    1       -0.733  -7.567  -5.488  0.00  0.00    +2.690 S 
ATOM     30  O   LIG    1       -0.104  -7.719  -6.753  0.00  0.00    -0.950 OA
ATOM     31  O   LIG    1       -2.141  -7.467  -5.326  0.00  0.00    -0.950 OA
BRANCH  29  32
ATOM     32  N   LIG    1       -0.247  -8.855  -4.566  0.00  0.00    -1.000 NA
ATOM     33  C   LIG    1        1.000  -9.575  -4.869  0.00  0.00    +0.280 C 
ATOM     34  C   LIG    1        1.820  -9.679  -3.573  0.00  0.00    +0.220 C 
ATOM     35  O   LIG    1        1.000 -10.235  -2.543  0.00  0.00    -0.380 OA
ATOM     36  C   LIG    1       -0.136  -9.436  -2.203  0.00  0.00    +0.220 C 
ATOM     37  C   LIG    1       -1.053  -9.317  -3.425  0.00  0.00    +0.280 C 
ENDBRANCH  29  32
ENDBRANCH  26  29
ENDBRANCH   3  23
TORSDOF 6
