REMARK  Name = ZINCtj0000003zX5.0
REMARK                            x       y       z     vdW  Elec       q    Type
REMARK                         _______ _______ _______ _____ _____    ______ ____
ROOT
ATOM      1  C   LIG    1        4.176   2.260   0.115  0.00  0.00    +0.160 C 
ATOM      2  C   LIG    1        3.377   2.472   1.375  0.00  0.00    +0.190 A 
ATOM      3  N   LIG    1        2.068   2.280   1.377  0.00  0.00    -0.500 NA
ATOM      4  C   LIG    1        1.354   2.468   2.477  0.00  0.00    +0.320 A 
ATOM      5  N   LIG    1        1.916   2.843   3.616  0.00  0.00    -0.510 NA
ATOM      6  C   LIG    1        3.226   3.050   3.688  0.00  0.00    +0.340 A 
ATOM      7  C   LIG    1        4.005   2.865   2.543  0.00  0.00    -0.170 A 
ATOM      8  C   LIG    1        5.495   3.088   2.580  0.00  0.00    +0.130 C 
ENDROOT
BRANCH   4   9
ATOM      9  C   LIG    1       -0.114   2.246   2.433  0.00  0.00    +0.580 C 
ATOM     10  N   LIG    1       -0.723   2.002   1.256  0.00  0.00    -0.500 N 
ATOM     11  C   LIG    1       -0.007   2.066  -0.037  0.00  0.00    +0.300 C 
ATOM     12  C   LIG    1       -0.912   2.753  -1.066  0.00  0.00    +0.250 C 
ATOM     13  O   LIG    1       -2.138   2.022  -1.209  0.00  0.00    -0.290 OA
ATOM     14  C   LIG    1       -2.756   1.683  -0.046  0.00  0.00    +0.270 A 
ATOM     15  N   LIG    1       -4.032   1.317   0.187  0.00  0.00    -0.350 N 
ATOM     16  C   LIG    1       -5.092   1.194  -0.817  0.00  0.00    +0.370 C 
ATOM     17  N   LIG    1       -4.165   1.075   1.564  0.00  0.00    -0.270 NA
ATOM     18  C   LIG    1       -3.004   1.287   2.140  0.00  0.00    +0.120 A 
ATOM     19  C   LIG    1       -2.706   1.142   3.610  0.00  0.00    +0.180 C 
ATOM     20  C   LIG    1       -2.099   1.669   1.159  0.00  0.00    -0.080 A 
ATOM     21  O   LIG    1       -0.765   2.284   3.458  0.00  0.00    -0.490 OA
ENDBRANCH   4   9
BRANCH   6  22
ATOM     22  N   LIG    1        3.811   3.442   4.882  0.00  0.00    -0.450 N 
ATOM     23  C   LIG    1        4.831   2.465   5.318  0.00  0.00    +0.240 C 
ATOM     24  C   LIG    1        4.758   2.481   6.865  0.00  0.00    +0.080 C 
ATOM     25  C   LIG    1        3.235   2.649   7.105  0.00  0.00    +0.150 C 
ATOM     26  C   LIG    1        2.800   3.573   5.948  0.00  0.00    +0.250 C 
BRANCH  25  27
ATOM     27  N   LIG    1        2.977   3.287   8.403  0.00  0.00    -0.380 N 
ATOM     28  C   LIG    1        3.399   2.386   9.484  0.00  0.00    +0.320 C 
ATOM     29  C   LIG    1        1.541   3.569   8.534  0.00  0.00    +0.330 C 
ATOM     30  H   LIG    1        3.496   4.150   8.463  0.00  0.00    +0.430 HD
ENDBRANCH  25  27
ENDBRANCH   6  22
TORSDOF 3
