REMARK  Name = ZINCpk00000y0xw7.0
REMARK                            x       y       z     vdW  Elec       q    Type
REMARK                         _______ _______ _______ _____ _____    ______ ____
ROOT
ATOM      1  N   LIG    1        3.401   1.790  -3.548  0.00  0.00    -0.450 N 
ATOM      2  C   LIG    1        3.782   2.646  -2.417  0.00  0.00    +0.190 C 
ATOM      3  C   LIG    1        3.574   1.879  -1.107  0.00  0.00    +0.290 C 
ATOM      4  N   LIG    1        2.191   1.381  -1.071  0.00  0.00    -0.610 N 
ATOM      5  C   LIG    1        1.694   0.624  -2.230  0.00  0.00    +0.300 C 
ATOM      6  C   LIG    1        1.401   1.607  -0.003  0.00  0.00    +0.520 C 
ATOM      7  O   LIG    1        0.294   1.115   0.049  0.00  0.00    -0.520 OA
ATOM      8  C   LIG    1        1.974   1.446  -3.499  0.00  0.00    +0.200 C 
ENDROOT
BRANCH   6   9
ATOM      9  C   LIG    1        1.894   2.473   1.129  0.00  0.00    +0.060 C 
ATOM     10  C   LIG    1        2.727   1.626   2.091  0.00  0.00    +0.100 C 
ATOM     11  C   LIG    1        1.832   0.691   2.859  0.00  0.00    +0.520 C 
ATOM     12  N   LIG    1        0.593   1.070   3.225  0.00  0.00    -0.660 N 
ATOM     13  H   LIG    1        0.033   0.460   3.730  0.00  0.00    +0.410 HD
ATOM     14  C   LIG    1        0.109   2.336   2.882  0.00  0.00    +0.180 A 
ATOM     15  C   LIG    1       -0.978   2.874   3.558  0.00  0.00    -0.020 A 
ATOM     16  C   LIG    1       -1.450   4.126   3.216  0.00  0.00    +0.050 A 
ATOM     17  C   LIG    1       -0.844   4.842   2.201  0.00  0.00    -0.010 A 
ATOM     18  C   LIG    1        0.238   4.308   1.524  0.00  0.00    +0.060 A 
ATOM     19  O   LIG    1        2.231  -0.416   3.150  0.00  0.00    -0.520 OA
ATOM     20  C   LIG    1        0.716   3.058   1.863  0.00  0.00    -0.110 A 
ENDBRANCH   6   9
BRANCH   1  24
ATOM     21  C   LIG    1        3.924   2.570  -8.454  0.00  0.00    +0.140 C 
ATOM     22  C   LIG    1        3.962   2.739  -6.957  0.00  0.00    +0.100 A 
ATOM     23  C   LIG    1        3.505   1.852  -6.043  0.00  0.00    -0.120 A 
ATOM     24  C   LIG    1        3.730   2.394  -4.767  0.00  0.00    +0.260 A 
ATOM     25  N   LIG    1        4.297   3.568  -4.918  0.00  0.00    -0.330 NA
ATOM     26  N   LIG    1        4.457   3.803  -6.289  0.00  0.00    -0.470 N 
ATOM     27  H   LIG    1        4.851   4.593  -6.690  0.00  0.00    +0.440 HD
ENDBRANCH   1  24
TORSDOF 2
