REMARK  Name = ZINCpk00000e8Zqb.0
REMARK                            x       y       z     vdW  Elec       q    Type
REMARK                         _______ _______ _______ _____ _____    ______ ____
ROOT
ATOM      1  N   LIG    1        1.196  -0.633  -0.013  0.00  0.00    -0.550 N 
ATOM      2  C   LIG    1        0.002  -0.004   0.002  0.00  0.00    +0.570 A 
ATOM      3  C   LIG    1       -0.018   1.468   0.010  0.00  0.00    -0.210 A 
ATOM      4  C   LIG    1        1.191   2.134   0.002  0.00  0.00    +0.430 A 
ATOM      5  N   LIG    1        2.347   1.417  -0.012  0.00  0.00    -0.490 N 
ATOM      6  O   LIG    1       -1.035  -0.640   0.009  0.00  0.00    -0.500 OA
ATOM      7  C   LIG    1        2.339   0.075  -0.019  0.00  0.00    +0.690 A 
ATOM      8  O   LIG    1        3.399  -0.519  -0.033  0.00  0.00    -0.470 OA
ENDROOT
BRANCH   5   9
ATOM      9  C   LIG    1        3.629   2.126  -0.020  0.00  0.00    +0.220 C 
ATOM     10  C   LIG    1        3.600   3.641   0.192  0.00  0.00    +0.050 C 
ATOM     11  C   LIG    1        3.908   3.068  -1.193  0.00  0.00    +0.050 C 
ENDBRANCH   5   9
BRANCH   3  12
ATOM     12  C   LIG    1       -1.256   2.187   0.020  0.00  0.00    +0.280 C 
ATOM     13  N   LIG    1       -2.238   2.758   0.028  0.00  0.00    -0.400 NA
ENDBRANCH   3  12
BRANCH   1  14
ATOM     14  C   LIG    1        1.247  -2.097  -0.021  0.00  0.00    +0.370 C 
BRANCH  14  15
ATOM     15  C   LIG    1        1.252  -2.599  -1.466  0.00  0.00    +0.190 C 
BRANCH  15  16
ATOM     16  O   LIG    1        2.452  -2.175  -2.115  0.00  0.00    -0.270 OA
BRANCH  16  22
ATOM     17  C   LIG    1        3.767  -2.154  -4.114  0.00  0.00    -0.200 A 
ATOM     18  C   LIG    1        3.924  -2.543  -5.449  0.00  0.00    +0.100 A 
ATOM     19  C   LIG    1        2.944  -3.288  -6.066  0.00  0.00    -0.040 A 
ATOM     20  C   LIG    1        1.806  -3.661  -5.370  0.00  0.00    +0.080 A 
ATOM     21  C   LIG    1        1.639  -3.290  -4.050  0.00  0.00    -0.100 A 
ATOM     22  C   LIG    1        2.614  -2.539  -3.411  0.00  0.00    +0.180 A 
BRANCH  17  24
ATOM     23  C   LIG    1        6.039  -0.943  -4.210  0.00  0.00    +0.060 C 
ATOM     24  C   LIG    1        4.804  -1.354  -3.451  0.00  0.00    +0.380 C 
ATOM     25  O   LIG    1        4.667  -1.024  -2.292  0.00  0.00    -0.410 OA
ENDBRANCH  17  24
ENDBRANCH  16  22
ENDBRANCH  15  16
ENDBRANCH  14  15
ENDBRANCH   1  14
TORSDOF 7
