REMARK  Name = ZINCrH00000No4Hu.0
REMARK                            x       y       z     vdW  Elec       q    Type
REMARK                         _______ _______ _______ _____ _____    ______ ____
ROOT
ATOM      1  O   LIG    1        1.145   1.903   0.027  0.00  0.00    -0.330 OA
ENDROOT
BRANCH   1   2
ATOM      2  C   LIG    1       -0.014   1.214   0.046  0.00  0.00    +0.500 C 
ATOM      3  O   LIG    1        0.002  -0.002   0.044  0.00  0.00    -0.500 OA
BRANCH   2   4
ATOM      4  C   LIG    1       -1.293   1.930   0.063  0.00  0.00    +0.020 C 
ATOM      5  C   LIG    1       -2.451   1.241   0.076  0.00  0.00    +0.140 C 
BRANCH   5   6
ATOM      6  C   LIG    1       -3.736   1.960   0.093  0.00  0.00    +0.110 A 
ATOM      7  N   LIG    1       -3.749   3.285   0.095  0.00  0.00    -0.410 NA
ATOM      8  C   LIG    1       -4.914   3.934   0.110  0.00  0.00    +0.080 A 
ATOM      9  C   LIG    1       -4.960   5.341   0.112  0.00  0.00    +0.060 A 
ATOM     10  C   LIG    1       -6.163   5.976   0.128  0.00  0.00    +0.040 A 
ATOM     11  C   LIG    1       -7.355   5.254   0.141  0.00  0.00    +0.050 A 
ATOM     12  C   LIG    1       -7.351   3.892   0.139  0.00  0.00    +0.050 A 
ATOM     13  C   LIG    1       -6.129   3.199   0.124  0.00  0.00    +0.080 A 
ATOM     14  N   LIG    1       -6.097   1.861   0.121  0.00  0.00    -0.420 NA
ATOM     15  C   LIG    1       -4.945   1.235   0.101  0.00  0.00    +0.280 A 
ENDBRANCH   5   6
ENDBRANCH   2   4
ENDBRANCH   1   2
BRANCH   1  16
ATOM     16  C   LIG    1        2.373   1.129   0.005  0.00  0.00    +0.270 C 
BRANCH  16  18
ATOM     17  O   LIG    1        3.381   3.263  -0.009  0.00  0.00    -0.490 OA
ATOM     18  C   LIG    1        3.555   2.062  -0.013  0.00  0.00    +0.520 C 
ATOM     19  N   LIG    1        4.807   1.564  -0.035  0.00  0.00    -0.670 N 
ATOM     20  H   LIG    1        4.949   0.606   0.026  0.00  0.00    +0.420 HD
BRANCH  19  21
ATOM     21  C   LIG    1        5.904   2.428  -0.147  0.00  0.00    +0.130 A 
ATOM     22  C   LIG    1        5.866   3.680   0.451  0.00  0.00    +0.070 A 
ATOM     23  C   LIG    1        6.951   4.529   0.344  0.00  0.00    +0.070 A 
ATOM     24  C   LIG    1        8.070   4.138  -0.368  0.00  0.00    -0.080 A 
ATOM     25  C   LIG    1        8.111   2.893  -0.971  0.00  0.00    +0.040 A 
ATOM     26 BR   LIG    1        9.550   5.306  -0.517  0.00  0.00    -0.030 Br
ATOM     27  C   LIG    1        7.030   2.036  -0.862  0.00  0.00    +0.080 A 
ATOM     28  F   LIG    1        7.069   0.821  -1.451  0.00  0.00    -0.130 F 
ENDBRANCH  19  21
ENDBRANCH  16  18
ENDBRANCH   1  16
TORSDOF 6
