REMARK  Name = ZINCpe000000Z50D.0
REMARK                            x       y       z     vdW  Elec       q    Type
REMARK                         _______ _______ _______ _____ _____    ______ ____
ROOT
ATOM      1  C   LIG    1       -3.230  -5.716  -2.963  0.00  0.00    +0.020 C 
ATOM      2  C   LIG    1       -2.015  -6.643  -2.887  0.00  0.00    +0.080 C 
ATOM      3  C   LIG    1       -1.744  -7.251  -4.233  0.00  0.00    -0.040 C 
ATOM      4  C   LIG    1       -2.599  -7.272  -5.205  0.00  0.00    -0.040 C 
ATOM      5  C   LIG    1       -3.978  -6.687  -5.125  0.00  0.00    +0.080 C 
ATOM      6  C   LIG    1       -4.372  -6.463  -3.664  0.00  0.00    +0.010 C 
ENDROOT
BRANCH   6   7
ATOM      7  C   LIG    1       -5.633  -5.640  -3.595  0.00  0.00    +0.550 C 
ATOM      8  N   LIG    1       -6.836  -6.243  -3.676  0.00  0.00    -0.610 N 
ATOM      9  C   LIG    1       -6.946  -7.709  -3.732  0.00  0.00    +0.240 C 
ATOM     10  C   LIG    1       -7.964  -8.153  -2.669  0.00  0.00    +0.220 C 
ATOM     11  O   LIG    1       -9.177  -7.418  -2.845  0.00  0.00    -0.380 OA
ATOM     12  C   LIG    1       -9.039  -6.007  -2.662  0.00  0.00    +0.220 C 
ATOM     13  C   LIG    1       -8.077  -5.453  -3.719  0.00  0.00    +0.250 C 
ATOM     14  O   LIG    1       -5.565  -4.436  -3.466  0.00  0.00    -0.540 OA
ENDBRANCH   6   7
BRANCH   1  16
ATOM     15  O   LIG    1       -4.770  -5.610  -1.178  0.00  0.00    -0.530 OA
ATOM     16  C   LIG    1       -3.658  -5.327  -1.571  0.00  0.00    +0.530 C 
ATOM     17  N   LIG    1       -2.806  -4.665  -0.764  0.00  0.00    -0.730 N 
ATOM     18  H   LIG    1       -1.917  -4.439  -1.079  0.00  0.00    +0.400 HD
BRANCH  17  19
ATOM     19  C   LIG    1       -3.222  -4.287   0.589  0.00  0.00    +0.260 C 
BRANCH  19  20
ATOM     20  C   LIG    1       -2.077  -3.552   1.288  0.00  0.00    +0.030 C 
BRANCH  20  21
ATOM     21  C   LIG    1       -2.512  -3.157   2.701  0.00  0.00    +0.330 C 
BRANCH  21  22
ATOM     22  N   LIG    1       -1.415  -2.453   3.370  0.00  0.00    -0.380 N 
ATOM     23  C   LIG    1       -1.484  -1.228   3.932  0.00  0.00    +0.220 A 
ATOM     24  C   LIG    1       -0.265  -0.939   4.442  0.00  0.00    -0.120 A 
ATOM     25  C   LIG    1        0.579  -2.025   4.183  0.00  0.00    +0.230 A 
ATOM     26  N   LIG    1       -0.110  -2.933   3.540  0.00  0.00    -0.300 NA
ENDBRANCH  21  22
ENDBRANCH  20  21
ENDBRANCH  19  20
ENDBRANCH  17  19
ENDBRANCH   1  16
TORSDOF 6
