REMARK  Name = ZINCqH0000006TT6.0
REMARK                            x       y       z     vdW  Elec       q    Type
REMARK                         _______ _______ _______ _____ _____    ______ ____
ROOT
ATOM      1  C   LIG    1       -0.620   0.902  -2.344  0.00  0.00    +0.520 C 
ATOM      2  N   LIG    1       -0.721   1.571  -1.179  0.00  0.00    -0.730 N 
ATOM      3  H   LIG    1       -1.263   2.374  -1.126  0.00  0.00    +0.410 HD
ATOM      4  O   LIG    1        0.057  -0.102  -2.411  0.00  0.00    -0.510 OA
ENDROOT
BRANCH   2   5
ATOM      5  C   LIG    1       -0.013   1.086   0.008  0.00  0.00    +0.350 C 
ATOM      6  C   LIG    1        1.423   1.615  -0.003  0.00  0.00    +0.060 C 
BRANCH   5   7
ATOM      7  C   LIG    1       -0.718   1.572   1.248  0.00  0.00    +0.020 A 
ATOM      8  C   LIG    1       -0.906   0.845   2.358  0.00  0.00    -0.020 A 
ATOM      9  C   LIG    1       -1.629   1.712   3.296  0.00  0.00    -0.130 A 
ATOM     10  C   LIG    1       -2.112   1.554   4.594  0.00  0.00    +0.060 A 
ATOM     11  C   LIG    1       -2.768   2.598   5.208  0.00  0.00    +0.000 A 
ATOM     12  C   LIG    1       -2.947   3.801   4.541  0.00  0.00    +0.050 A 
ATOM     13  C   LIG    1       -2.474   3.970   3.257  0.00  0.00    +0.020 A 
ATOM     14  C   LIG    1       -1.810   2.930   2.620  0.00  0.00    +0.060 A 
ATOM     15  O   LIG    1       -1.245   2.799   1.403  0.00  0.00    -0.190 OA
ENDBRANCH   5   7
ENDBRANCH   2   5
BRANCH   1  16
ATOM     16  C   LIG    1       -1.349   1.401  -3.565  0.00  0.00    +0.240 C 
BRANCH  16  17
ATOM     17  O   LIG    1       -1.087   0.529  -4.667  0.00  0.00    -0.280 OA
BRANCH  17  22
ATOM     18  C   LIG    1       -3.083   2.276  -7.163  0.00  0.00    +0.200 A 
ATOM     19  C   LIG    1       -2.871   1.472  -8.273  0.00  0.00    -0.190 A 
ATOM     20  C   LIG    1       -2.060   0.351  -8.172  0.00  0.00    +0.210 A 
ATOM     21  C   LIG    1       -1.461   0.035  -6.962  0.00  0.00    -0.080 A 
ATOM     22  C   LIG    1       -1.674   0.839  -5.853  0.00  0.00    +0.200 A 
ATOM     23  C   LIG    1       -2.489   1.957  -5.952  0.00  0.00    -0.140 A 
BRANCH  18  25
ATOM     24  C   LIG    1       -4.463   3.639  -8.538  0.00  0.00    +0.250 C 
ATOM     25  O   LIG    1       -3.878   3.374  -7.261  0.00  0.00    -0.310 OA
ENDBRANCH  18  25
BRANCH  20  26
ATOM     26  O   LIG    1       -1.853  -0.437  -9.260  0.00  0.00    -0.310 OA
ATOM     27  C   LIG    1       -2.501  -0.051 -10.474  0.00  0.00    +0.250 C 
ENDBRANCH  20  26
ENDBRANCH  17  22
ENDBRANCH  16  17
ENDBRANCH   1  16
TORSDOF 7
