REMARK  Name = ZINCpe000000Y42e.0
REMARK                            x       y       z     vdW  Elec       q    Type
REMARK                         _______ _______ _______ _____ _____    ______ ____
ROOT
ATOM      1  N   LIG    1       -0.833   1.773   1.152  0.00  0.00    -0.640 N 
ATOM      2  C   LIG    1       -1.588   3.033   1.197  0.00  0.00    +0.290 C 
ATOM      3  C   LIG    1       -2.292   3.237  -0.149  0.00  0.00    +0.030 C 
ATOM      4  C   LIG    1       -1.259   3.162  -1.276  0.00  0.00    +0.030 C 
ATOM      5  C   LIG    1       -0.604   1.779  -1.279  0.00  0.00    -0.010 C 
ATOM      6  C   LIG    1        0.119   1.559   0.054  0.00  0.00    +0.320 C 
ENDROOT
BRANCH   1  15
ATOM      7  C   LIG    1       -0.546   0.328   5.832  0.00  0.00    +0.160 C 
ATOM      8  C   LIG    1       -0.893   0.068   4.388  0.00  0.00    +0.240 A 
ATOM      9  N   LIG    1       -1.381  -1.102   4.034  0.00  0.00    -0.470 NA
ATOM     10  C   LIG    1       -1.699  -1.365   2.761  0.00  0.00    +0.460 A 
ATOM     11  N   LIG    1       -2.196  -2.443   2.166  0.00  0.00    -0.530 NA
ATOM     12  C   LIG    1       -2.338  -2.212   0.866  0.00  0.00    +0.480 A 
ATOM     13  N   LIG    1       -1.941  -0.994   0.589  0.00  0.00    -0.340 NA
ATOM     14  N   LIG    1       -1.521  -0.416   1.794  0.00  0.00    -0.340 N 
ATOM     15  C   LIG    1       -1.016   0.810   2.119  0.00  0.00    +0.450 A 
ATOM     16  C   LIG    1       -0.689   1.064   3.437  0.00  0.00    -0.210 A 
ATOM     17  C   LIG    1       -0.123   2.402   3.840  0.00  0.00    +0.150 C 
ENDBRANCH   1  15
BRANCH   5  18
ATOM     18  C   LIG    1        0.389   1.696  -2.410  0.00  0.00    +0.530 C 
ATOM     19  N   LIG    1       -0.030   1.389  -3.653  0.00  0.00    -0.620 N 
ATOM     20  C   LIG    1       -1.432   1.021  -3.911  0.00  0.00    +0.250 C 
ATOM     21  C   LIG    1       -1.945   1.878  -5.078  0.00  0.00    +0.220 C 
ATOM     22  O   LIG    1       -1.044   1.757  -6.182  0.00  0.00    -0.380 OA
ATOM     23  C   LIG    1        0.275   2.240  -5.916  0.00  0.00    +0.220 C 
ATOM     24  C   LIG    1        0.901   1.406  -4.792  0.00  0.00    +0.260 C 
ATOM     25  O   LIG    1        1.565   1.904  -2.200  0.00  0.00    -0.540 OA
ENDBRANCH   5  18
TORSDOF 2
