REMARK  Name = ZINCvU0000000HL1.0
REMARK                            x       y       z     vdW  Elec       q    Type
REMARK                         _______ _______ _______ _____ _____    ______ ____
ROOT
ATOM      1  C   LIG    1        5.597  -1.595  -1.226  0.00  0.00    +0.250 C 
ENDROOT
BRANCH   1   3
ATOM      2  N   LIG    1        3.678  -0.586  -0.035  0.00  0.00    -0.570 N 
ATOM      3  C   LIG    1        4.263  -0.894  -1.210  0.00  0.00    +0.520 C 
ATOM      4  O   LIG    1        3.717  -0.606  -2.253  0.00  0.00    -0.500 OA
BRANCH   2   5
ATOM      5  C   LIG    1        2.442   0.063  -0.020  0.00  0.00    +0.150 A 
ATOM      6  C   LIG    1        2.380   1.440  -0.012  0.00  0.00    +0.030 A 
ATOM      7  C   LIG    1        1.153   2.097   0.002  0.00  0.00    +0.020 A 
ATOM      8  C   LIG    1       -0.017   1.401   0.010  0.00  0.00    +0.030 A 
ATOM      9  C   LIG    1        0.002  -0.004   0.002  0.00  0.00    -0.050 A 
ATOM     10  C   LIG    1       -1.190  -0.748   0.009  0.00  0.00    +0.030 A 
ATOM     11  C   LIG    1       -1.135  -2.109   0.001  0.00  0.00    +0.020 A 
ATOM     12  C   LIG    1        0.088  -2.776  -0.014  0.00  0.00    +0.010 A 
ATOM     13  C   LIG    1        1.262  -2.087  -0.021  0.00  0.00    +0.020 A 
ATOM     14  C   LIG    1        1.245  -0.684  -0.013  0.00  0.00    -0.040 A 
ENDBRANCH   2   5
BRANCH   2  16
ATOM     15  C   LIG    1        3.897  -2.332   1.664  0.00  0.00    +0.030 C 
ATOM     16  C   LIG    1        4.338  -0.934   1.226  0.00  0.00    +0.280 C 
ENDBRANCH   2  16
ENDBRANCH   1   3
BRANCH   1  17
ATOM     17  O   LIG    1        6.007  -1.809  -2.578  0.00  0.00    -0.320 OA
BRANCH  17  18
ATOM     18  C   LIG    1        7.189  -2.430  -2.769  0.00  0.00    +0.500 C 
ATOM     19  O   LIG    1        7.854  -2.780  -1.812  0.00  0.00    -0.510 OA
BRANCH  18  20
ATOM     20  C   LIG    1        7.671  -2.683  -4.126  0.00  0.00    -0.040 C 
ATOM     21  C   LIG    1        8.854  -3.304  -4.317  0.00  0.00    +0.140 C 
BRANCH  21  22
ATOM     22  C   LIG    1        9.339  -3.559  -5.683  0.00  0.00    -0.080 A 
ATOM     23  C   LIG    1        8.578  -3.158  -6.785  0.00  0.00    +0.070 A 
ATOM     24  C   LIG    1        9.040  -3.400  -8.062  0.00  0.00    +0.020 A 
ATOM     25  C   LIG    1       10.253  -4.038  -8.253  0.00  0.00    +0.080 A 
ATOM     26  C   LIG    1       11.012  -4.437  -7.167  0.00  0.00    -0.180 A 
ATOM     27  C   LIG    1       10.567  -4.197  -5.885  0.00  0.00    +0.100 A 
BRANCH  26  28
ATOM     28  C   LIG    1       12.332  -5.130  -7.387  0.00  0.00    +0.510 C 
ATOM     29  F   LIG    1       12.294  -6.401  -6.804  0.00  0.00    -0.170 F 
ATOM     30  F   LIG    1       13.357  -4.379  -6.802  0.00  0.00    -0.170 F 
ATOM     31  F   LIG    1       12.570  -5.255  -8.760  0.00  0.00    -0.180 F 
ENDBRANCH  26  28
ENDBRANCH  21  22
ENDBRANCH  18  20
ENDBRANCH  17  18
ENDBRANCH   1  17
TORSDOF 8
