REMARK  Name = ZINCkj00000kKbUO.1
REMARK                            x       y       z     vdW  Elec       q    Type
REMARK                         _______ _______ _______ _____ _____    ______ ____
ROOT
ATOM      1  N   LIG    1        2.247  -0.233  -1.020  0.00  0.00    -0.380 N 
ATOM      2  C   LIG    1        2.068   1.217  -0.875  0.00  0.00    +0.250 C 
ATOM      3  C   LIG    1        1.431   1.523   0.482  0.00  0.00    +0.060 C 
ATOM      4  C   LIG    1        0.069   0.827   0.569  0.00  0.00    +0.060 C 
ATOM      5  C   LIG    1        0.259  -0.675   0.342  0.00  0.00    +0.010 C 
ATOM      6  C   LIG    1        0.940  -0.900  -1.010  0.00  0.00    +0.280 C 
ATOM      7  H   LIG    1        2.807  -0.580  -0.255  0.00  0.00    +0.420 HD
ENDROOT
BRANCH   1   8
ATOM      8  C   LIG    1        2.930  -0.516  -2.289  0.00  0.00    +0.270 C 
BRANCH   8  10
ATOM      9  C   LIG    1        5.055  -0.531  -0.975  0.00  0.00    +0.120 C 
ATOM     10  C   LIG    1        4.364   0.014  -2.227  0.00  0.00    +0.080 C 
BRANCH  10  11
ATOM     11  C   LIG    1        5.130  -0.440  -3.471  0.00  0.00    +0.440 C 
ATOM     12  F   LIG    1        5.151  -1.838  -3.521  0.00  0.00    -0.170 F 
ATOM     13  F   LIG    1        6.441   0.045  -3.413  0.00  0.00    -0.150 F 
ATOM     14  F   LIG    1        4.498   0.059  -4.615  0.00  0.00    -0.170 F 
ENDBRANCH  10  11
BRANCH  10  15
ATOM     15  O   LIG    1        4.342   1.442  -2.175  0.00  0.00    -0.510 OA
ATOM     16  H   LIG    1        3.918   1.857  -2.939  0.00  0.00    +0.400 HD
ENDBRANCH  10  15
ENDBRANCH   8  10
ENDBRANCH   1   8
BRANCH   5  17
ATOM     17  C   LIG    1        1.132  -1.254   1.458  0.00  0.00    +0.310 C 
BRANCH  17  18
ATOM     18  N   LIG    1        0.428  -1.141   2.737  0.00  0.00    -0.390 N 
ATOM     19  C   LIG    1        0.159  -2.137   3.599  0.00  0.00    +0.490 A 
ATOM     20  N   LIG    1       -0.482  -1.629   4.620  0.00  0.00    -0.530 NA
ATOM     21  C   LIG    1       -0.639  -0.317   4.447  0.00  0.00    +0.440 A 
ATOM     22  N   LIG    1       -0.093   0.030   3.311  0.00  0.00    -0.320 NA
ENDBRANCH  17  18
ENDBRANCH   5  17
TORSDOF 6
