REMARK  Name = ZINCkj00000kKbUO.0
REMARK                            x       y       z     vdW  Elec       q    Type
REMARK                         _______ _______ _______ _____ _____    ______ ____
ROOT
ATOM      1  N   LIG    1       -1.584   3.820   2.415  0.00  0.00    -0.370 N 
ATOM      2  C   LIG    1       -2.948   3.283   2.341  0.00  0.00    +0.250 C 
ATOM      3  C   LIG    1       -3.716   3.653   3.612  0.00  0.00    +0.070 C 
ATOM      4  C   LIG    1       -3.774   5.178   3.740  0.00  0.00    +0.060 C 
ATOM      5  C   LIG    1       -2.347   5.735   3.740  0.00  0.00    -0.020 C 
ATOM      6  C   LIG    1       -1.630   5.287   2.465  0.00  0.00    +0.270 C 
ATOM      7  H   LIG    1       -1.131   3.470   3.245  0.00  0.00    +0.420 HD
ENDROOT
BRANCH   1   8
ATOM      8  C   LIG    1       -0.827   3.396   1.230  0.00  0.00    +0.270 C 
BRANCH   8  10
ATOM      9  C   LIG    1        1.165   3.254   2.731  0.00  0.00    +0.130 C 
ATOM     10  C   LIG    1        0.642   3.788   1.395  0.00  0.00    +0.080 C 
BRANCH  10  11
ATOM     11  C   LIG    1        1.462   3.190   0.251  0.00  0.00    +0.440 C 
ATOM     12  F   LIG    1        1.346   1.796   0.273  0.00  0.00    -0.170 F 
ATOM     13  F   LIG    1        0.984   3.678  -0.970  0.00  0.00    -0.170 F 
ATOM     14  F   LIG    1        2.806   3.548   0.403  0.00  0.00    -0.150 F 
ENDBRANCH  10  11
BRANCH  10  15
ATOM     15  O   LIG    1        0.761   5.212   1.373  0.00  0.00    -0.520 OA
ATOM     16  H   LIG    1        0.447   5.620   0.554  0.00  0.00    +0.400 HD
ENDBRANCH  10  15
ENDBRANCH   8  10
ENDBRANCH   1   8
BRANCH   5  17
ATOM     17  C   LIG    1       -2.396   7.263   3.789  0.00  0.00    +0.350 C 
BRANCH  17  18
ATOM     18  N   LIG    1       -2.975   7.694   5.064  0.00  0.00    -0.390 N 
ATOM     19  C   LIG    1       -2.422   8.530   5.959  0.00  0.00    +0.490 A 
ATOM     20  N   LIG    1       -3.253   8.661   6.960  0.00  0.00    -0.540 NA
ATOM     21  C   LIG    1       -4.340   7.920   6.745  0.00  0.00    +0.440 A 
ATOM     22  N   LIG    1       -4.216   7.309   5.597  0.00  0.00    -0.320 NA
ENDBRANCH  17  18
ENDBRANCH   5  17
TORSDOF 6
