REMARK  Name = ZINCkj000005eIsg.0
REMARK                            x       y       z     vdW  Elec       q    Type
REMARK                         _______ _______ _______ _____ _____    ______ ____
ROOT
ATOM      1  C   LIG    1       -0.037   2.238   2.168  0.00  0.00    +0.490 C 
ATOM      2  N   LIG    1       -0.706   1.562   1.213  0.00  0.00    -0.610 N 
ATOM      3  C   LIG    1       -0.013   1.086   0.008  0.00  0.00    +0.280 C 
ATOM      4  C   LIG    1       -0.759   1.596  -1.228  0.00  0.00    +0.030 C 
ATOM      5  C   LIG    1       -2.228   1.174  -1.143  0.00  0.00    +0.010 C 
ATOM      6  C   LIG    1       -2.868   1.797   0.099  0.00  0.00    +0.020 C 
ATOM      7  C   LIG    1       -2.146   1.289   1.351  0.00  0.00    +0.270 C 
ATOM      8  O   LIG    1        1.149   2.457   2.038  0.00  0.00    -0.520 OA
ENDROOT
BRANCH   5   9
ATOM      9  C   LIG    1       -2.958   1.645  -2.375  0.00  0.00    -0.050 A 
ATOM     10  C   LIG    1       -3.015   2.993  -2.671  0.00  0.00    +0.020 A 
ATOM     11  C   LIG    1       -3.685   3.425  -3.800  0.00  0.00    +0.060 A 
ATOM     12  C   LIG    1       -4.297   2.509  -4.634  0.00  0.00    +0.020 A 
ATOM     13  C   LIG    1       -4.240   1.159  -4.338  0.00  0.00    +0.050 A 
ATOM     14  C   LIG    1       -3.566   0.727  -3.211  0.00  0.00    -0.170 A 
BRANCH  14  15
ATOM     15  C   LIG    1       -3.498  -0.744  -2.892  0.00  0.00    +0.320 C 
BRANCH  15  16
ATOM     16  N   LIG    1       -4.500  -1.069  -1.868  0.00  0.00    -0.640 N 
ATOM     17  H   LIG    1       -4.313  -0.535  -1.032  0.00  0.00    +0.430 HD
ATOM     18  H   LIG    1       -4.455  -2.055  -1.654  0.00  0.00    +0.440 HD
ATOM     19  H   LIG    1       -5.420  -0.842  -2.213  0.00  0.00    +0.440 HD
ENDBRANCH  15  16
ENDBRANCH  14  15
ENDBRANCH   5   9
BRANCH   1  20
ATOM     20  C   LIG    1       -0.762   2.720   3.398  0.00  0.00    +0.250 C 
BRANCH  20  22
ATOM     21  C   LIG    1       -0.913   1.415   5.456  0.00  0.00    +0.070 C 
ATOM     22  C   LIG    1       -1.244   1.535   4.194  0.00  0.00    -0.100 C 
ENDBRANCH  20  22
BRANCH  20  23
ATOM     23  O   LIG    1        0.126   3.502   4.199  0.00  0.00    -0.530 OA
ATOM     24  H   LIG    1        0.910   3.023   4.499  0.00  0.00    +0.390 HD
ENDBRANCH  20  23
ENDBRANCH   1  20
TORSDOF 6
