REMARK  Name = ZINCnE000001TD3c.1
REMARK                            x       y       z     vdW  Elec       q    Type
REMARK                         _______ _______ _______ _____ _____    ______ ____
ROOT
ATOM      1  N   LIG    1       -2.979   0.799   1.410  0.00  0.00    -0.680 NA
ATOM      2  H   LIG    1       -2.272   0.350   1.973  0.00  0.00    +0.340 HD
ENDROOT
BRANCH   1   3
ATOM      3  C   LIG    1       -4.242   0.051   1.455  0.00  0.00    +0.240 C 
BRANCH   3   8
ATOM      4  C   LIG    1       -6.129   0.509   4.704  0.00  0.00    -0.140 A 
ATOM      5  C   LIG    1       -5.478  -0.411   5.532  0.00  0.00    +0.080 A 
ATOM      6  C   LIG    1       -4.439  -1.167   5.033  0.00  0.00    -0.040 A 
ATOM      7  C   LIG    1       -4.040  -1.017   3.714  0.00  0.00    +0.090 A 
ATOM      8  C   LIG    1       -4.682  -0.106   2.888  0.00  0.00    -0.140 A 
ATOM      9  F   LIG    1       -3.021  -1.761   3.231  0.00  0.00    -0.150 F 
ATOM     10  C   LIG    1       -5.718   0.660   3.376  0.00  0.00    +0.100 A 
BRANCH   4  12
ATOM     11  O   LIG    1       -7.594   1.192   6.395  0.00  0.00    -0.690 OA
ATOM     12  C   LIG    1       -7.240   1.321   5.231  0.00  0.00    +0.520 C 
ATOM     13  O   LIG    1       -7.808   2.125   4.505  0.00  0.00    -0.680 OA
ENDBRANCH   4  12
ENDBRANCH   3   8
ENDBRANCH   1   3
BRANCH   1  14
ATOM     14  C   LIG    1       -2.518   0.972   0.026  0.00  0.00    +0.220 C 
BRANCH  14  15
ATOM     15  C   LIG    1       -1.223   1.742   0.020  0.00  0.00    -0.140 A 
ATOM     16  C   LIG    1       -1.230   3.127  -0.053  0.00  0.00    +0.090 A 
ATOM     17  C   LIG    1       -0.015   3.793  -0.062  0.00  0.00    -0.040 A 
ATOM     18  C   LIG    1        1.155   3.062   0.007  0.00  0.00    +0.140 A 
ATOM     19  N   LIG    1        1.124   1.745   0.082  0.00  0.00    -0.480 NA
ATOM     20  C   LIG    1       -0.013   1.078   0.092  0.00  0.00    +0.260 A 
BRANCH  18  21
ATOM     21  C   LIG    1        2.482   3.776  -0.001  0.00  0.00    +0.050 C 
ATOM     22  C   LIG    1        2.679   4.726   1.192  0.00  0.00    +0.020 C 
ATOM     23  C   LIG    1        3.333   5.706   0.201  0.00  0.00    +0.010 C 
ATOM     24  C   LIG    1        2.505   5.023  -0.900  0.00  0.00    +0.030 C 
ENDBRANCH  18  21
ENDBRANCH  14  15
ENDBRANCH   1  14
TORSDOF 6
