REMARK  Name = ZINCrD0000073nqc.0
REMARK                            x       y       z     vdW  Elec       q    Type
REMARK                         _______ _______ _______ _____ _____    ______ ____
ROOT
ATOM      1  C   LIG    1       -4.671   8.077  -1.394  0.00  0.00    +0.200 C 
ATOM      2  C   LIG    1       -3.671   8.927  -2.181  0.00  0.00    +0.070 C 
ENDROOT
BRANCH   1   3
ATOM      3  C   LIG    1       -3.933   6.995  -0.648  0.00  0.00    +0.520 C 
ATOM      4  N   LIG    1       -3.282   6.031  -1.329  0.00  0.00    -0.670 N 
ATOM      5  H   LIG    1       -3.223   6.076  -2.296  0.00  0.00    +0.410 HD
ATOM      6  O   LIG    1       -3.925   6.992   0.565  0.00  0.00    -0.490 OA
BRANCH   4   7
ATOM      7  C   LIG    1       -2.690   4.966  -0.641  0.00  0.00    +0.150 A 
ATOM      8  C   LIG    1       -3.271   4.481   0.523  0.00  0.00    +0.020 A 
ATOM      9  C   LIG    1       -2.683   3.430   1.198  0.00  0.00    +0.040 A 
ATOM     10  C   LIG    1       -1.517   2.857   0.720  0.00  0.00    -0.110 A 
ATOM     11  C   LIG    1       -0.689   1.712   1.272  0.00  0.00    +0.080 C 
ATOM     12  C   LIG    1        0.679   1.832   0.569  0.00  0.00    +0.030 C 
ATOM     13  C   LIG    1        0.319   2.550  -0.749  0.00  0.00    +0.080 C 
ATOM     14  C   LIG    1       -0.935   3.338  -0.440  0.00  0.00    -0.080 A 
ATOM     15  C   LIG    1       -1.521   4.392  -1.119  0.00  0.00    -0.010 A 
ENDBRANCH   4   7
ENDBRANCH   1   3
BRANCH   1  16
ATOM     16  O   LIG    1       -5.382   8.918  -0.448  0.00  0.00    -0.330 OA
BRANCH  16  17
ATOM     17  C   LIG    1       -6.522   9.494  -0.878  0.00  0.00    +0.520 C 
ATOM     18  O   LIG    1       -6.911   9.298  -2.013  0.00  0.00    -0.490 OA
BRANCH  17  22
ATOM     19  C   LIG    1       -8.754  11.992   1.732  0.00  0.00    +0.210 A 
ATOM     20  C   LIG    1       -7.577  11.397   2.174  0.00  0.00    -0.120 A 
ATOM     21  C   LIG    1       -6.854  10.582   1.334  0.00  0.00    +0.170 A 
ATOM     22  C   LIG    1       -7.296  10.359   0.026  0.00  0.00    -0.200 A 
ATOM     23  C   LIG    1       -8.484  10.961  -0.419  0.00  0.00    +0.230 A 
ATOM     24  C   LIG    1       -9.206  11.773   0.438  0.00  0.00    -0.110 A 
BRANCH  19  26
ATOM     25  C   LIG    1       -8.944  12.973   3.887  0.00  0.00    +0.250 C 
ATOM     26  O   LIG    1       -9.464  12.790   2.569  0.00  0.00    -0.310 OA
ENDBRANCH  19  26
BRANCH  23  27
ATOM     27  O   LIG    1       -8.923  10.746  -1.685  0.00  0.00    -0.280 OA
ATOM     28  C   LIG    1      -10.140  11.391  -2.067  0.00  0.00    +0.250 C 
ENDBRANCH  23  27
ENDBRANCH  17  22
ENDBRANCH  16  17
ENDBRANCH   1  16
TORSDOF 7
