REMARK  Name = ZINCrD00000F5LB7.1
REMARK                            x       y       z     vdW  Elec       q    Type
REMARK                         _______ _______ _______ _____ _____    ______ ____
ROOT
ATOM      1  C   LIG    1        2.569  -0.104   0.003  0.00  0.00    -0.060 A 
ATOM      2  C   LIG    1        1.494  -0.953   0.272  0.00  0.00    +0.070 A 
ATOM      3  C   LIG    1        0.249  -0.423   0.536  0.00  0.00    -0.010 A 
ATOM      4  C   LIG    1        0.058   0.948   0.537  0.00  0.00    +0.070 A 
ATOM      5  C   LIG    1        1.113   1.800   0.273  0.00  0.00    -0.010 A 
ATOM      6  C   LIG    1        2.373   1.285   0.005  0.00  0.00    +0.200 A 
ENDROOT
BRANCH   1  18
ATOM      7  O   LIG    1        4.849   0.237   1.662  0.00  0.00    -0.490 OA
ATOM      8  C   LIG    1        5.021  -0.424   0.655  0.00  0.00    +0.500 A 
ATOM      9  N   LIG    1        6.236  -0.945   0.378  0.00  0.00    -0.620 N 
ATOM     10  H   LIG    1        6.983  -0.798   0.979  0.00  0.00    +0.420 HD
ATOM     11  C   LIG    1        6.400  -1.691  -0.774  0.00  0.00    +0.150 A 
ATOM     12  C   LIG    1        7.640  -2.240  -1.082  0.00  0.00    -0.020 A 
ATOM     13  C   LIG    1        7.796  -2.983  -2.233  0.00  0.00    +0.090 A 
ATOM     14  C   LIG    1        6.722  -3.189  -3.089  0.00  0.00    +0.000 A 
ATOM     15  C   LIG    1        5.496  -2.661  -2.807  0.00  0.00    +0.120 A 
ATOM     16  C   LIG    1        5.311  -1.900  -1.642  0.00  0.00    +0.020 A 
ATOM     17  N   LIG    1        4.100  -1.384  -1.361  0.00  0.00    -0.380 NA
ATOM     18  C   LIG    1        3.906  -0.666  -0.280  0.00  0.00    +0.150 A 
ENDBRANCH   1  18
BRANCH   6  19
ATOM     19  N   LIG    1        3.437   2.142  -0.261  0.00  0.00    -1.050 N 
ATOM     20  H   LIG    1        4.117   1.886  -0.904  0.00  0.00    +0.420 HD
BRANCH  19  21
ATOM     21  S   LIG    1        3.543   3.598   0.521  0.00  0.00    +2.690 S 
ATOM     22  O   LIG    1        2.300   4.254   0.318  0.00  0.00    -0.950 OA
ATOM     23  O   LIG    1        4.792   4.164   0.147  0.00  0.00    -0.950 OA
BRANCH  21  24
ATOM     24  C   LIG    1        3.650   3.256   2.246  0.00  0.00    -0.670 A 
ATOM     25  C   LIG    1        2.498   3.171   3.006  0.00  0.00    +0.130 A 
ATOM     26  C   LIG    1        2.581   2.898   4.359  0.00  0.00    -0.010 A 
ATOM     27  C   LIG    1        3.816   2.721   4.954  0.00  0.00    +0.070 A 
ATOM     28  C   LIG    1        4.968   2.812   4.195  0.00  0.00    -0.010 A 
ATOM     29  C   LIG    1        4.885   3.079   2.841  0.00  0.00    +0.130 A 
ENDBRANCH  21  24
ENDBRANCH  19  21
ENDBRANCH   6  19
TORSDOF 4
