REMARK  Name = ZINCrg000000ohNk.0
REMARK                            x       y       z     vdW  Elec       q    Type
REMARK                         _______ _______ _______ _____ _____    ______ ____
ROOT
ATOM      1  C   LIG    1       -1.558  -0.492   5.582  0.00  0.00    +0.250 C 
ATOM      2  C   LIG    1       -1.583   0.345   6.874  0.00  0.00    +0.300 C 
ATOM      3  N   LIG    1       -1.665  -0.947   7.588  0.00  0.00    -1.030 NA
ATOM      4  C   LIG    1       -1.028  -1.645   6.454  0.00  0.00    +0.310 C 
ENDROOT
BRANCH   1   6
ATOM      5  C   LIG    1       -1.029   0.628   3.484  0.00  0.00    +0.510 C 
ATOM      6  N   LIG    1       -0.595  -0.013   4.588  0.00  0.00    -0.720 N 
ATOM      7  H   LIG    1        0.354  -0.158   4.723  0.00  0.00    +0.400 HD
ATOM      8  O   LIG    1       -2.206   0.888   3.357  0.00  0.00    -0.510 OA
BRANCH   5   9
ATOM      9  C   LIG    1       -0.050   1.023   2.409  0.00  0.00    +0.170 C 
BRANCH   9  10
ATOM     10  C   LIG    1        0.919   2.071   2.960  0.00  0.00    -0.030 C 
ATOM     11  C   LIG    1        0.152   3.354   3.284  0.00  0.00    +0.030 C 
ATOM     12  C   LIG    1        1.996   2.371   1.915  0.00  0.00    +0.030 C 
ENDBRANCH   9  10
BRANCH   9  13
ATOM     13  O   LIG    1       -0.759   1.569   1.296  0.00  0.00    -0.350 OA
BRANCH  13  15
ATOM     14  C   LIG    1       -1.173   1.682  -1.083  0.00  0.00    +0.040 C 
ATOM     15  C   LIG    1       -0.266   1.141   0.025  0.00  0.00    +0.160 C 
ENDBRANCH  13  15
ENDBRANCH   9  13
ENDBRANCH   5   9
ENDBRANCH   1   6
BRANCH   3  16
ATOM     16  S   LIG    1       -2.243  -1.421   9.066  0.00  0.00    +2.720 S 
ATOM     17  O   LIG    1       -2.545  -2.805   8.953  0.00  0.00    -0.940 OA
ATOM     18  O   LIG    1       -3.200  -0.445   9.454  0.00  0.00    -0.940 OA
BRANCH  16  19
ATOM     19  C   LIG    1       -0.910  -1.294  10.212  0.00  0.00    -0.680 A 
ATOM     20  C   LIG    1       -0.078  -2.377  10.425  0.00  0.00    +0.140 A 
ATOM     21  C   LIG    1        0.971  -2.280  11.319  0.00  0.00    +0.020 A 
ATOM     22  C   LIG    1        1.184  -1.099  12.014  0.00  0.00    +0.110 A 
ATOM     23  O   LIG    1        2.216  -1.022  12.899  0.00  0.00    -0.300 OA
ATOM     24  C   LIG    1        2.626   0.292  13.295  0.00  0.00    +0.230 C 
ATOM     25  C   LIG    1        1.370   1.106  13.635  0.00  0.00    +0.230 C 
ATOM     26  O   LIG    1        0.542   1.160  12.469  0.00  0.00    -0.300 OA
ATOM     27  C   LIG    1        0.345  -0.011  11.803  0.00  0.00    +0.030 A 
ATOM     28  C   LIG    1       -0.703  -0.114  10.900  0.00  0.00    +0.140 A 
ENDBRANCH  16  19
ENDBRANCH   3  16
TORSDOF 7
