REMARK  Name = ZINCrD00000F5LkC.0
REMARK                            x       y       z     vdW  Elec       q    Type
REMARK                         _______ _______ _______ _____ _____    ______ ____
ROOT
ATOM      1  C   LIG    1       -1.390   2.640  -0.817  0.00  0.00    +0.120 A 
ATOM      2  C   LIG    1       -1.131   1.291  -1.019  0.00  0.00    -0.040 A 
ATOM      3  C   LIG    1        0.120   0.778  -0.755  0.00  0.00    +0.060 A 
ATOM      4  C   LIG    1        1.138   1.621  -0.291  0.00  0.00    -0.090 A 
ATOM      5  C   LIG    1        0.876   2.984  -0.092  0.00  0.00    +0.000 A 
ATOM      6  C   LIG    1       -0.382   3.487  -0.354  0.00  0.00    +0.100 A 
ENDROOT
BRANCH   4   7
ATOM      7  C   LIG    1        2.472   1.081  -0.015  0.00  0.00    +0.190 C 
ATOM      8  C   LIG    1        2.604  -0.100   0.656  0.00  0.00    -0.160 C 
ATOM      9  C   LIG    1        3.829  -0.897   0.837  0.00  0.00    +0.560 C 
ATOM     10  N   LIG    1        3.513  -1.985   1.560  0.00  0.00    -0.650 N 
ATOM     11  H   LIG    1        4.147  -2.672   1.818  0.00  0.00    +0.420 HD
ATOM     12  C   LIG    1        2.164  -2.000   1.892  0.00  0.00    +0.160 A 
ATOM     13  C   LIG    1        1.400  -2.908   2.616  0.00  0.00    +0.010 A 
ATOM     14  C   LIG    1        0.050  -2.682   2.805  0.00  0.00    +0.000 A 
ATOM     15  C   LIG    1       -0.557  -1.553   2.279  0.00  0.00    +0.010 A 
ATOM     16  C   LIG    1        0.186  -0.641   1.558  0.00  0.00    +0.090 A 
ATOM     17 CL   LIG    1       -0.894  -3.823   3.711  0.00  0.00    -0.060 Cl
ATOM     18  O   LIG    1        4.933  -0.619   0.406  0.00  0.00    -0.500 OA
ATOM     19  C   LIG    1        1.547  -0.856   1.367  0.00  0.00    -0.100 A 
ENDBRANCH   4   7
BRANCH   6  20
ATOM     20  O   LIG    1       -0.640   4.808  -0.162  0.00  0.00    -0.300 OA
ATOM     21  C   LIG    1        0.439   5.617   0.312  0.00  0.00    +0.240 C 
ENDBRANCH   6  20
BRANCH   1  22
ATOM     22  O   LIG    1       -2.627   3.138  -1.074  0.00  0.00    -0.270 OA
BRANCH  22  23
ATOM     23  C   LIG    1       -3.612   2.216  -1.545  0.00  0.00    +0.240 C 
BRANCH  23  26
ATOM     24  N   LIG    1       -5.991   2.271  -2.221  0.00  0.00    -0.730 N 
ATOM     25  H   LIG    1       -5.931   1.319  -2.396  0.00  0.00    +0.400 HD
ATOM     26  C   LIG    1       -4.912   2.943  -1.774  0.00  0.00    +0.510 C 
ATOM     27  O   LIG    1       -4.987   4.134  -1.555  0.00  0.00    -0.510 OA
BRANCH  24  29
ATOM     28  C   LIG    1       -8.309   1.991  -2.948  0.00  0.00    +0.030 C 
ATOM     29  C   LIG    1       -7.254   2.978  -2.444  0.00  0.00    +0.250 C 
ENDBRANCH  24  29
ENDBRANCH  23  26
ENDBRANCH  22  23
ENDBRANCH   1  22
TORSDOF 6
