REMARK  Name = ZINCrD000000A1nj.1
REMARK                            x       y       z     vdW  Elec       q    Type
REMARK                         _______ _______ _______ _____ _____    ______ ____
ROOT
ATOM      1  C   LIG    1       -2.213   1.024  -1.022  0.00  0.00    +0.530 C 
ATOM      2  N   LIG    1       -3.201   1.662  -1.679  0.00  0.00    -0.600 N 
ATOM      3  C   LIG    1       -2.914   2.853  -2.490  0.00  0.00    +0.270 C 
ATOM      4  C   LIG    1       -3.472   2.628  -3.904  0.00  0.00    +0.030 C 
ATOM      5  C   LIG    1       -4.958   2.276  -3.809  0.00  0.00    -0.020 C 
ATOM      6  C   LIG    1       -5.128   0.981  -3.013  0.00  0.00    +0.010 C 
ATOM      7  C   LIG    1       -4.588   1.184  -1.593  0.00  0.00    +0.270 C 
ATOM      8  O   LIG    1       -2.464   0.045  -0.352  0.00  0.00    -0.540 OA
ENDROOT
BRANCH   1   9
ATOM      9  C   LIG    1       -0.795   1.527  -1.120  0.00  0.00    +0.190 C 
BRANCH   9  10
ATOM     10  C   LIG    1       -0.175   1.052  -2.435  0.00  0.00    +0.110 C 
ATOM     11  C   LIG    1        1.280   1.557  -2.557  0.00  0.00    +0.010 C 
ATOM     12  C   LIG    1        1.436   1.891  -4.058  0.00  0.00    +0.010 C 
ATOM     13  C   LIG    1        0.058   1.548  -4.665  0.00  0.00    +0.200 C 
ATOM     14  O   LIG    1       -0.866   1.642  -3.558  0.00  0.00    -0.360 OA
ENDBRANCH   9  10
BRANCH   9  15
ATOM     15  N   LIG    1       -0.012   1.005   0.008  0.00  0.00    -0.820 NA
ATOM     16  H   LIG    1        0.925   1.379   0.001  0.00  0.00    +0.350 HD
ATOM     17  H   LIG    1        0.002  -0.004   0.002  0.00  0.00    +0.350 HD
ENDBRANCH   9  15
ENDBRANCH   1   9
BRANCH   5  18
ATOM     18  C   LIG    1       -5.528   2.088  -5.216  0.00  0.00    +0.020 C 
BRANCH  18  19
ATOM     19  C   LIG    1       -5.472   3.418  -5.971  0.00  0.00    +0.080 C 
BRANCH  19  20
ATOM     20  C   LIG    1       -6.034   3.232  -7.357  0.00  0.00    -0.080 A 
ATOM     21  C   LIG    1       -7.383   3.423  -7.588  0.00  0.00    +0.040 A 
ATOM     22  C   LIG    1       -7.898   3.253  -8.860  0.00  0.00    +0.020 A 
ATOM     23  C   LIG    1       -7.063   2.893  -9.901  0.00  0.00    +0.060 A 
ATOM     24  C   LIG    1       -5.713   2.702  -9.670  0.00  0.00    -0.180 A 
ATOM     25  C   LIG    1       -5.198   2.877  -8.400  0.00  0.00    +0.060 A 
BRANCH  24  26
ATOM     26  C   LIG    1       -4.803   2.309 -10.805  0.00  0.00    +0.510 C 
ATOM     27  F   LIG    1       -4.203   1.079 -10.517  0.00  0.00    -0.180 F 
ATOM     28  F   LIG    1       -3.814   3.284 -10.968  0.00  0.00    -0.180 F 
ATOM     29  F   LIG    1       -5.549   2.200 -11.984  0.00  0.00    -0.180 F 
ENDBRANCH  24  26
ENDBRANCH  19  20
ENDBRANCH  18  19
ENDBRANCH   5  18
TORSDOF 7
