REMARK  Name = ZINCvU0000000AQY.0
REMARK                            x       y       z     vdW  Elec       q    Type
REMARK                         _______ _______ _______ _____ _____    ______ ____
ROOT
ATOM      1  C   LIG    1       -0.881  -1.653   0.324  0.00  0.00    +0.190 C 
ENDROOT
BRANCH   1   2
ATOM      2  C   LIG    1       -1.361  -1.788  -1.098  0.00  0.00    -0.080 A 
ATOM      3  C   LIG    1       -1.029  -2.909  -1.837  0.00  0.00    +0.110 A 
ATOM      4  C   LIG    1       -1.474  -3.035  -3.139  0.00  0.00    +0.020 A 
ATOM      5  C   LIG    1       -2.243  -2.036  -3.707  0.00  0.00    +0.080 A 
ATOM      6  C   LIG    1       -2.571  -0.913  -2.970  0.00  0.00    -0.190 A 
ATOM      7  C   LIG    1       -2.130  -0.789  -1.666  0.00  0.00    +0.070 A 
BRANCH   6   8
ATOM      8  C   LIG    1       -3.409   0.176  -3.589  0.00  0.00    +0.510 C 
ATOM      9  F   LIG    1       -4.161   0.808  -2.593  0.00  0.00    -0.180 F 
ATOM     10  F   LIG    1       -4.269  -0.381  -4.541  0.00  0.00    -0.180 F 
ATOM     11  F   LIG    1       -2.573   1.113  -4.207  0.00  0.00    -0.180 F 
ENDBRANCH   6   8
ENDBRANCH   1   2
BRANCH   1  12
ATOM     12  C   LIG    1        0.625  -1.585   0.340  0.00  0.00    +0.520 C 
ATOM     13  N   LIG    1        1.244  -0.421   0.619  0.00  0.00    -0.680 N 
ATOM     14  H   LIG    1        0.723   0.389   0.738  0.00  0.00    +0.410 HD
ATOM     15  O   LIG    1        1.279  -2.578   0.103  0.00  0.00    -0.480 OA
BRANCH  13  16
ATOM     16  C   LIG    1        2.638  -0.379   0.731  0.00  0.00    +0.150 A 
ATOM     17  C   LIG    1        3.236   0.473   1.652  0.00  0.00    -0.010 A 
ATOM     18  C   LIG    1        4.613   0.513   1.770  0.00  0.00    +0.030 A 
ATOM     19  C   LIG    1        5.402  -0.282   0.966  0.00  0.00    -0.010 A 
ATOM     20  C   LIG    1        4.812  -1.137   0.033  0.00  0.00    +0.010 A 
ATOM     21  C   LIG    1        3.423  -1.182  -0.082  0.00  0.00    +0.070 A 
BRANCH  20  22
ATOM     22  C   LIG    1        5.656  -1.991  -0.830  0.00  0.00    +0.240 A 
ATOM     23  N   LIG    1        5.270  -3.090  -1.439  0.00  0.00    -0.460 NA
ATOM     24  C   LIG    1        6.297  -3.595  -2.131  0.00  0.00    +0.150 A 
ATOM     25  C   LIG    1        7.367  -2.796  -1.948  0.00  0.00    +0.130 A 
ATOM     26  N   LIG    1        6.971  -1.777  -1.125  0.00  0.00    -0.460 N 
ATOM     27  C   LIG    1        7.800  -0.666  -0.650  0.00  0.00    +0.320 C 
ENDBRANCH  20  22
ENDBRANCH  13  16
ENDBRANCH   1  12
BRANCH   1  28
ATOM     28  N   LIG    1       -1.327  -2.815   1.104  0.00  0.00    -0.510 NA
BRANCH  28  30
ATOM     29  C   LIG    1        0.639  -3.209   2.510  0.00  0.00    +0.040 C 
ATOM     30  C   LIG    1       -0.820  -2.750   2.481  0.00  0.00    +0.170 C 
ENDBRANCH  28  30
BRANCH  28  31
ATOM     31  C   LIG    1       -2.791  -2.930   1.086  0.00  0.00    +0.170 C 
ATOM     32  C   LIG    1       -3.237  -3.565  -0.232  0.00  0.00    +0.030 C 
ENDBRANCH  28  31
ENDBRANCH   1  28
TORSDOF 8
