REMARK  Name = ZINCue00000003Oj.0
REMARK                            x       y       z     vdW  Elec       q    Type
REMARK                         _______ _______ _______ _____ _____    ______ ____
ROOT
ATOM      1  C   LIG    1        4.945  -4.077  -0.065  0.00  0.00    +0.590 C 
ATOM      2  N   LIG    1        4.928  -2.729  -0.058  0.00  0.00    -0.490 N 
ATOM      3  H   LIG    1        5.762  -2.234  -0.064  0.00  0.00    +0.440 HD
ATOM      4  O   LIG    1        3.900  -4.698  -0.059  0.00  0.00    -0.530 OA
ENDROOT
BRANCH   1   7
ATOM      5  N   LIG    1        8.519  -4.687  -0.102  0.00  0.00    -0.360 N 
ATOM      6  N   LIG    1        7.364  -4.138  -0.088  0.00  0.00    -0.190 NA
ATOM      7  C   LIG    1        6.232  -4.799  -0.081  0.00  0.00    +0.070 A 
ATOM      8  C   LIG    1        6.261  -6.271  -0.083  0.00  0.00    -0.030 A 
ATOM      9  C   LIG    1        5.107  -7.046  -0.081  0.00  0.00    +0.080 A 
ATOM     10  C   LIG    1        5.215  -8.421  -0.088  0.00  0.00    +0.050 A 
ATOM     11  C   LIG    1        6.460  -9.036  -0.102  0.00  0.00    +0.010 A 
ATOM     12  C   LIG    1        7.617  -8.286  -0.110  0.00  0.00    +0.080 A 
ATOM     13  C   LIG    1        7.529  -6.897  -0.103  0.00  0.00    -0.140 A 
ATOM     14  C   LIG    1        8.709  -6.022  -0.110  0.00  0.00    +0.520 A 
ATOM     15  O   LIG    1        9.832  -6.492  -0.123  0.00  0.00    -0.500 OA
BRANCH   5  17
ATOM     16  C   LIG    1       10.097  -3.510  -1.554  0.00  0.00    +0.040 C 
ATOM     17  C   LIG    1        9.699  -3.819  -0.109  0.00  0.00    +0.330 C 
ENDBRANCH   5  17
ENDBRANCH   1   7
BRANCH   2  18
ATOM     18  N   LIG    1        3.706  -2.044  -0.043  0.00  0.00    -0.540 N 
ATOM     19  H   LIG    1        2.872  -2.539  -0.038  0.00  0.00    +0.420 HD
ATOM     20  C   LIG    1        3.690  -0.696  -0.037  0.00  0.00    +0.570 C 
ATOM     21  O   LIG    1        4.735  -0.075  -0.043  0.00  0.00    -0.500 OA
BRANCH  20  22
ATOM     22  C   LIG    1        2.404   0.025  -0.021  0.00  0.00    -0.220 A 
ATOM     23  C   LIG    1        1.200  -0.684  -0.013  0.00  0.00    +0.070 A 
ATOM     24  C   LIG    1        0.002  -0.004   0.002  0.00  0.00    -0.130 A 
ATOM     25  C   LIG    1       -0.017   1.381   0.010  0.00  0.00    +0.070 A 
ATOM     26  C   LIG    1        1.164   2.096   0.002  0.00  0.00    -0.150 A 
ATOM     27  C   LIG    1        2.382   1.429  -0.013  0.00  0.00    +0.340 A 
BRANCH  27  28
ATOM     28  N   LIG    1        3.571   2.146  -0.020  0.00  0.00    -1.040 NA
BRANCH  28  29
ATOM     29  S   LIG    1        3.539   3.801  -0.011  0.00  0.00    +2.520 S 
ATOM     30  O   LIG    1        2.939   4.134   1.233  0.00  0.00    -1.030 OA
ATOM     31  O   LIG    1        2.916   4.147  -1.240  0.00  0.00    -1.030 OA
ATOM     32  C   LIG    1        5.287   4.287  -0.025  0.00  0.00    -0.290 C 
ENDBRANCH  28  29
ENDBRANCH  27  28
ENDBRANCH  20  22
ENDBRANCH   2  18
TORSDOF 6
