REMARK  Name = ZINCrD0000072y86.0
REMARK                            x       y       z     vdW  Elec       q    Type
REMARK                         _______ _______ _______ _____ _____    ______ ____
ROOT
ATOM      1  C   LIG    1       -0.046   1.762   0.393  0.00  0.00    +0.190 C 
ATOM      2  N   LIG    1       -0.042   0.309   0.175  0.00  0.00    -0.520 NA
ENDROOT
BRANCH   2   3
ATOM      3  C   LIG    1       -1.411  -0.208   0.049  0.00  0.00    +0.240 C 
BRANCH   3   4
ATOM      4  C   LIG    1       -2.042   0.341  -1.206  0.00  0.00    -0.100 A 
ATOM      5  C   LIG    1       -2.747   1.529  -1.160  0.00  0.00    +0.060 A 
ATOM      6  C   LIG    1       -3.321   2.037  -2.309  0.00  0.00    -0.060 A 
ATOM      7  C   LIG    1       -3.199   1.348  -3.507  0.00  0.00    +0.110 A 
ATOM      8  C   LIG    1       -2.496   0.153  -3.549  0.00  0.00    +0.020 A 
ATOM      9  C   LIG    1       -1.918  -0.348  -2.398  0.00  0.00    +0.080 A 
BRANCH   7  10
ATOM     10  O   LIG    1       -3.769   1.842  -4.638  0.00  0.00    -0.310 OA
BRANCH  10  11
ATOM     11  C   LIG    1       -4.478   3.077  -4.521  0.00  0.00    +0.600 C 
ATOM     12  F   LIG    1       -5.526   2.928  -3.606  0.00  0.00    -0.160 F 
ATOM     13  F   LIG    1       -4.996   3.438  -5.769  0.00  0.00    -0.130 F 
ATOM     14  F   LIG    1       -3.606   4.075  -4.072  0.00  0.00    -0.160 F 
ENDBRANCH  10  11
ENDBRANCH   7  10
ENDBRANCH   3   4
ENDBRANCH   2   3
BRANCH   2  15
ATOM     15  C   LIG    1        0.685  -0.382   1.248  0.00  0.00    +0.220 C 
BRANCH  15  16
ATOM     16  C   LIG    1        2.143  -0.007   1.190  0.00  0.00    +0.510 C 
ATOM     17  N   LIG    1        3.009  -0.524   2.084  0.00  0.00    -0.670 N 
ATOM     18  H   LIG    1        2.682  -1.077   2.811  0.00  0.00    +0.410 HD
ATOM     19  O   LIG    1        2.538   0.761   0.338  0.00  0.00    -0.490 OA
BRANCH  17  20
ATOM     20  C   LIG    1        4.380  -0.264   1.964  0.00  0.00    +0.160 A 
ATOM     21  C   LIG    1        5.168  -0.153   3.101  0.00  0.00    +0.000 A 
ATOM     22  C   LIG    1        6.521   0.103   2.983  0.00  0.00    +0.060 A 
ATOM     23  C   LIG    1        7.095   0.250   1.731  0.00  0.00    +0.020 A 
ATOM     24  O   LIG    1        8.382   0.503   1.350  0.00  0.00    -0.310 OA
ATOM     25  C   LIG    1        8.297   0.951  -0.015  0.00  0.00    +0.430 C 
ATOM     26  O   LIG    1        7.099   0.324  -0.508  0.00  0.00    -0.310 OA
ATOM     27  C   LIG    1        6.306   0.140   0.588  0.00  0.00    +0.050 A 
ATOM     28  C   LIG    1        4.952  -0.122   0.706  0.00  0.00    +0.050 A 
ENDBRANCH  17  20
ENDBRANCH  15  16
ENDBRANCH   2  15
TORSDOF 7
