REMARK  Name = ZINCAx0000000fvE.0
REMARK                            x       y       z     vdW  Elec       q    Type
REMARK                         _______ _______ _______ _____ _____    ______ ____
ROOT
ATOM      1  C   LIG    1        4.672   1.301   2.711  0.00  0.00    +0.160 C 
ATOM      2  C   LIG    1        4.611   1.456   1.185  0.00  0.00    +0.280 C 
ATOM      3  N   LIG    1        5.963   1.808   0.719  0.00  0.00    -0.550 N 
ATOM      4  C   LIG    1        7.049   1.129   1.294  0.00  0.00    +0.070 A 
ATOM      5  C   LIG    1        8.304   1.205   0.711  0.00  0.00    +0.060 A 
ATOM      6  C   LIG    1        9.371   0.537   1.284  0.00  0.00    +0.000 A 
ATOM      7  C   LIG    1        9.186  -0.205   2.436  0.00  0.00    +0.030 A 
ATOM      8  C   LIG    1        7.936  -0.284   3.021  0.00  0.00    +0.020 A 
ATOM      9  C   LIG    1        6.860   0.381   2.454  0.00  0.00    +0.090 A 
ATOM     10  C   LIG    1        6.151   2.750  -0.227  0.00  0.00    +0.570 C 
ATOM     11  O   LIG    1        7.272   2.987  -0.634  0.00  0.00    -0.500 OA
ATOM     12  O   LIG    1        5.634   0.294   3.034  0.00  0.00    -0.280 OA
ENDROOT
BRANCH   1  14
ATOM     13  O   LIG    1        3.133  -0.246   3.608  0.00  0.00    -0.500 OA
ATOM     14  C   LIG    1        3.319   0.892   3.232  0.00  0.00    +0.530 C 
ATOM     15  N   LIG    1        2.315   1.790   3.280  0.00  0.00    -0.610 N 
ATOM     16  C   LIG    1        0.957   1.388   3.678  0.00  0.00    +0.270 C 
ATOM     17  C   LIG    1       -0.029   1.905   2.624  0.00  0.00    +0.220 C 
ATOM     18  O   LIG    1        0.186   3.304   2.425  0.00  0.00    -0.370 OA
ATOM     19  C   LIG    1        1.482   3.631   1.918  0.00  0.00    +0.220 C 
ATOM     20  C   LIG    1        2.545   3.202   2.935  0.00  0.00    +0.240 C 
ENDBRANCH   1  14
BRANCH  10  21
ATOM     21  C   LIG    1        4.995   3.496  -0.768  0.00  0.00    -0.120 A 
ATOM     22  C   LIG    1        3.739   2.891  -0.832  0.00  0.00    +0.030 A 
ATOM     23  C   LIG    1        2.663   3.594  -1.334  0.00  0.00    +0.050 A 
ATOM     24  C   LIG    1        2.829   4.892  -1.782  0.00  0.00    -0.090 A 
ATOM     25  C   LIG    1        4.073   5.496  -1.727  0.00  0.00    +0.040 A 
ATOM     26  C   LIG    1        5.156   4.806  -1.223  0.00  0.00    +0.080 A 
BRANCH  24  27
ATOM     27  C   LIG    1        1.651   5.652  -2.334  0.00  0.00    +0.400 C 
BRANCH  27  28
ATOM     28  N   LIG    1        1.555   5.424  -3.778  0.00  0.00    -0.390 N 
ATOM     29  N   LIG    1        0.840   4.403  -4.421  0.00  0.00    -0.000 NA
ATOM     30  N   LIG    1        0.984   4.516  -5.694  0.00  0.00    -0.220 NA
ATOM     31  C   LIG    1        1.771   5.572  -5.985  0.00  0.00    -0.020 A 
ATOM     32  C   LIG    1        2.231   6.120  -7.189  0.00  0.00    +0.110 A 
ATOM     33  C   LIG    1        3.036   7.221  -7.172  0.00  0.00    +0.010 A 
ATOM     34  C   LIG    1        3.408   7.811  -5.971  0.00  0.00    +0.080 A 
ATOM     35  C   LIG    1        2.970   7.291  -4.774  0.00  0.00    +0.000 A 
ATOM     36  C   LIG    1        2.144   6.172  -4.769  0.00  0.00    +0.090 A 
ENDBRANCH  27  28
ENDBRANCH  24  27
ENDBRANCH  10  21
TORSDOF 4
