REMARK  Name = ZINCpk000000n3Qv.0
REMARK                            x       y       z     vdW  Elec       q    Type
REMARK                         _______ _______ _______ _____ _____    ______ ____
ROOT
ATOM      1  C   LIG    1       -5.221  -1.506   3.126  0.00  0.00    +0.000 C 
ATOM      2  C   LIG    1       -3.837  -1.948   2.648  0.00  0.00    +0.040 C 
ATOM      3  C   LIG    1       -3.784  -1.894   1.119  0.00  0.00    +0.060 C 
ATOM      4  C   LIG    1       -4.072  -0.472   0.650  0.00  0.00    +0.130 C 
ATOM      5  N   LIG    1       -3.990  -0.385  -0.814  0.00  0.00    -0.720 N 
ATOM      6  H   LIG    1       -4.539  -0.862  -1.456  0.00  0.00    +0.440 HD
ATOM      7  C   LIG    1       -3.004   0.491  -1.088  0.00  0.00    +0.710 C 
ATOM      8  N   LIG    1       -2.430   0.977   0.019  0.00  0.00    -0.560 N 
ATOM      9  O   LIG    1       -2.672   0.803  -2.215  0.00  0.00    -0.540 OA
ATOM     10  C   LIG    1       -5.441  -0.009   1.137  0.00  0.00    +0.050 C 
ATOM     11  C   LIG    1       -2.994   0.471   1.135  0.00  0.00    +0.540 C 
ATOM     12  O   LIG    1       -2.699   0.719   2.284  0.00  0.00    -0.450 OA
ATOM     13  C   LIG    1       -5.487  -0.071   2.666  0.00  0.00    +0.040 C 
ENDROOT
BRANCH   1  15
ATOM     14  C   LIG    1       -4.213  -0.641   5.242  0.00  0.00    +0.030 C 
ATOM     15  C   LIG    1       -5.277  -1.569   4.653  0.00  0.00    -0.060 C 
ATOM     16  C   LIG    1       -5.014  -3.005   5.114  0.00  0.00    +0.020 C 
ATOM     17  C   LIG    1       -6.662  -1.127   5.131  0.00  0.00    +0.020 C 
ENDBRANCH   1  15
BRANCH   8  18
ATOM     18  C   LIG    1       -1.330   1.944   0.019  0.00  0.00    +0.360 C 
BRANCH  18  19
ATOM     19  C   LIG    1       -0.014   1.209   0.009  0.00  0.00    +0.500 C 
ATOM     20  N   LIG    1        1.143   1.898   0.001  0.00  0.00    -0.720 N 
ATOM     21  H   LIG    1        1.130   2.868   0.007  0.00  0.00    +0.410 HD
ATOM     22  O   LIG    1        0.002  -0.004   0.002  0.00  0.00    -0.520 OA
BRANCH  20  23
ATOM     23  C   LIG    1        2.422   1.183  -0.015  0.00  0.00    +0.220 C 
ATOM     24  C   LIG    1        3.550   2.078   0.547  0.00  0.00    +0.020 C 
ATOM     25  C   LIG    1        4.537   2.222  -0.632  0.00  0.00    +0.200 C 
ATOM     26  O   LIG    1        3.739   1.986  -1.813  0.00  0.00    -0.370 OA
ATOM     27  C   LIG    1        2.860   0.889  -1.467  0.00  0.00    +0.200 C 
ENDBRANCH  20  23
ENDBRANCH  18  19
ENDBRANCH   8  18
TORSDOF 4
