REMARK  Name = ZINCrD000000CYWd.0
REMARK                            x       y       z     vdW  Elec       q    Type
REMARK                         _______ _______ _______ _____ _____    ______ ____
ROOT
ATOM      1  N   LIG    1        2.389  -6.661  -0.058  0.00  0.00    -0.540 NA
ATOM      2  C   LIG    1        2.953  -6.047   1.151  0.00  0.00    +0.190 C 
ATOM      3  C   LIG    1        2.568  -4.566   1.199  0.00  0.00    +0.060 C 
ATOM      4  C   LIG    1        3.106  -3.863  -0.050  0.00  0.00    +0.080 C 
ATOM      5  C   LIG    1        2.544  -4.552  -1.297  0.00  0.00    +0.060 C 
ATOM      6  C   LIG    1        2.928  -6.033  -1.272  0.00  0.00    +0.160 C 
ENDROOT
BRANCH   4   7
ATOM      7  C   LIG    1        2.680  -2.418  -0.038  0.00  0.00    +0.100 A 
ATOM      8  N   LIG    1        1.462  -2.027  -0.024  0.00  0.00    -0.460 NA
ATOM      9  C   LIG    1        1.227  -0.701  -0.014  0.00  0.00    +0.080 A 
ATOM     10  C   LIG    1        0.002  -0.004   0.002  0.00  0.00    +0.080 A 
ATOM     11  C   LIG    1       -0.016   1.358   0.009  0.00  0.00    +0.030 A 
ATOM     12  C   LIG    1        1.166   2.084   0.002  0.00  0.00    +0.040 A 
ATOM     13  C   LIG    1        2.377   1.430  -0.013  0.00  0.00    +0.060 A 
ATOM     14  C   LIG    1        2.416   0.037  -0.021  0.00  0.00    -0.180 A 
ATOM     15  S   LIG    1        3.761  -1.098  -0.041  0.00  0.00    +0.090 S 
ENDBRANCH   4   7
BRANCH   1  16
ATOM     16  C   LIG    1        2.621  -8.111  -0.069  0.00  0.00    +0.450 C 
BRANCH  16  27
ATOM     17  O   LIG    1        4.872  -8.504  -1.847  0.00  0.00    -0.460 OA
ATOM     18  C   LIG    1        3.728  -8.663  -2.215  0.00  0.00    +0.540 C 
ATOM     19  C   LIG    1        3.264  -8.973  -3.609  0.00  0.00    -0.010 C 
ATOM     20  C   LIG    1        4.237  -9.664  -4.507  0.00  0.00    +0.100 C 
ATOM     21  C   LIG    1        4.230 -11.154  -4.367  0.00  0.00    -0.030 C 
ATOM     22  C   LIG    1        3.326 -11.800  -3.711  0.00  0.00    -0.050 C 
ATOM     23  C   LIG    1        2.201 -11.170  -2.965  0.00  0.00    +0.080 C 
ATOM     24  C   LIG    1        1.940  -9.718  -3.373  0.00  0.00    +0.040 C 
ATOM     25  C   LIG    1        1.500  -9.024  -2.075  0.00  0.00    +0.530 C 
ATOM     26  O   LIG    1        0.360  -8.884  -1.687  0.00  0.00    -0.450 OA
ATOM     27  N   LIG    1        2.614  -8.597  -1.451  0.00  0.00    -0.590 N 
ENDBRANCH  16  27
ENDBRANCH   1  16
TORSDOF 3
