REMARK  Name = ZINCvU0000000INz.0
REMARK                            x       y       z     vdW  Elec       q    Type
REMARK                         _______ _______ _______ _____ _____    ______ ____
ROOT
ATOM      1  C   LIG    1        3.591  -5.558   3.033  0.00  0.00    +0.380 C 
ATOM      2  C   LIG    1        3.397  -6.853   2.315  0.00  0.00    -0.230 A 
ATOM      3  C   LIG    1        4.514  -7.613   2.518  0.00  0.00    +0.090 A 
ATOM      4  C   LIG    1        5.447  -6.848   3.361  0.00  0.00    +0.570 C 
ATOM      5  O   LIG    1        6.537  -7.241   3.728  0.00  0.00    -0.450 OA
ATOM      6  O   LIG    1        4.660  -8.846   1.993  0.00  0.00    -0.170 OA
ATOM      7  C   LIG    1        3.593  -9.467   1.440  0.00  0.00    +0.160 A 
ATOM      8  C   LIG    1        3.688 -10.823   1.127  0.00  0.00    +0.040 A 
ATOM      9  C   LIG    1        2.620 -11.479   0.556  0.00  0.00    +0.130 A 
ATOM     10  C   LIG    1        1.436 -10.807   0.283  0.00  0.00    -0.120 A 
ATOM     11  C   LIG    1        1.317  -9.467   0.586  0.00  0.00    +0.160 A 
ATOM     12 BR   LIG    1       -0.013 -11.729  -0.507  0.00  0.00    -0.020 Br
ATOM     13  C   LIG    1        2.390  -8.794   1.168  0.00  0.00    -0.210 A 
ATOM     14  C   LIG    1        2.276  -7.355   1.514  0.00  0.00    +0.460 A 
ATOM     15  O   LIG    1        1.340  -6.657   1.165  0.00  0.00    -0.410 OA
ATOM     16  N   LIG    1        4.916  -5.646   3.667  0.00  0.00    -0.500 N 
ENDROOT
BRANCH   1  21
ATOM     17  C   LIG    1        2.392  -2.577   1.044  0.00  0.00    +0.140 A 
ATOM     18  C   LIG    1        3.501  -2.311   0.254  0.00  0.00    -0.070 A 
ATOM     19  C   LIG    1        4.636  -3.090   0.372  0.00  0.00    +0.050 A 
ATOM     20  C   LIG    1        4.663  -4.141   1.271  0.00  0.00    -0.030 A 
ATOM     21  C   LIG    1        3.558  -4.412   2.055  0.00  0.00    -0.050 A 
ATOM     22  C   LIG    1        2.422  -3.632   1.944  0.00  0.00    +0.030 A 
BRANCH  17  23
ATOM     23  O   LIG    1        1.277  -1.809   0.933  0.00  0.00    -0.310 OA
BRANCH  23  24
ATOM     24  C   LIG    1        1.317  -0.740  -0.015  0.00  0.00    +0.230 C 
BRANCH  24  26
ATOM     25  C   LIG    1       -0.016   1.306   0.009  0.00  0.00    +0.040 C 
ATOM     26  C   LIG    1        0.002  -0.004   0.002  0.00  0.00    -0.040 C 
ENDBRANCH  24  26
ENDBRANCH  23  24
ENDBRANCH  17  23
ENDBRANCH   1  21
BRANCH  16  27
ATOM     27  C   LIG    1        5.515  -4.664   4.445  0.00  0.00    +0.270 A 
ATOM     28  N   LIG    1        4.988  -3.513   4.722  0.00  0.00    -0.490 NA
ATOM     29  C   LIG    1        5.697  -2.698   5.481  0.00  0.00    +0.250 A 
ATOM     30  C   LIG    1        6.884  -3.181   5.855  0.00  0.00    -0.100 A 
ATOM     31  S   LIG    1        7.058  -4.795   5.170  0.00  0.00    +0.210 S 
ENDBRANCH  16  27
TORSDOF 5
