REMARK  Name = ZINCqH0000051FrC.0
REMARK                            x       y       z     vdW  Elec       q    Type
REMARK                         _______ _______ _______ _____ _____    ______ ____
ROOT
ATOM      1  N   LIG    1        2.298   3.975  -0.051  0.00  0.00    -0.750 N 
ATOM      2  H   LIG    1        2.247   4.941  -0.119  0.00  0.00    +0.400 HD
ENDROOT
BRANCH   1   8
ATOM      3  C   LIG    1       -0.111   3.843   0.037  0.00  0.00    -0.150 A 
ATOM      4  C   LIG    1       -1.266   3.088   0.070  0.00  0.00    +0.050 A 
ATOM      5  C   LIG    1       -1.192   1.707   0.043  0.00  0.00    -0.050 A 
ATOM      6  C   LIG    1        0.038   1.078  -0.006  0.00  0.00    +0.050 A 
ATOM      7  C   LIG    1        1.198   1.827  -0.039  0.00  0.00    -0.070 A 
ATOM      8  C   LIG    1        1.127   3.214  -0.018  0.00  0.00    +0.230 A 
BRANCH   3  12
ATOM      9  O   LIG    1       -2.527   7.895  -0.857  0.00  0.00    -0.530 OA
ATOM     10  C   LIG    1       -1.872   7.044  -0.294  0.00  0.00    +0.520 C 
ATOM     11  C   LIG    1       -1.216   5.863  -0.976  0.00  0.00    +0.060 C 
ATOM     12  C   LIG    1       -0.192   5.348   0.061  0.00  0.00    +0.040 C 
ATOM     13  C   LIG    1       -0.807   5.847   1.388  0.00  0.00    +0.270 C 
ATOM     14  N   LIG    1       -1.622   7.013   1.027  0.00  0.00    -0.730 N 
ATOM     15  H   LIG    1       -1.940   7.675   1.660  0.00  0.00    +0.410 HD
ENDBRANCH   3  12
ENDBRANCH   1   8
BRANCH   1  16
ATOM     16  C   LIG    1        3.603   3.314   0.019  0.00  0.00    +0.330 C 
BRANCH  16  17
ATOM     17  C   LIG    1        4.695   4.351  -0.035  0.00  0.00    -0.090 A 
ATOM     18  C   LIG    1        5.173   4.910   1.135  0.00  0.00    +0.060 A 
ATOM     19  C   LIG    1        6.177   5.863   1.094  0.00  0.00    -0.040 A 
ATOM     20  C   LIG    1        6.700   6.255  -0.128  0.00  0.00    +0.080 A 
ATOM     21  O   LIG    1        7.690   7.194  -0.183  0.00  0.00    -0.310 OA
ATOM     22  C   LIG    1        7.327   8.451  -0.758  0.00  0.00    +0.230 C 
ATOM     23  C   LIG    1        7.439   8.403  -2.274  0.00  0.00    +0.000 C 
ATOM     24  C   LIG    1        6.451   7.430  -2.897  0.00  0.00    +0.230 C 
ATOM     25  O   LIG    1        6.741   6.089  -2.500  0.00  0.00    -0.310 OA
ATOM     26  C   LIG    1        6.219   5.695  -1.302  0.00  0.00    +0.080 A 
ATOM     27 CL   LIG    1        6.775   6.564   2.565  0.00  0.00    -0.040 Cl
ATOM     28  C   LIG    1        5.220   4.738  -1.256  0.00  0.00    +0.050 A 
ENDBRANCH  16  17
ENDBRANCH   1  16
TORSDOF 4
