REMARK  Name = ZINCqH0000007EG7.0
REMARK                            x       y       z     vdW  Elec       q    Type
REMARK                         _______ _______ _______ _____ _____    ______ ____
ROOT
ATOM      1  C   LIG    1        0.002  -0.004   0.002  0.00  0.00    +0.200 A 
ATOM      2  C   LIG    1        1.213  -0.684  -0.013  0.00  0.00    +0.040 A 
ATOM      3  C   LIG    1        1.228  -2.065  -0.020  0.00  0.00    -0.630 A 
ATOM      4  C   LIG    1        0.040  -2.771  -0.013  0.00  0.00    +0.070 A 
ATOM      5  C   LIG    1       -1.168  -2.097   0.003  0.00  0.00    +0.040 A 
ATOM      6  C   LIG    1       -1.190  -0.717   0.015  0.00  0.00    -0.100 A 
ATOM      7  C   LIG    1       -2.507   0.016   0.038  0.00  0.00    +0.080 C 
ENDROOT
BRANCH   3   8
ATOM      8  S   LIG    1        2.764  -2.928  -0.040  0.00  0.00    +2.690 S 
ATOM      9  O   LIG    1        3.721  -2.032  -0.589  0.00  0.00    -0.960 OA
ATOM     10  O   LIG    1        2.497  -4.211  -0.588  0.00  0.00    -0.950 OA
BRANCH   8  11
ATOM     11  N   LIG    1        3.207  -3.176   1.537  0.00  0.00    -1.000 NA
ATOM     12  C   LIG    1        4.032  -2.189   2.247  0.00  0.00    +0.290 C 
ATOM     13  C   LIG    1        3.317  -1.803   3.551  0.00  0.00    +0.000 C 
ATOM     14  C   LIG    1        3.019  -3.069   4.357  0.00  0.00    +0.010 C 
ATOM     15  C   LIG    1        2.092  -3.982   3.552  0.00  0.00    +0.010 C 
ATOM     16  C   LIG    1        2.788  -4.390   2.250  0.00  0.00    +0.290 C 
ENDBRANCH   8  11
ENDBRANCH   3   8
BRANCH   1  17
ATOM     17  N   LIG    1       -0.017   1.393   0.010  0.00  0.00    -0.740 N 
ATOM     18  H   LIG    1       -0.863   1.866   0.016  0.00  0.00    +0.400 HD
BRANCH  17  19
ATOM     19  C   LIG    1        1.242   2.142   0.002  0.00  0.00    +0.310 C 
BRANCH  19  24
ATOM     20  C   LIG    1        0.550   5.651   1.223  0.00  0.00    +0.130 A 
ATOM     21  C   LIG    1        0.404   6.334   0.025  0.00  0.00    -0.070 A 
ATOM     22  C   LIG    1        0.528   5.659  -1.174  0.00  0.00    +0.050 A 
ATOM     23  C   LIG    1        0.805   4.305  -1.181  0.00  0.00    -0.010 A 
ATOM     24  C   LIG    1        0.946   3.620   0.013  0.00  0.00    -0.070 A 
ATOM     25  C   LIG    1        0.823   4.290   1.214  0.00  0.00    +0.000 A 
BRANCH  20  27
ATOM     26  C   LIG    1        0.148   7.712   2.337  0.00  0.00    +0.250 C 
ATOM     27  O   LIG    1        0.429   6.312   2.404  0.00  0.00    -0.320 OA
ENDBRANCH  20  27
ENDBRANCH  19  24
ENDBRANCH  17  19
ENDBRANCH   1  17
TORSDOF 6
