REMARK  Name = ZINCzw0000000ccz.1
REMARK                            x       y       z     vdW  Elec       q    Type
REMARK                         _______ _______ _______ _____ _____    ______ ____
ROOT
ATOM      1  C   LIG    1       -0.096   8.148  -0.168  0.00  0.00    +0.100 C 
ENDROOT
BRANCH   1   2
ATOM      2  C   LIG    1       -0.864   9.444  -0.202  0.00  0.00    +0.540 C 
ATOM      3  N   LIG    1       -0.236  10.607   0.062  0.00  0.00    -0.740 N 
ATOM      4  H   LIG    1        0.711  10.610   0.274  0.00  0.00    +0.410 HD
ATOM      5  O   LIG    1       -2.048   9.441  -0.466  0.00  0.00    -0.490 OA
BRANCH   3   6
ATOM      6  C   LIG    1       -0.983  11.867   0.029  0.00  0.00    +0.320 C 
BRANCH   6   7
ATOM      7  C   LIG    1       -0.013  13.039   0.197  0.00  0.00    +0.050 C 
ATOM      8  C   LIG    1        0.875  12.795   1.419  0.00  0.00    +0.040 C 
ATOM      9  C   LIG    1        0.001  12.672   2.669  0.00  0.00    +0.050 C 
ATOM     10  C   LIG    1       -0.792  13.966   2.865  0.00  0.00    +0.020 C 
ATOM     11  C   LIG    1       -1.680  14.210   1.644  0.00  0.00    +0.050 C 
ATOM     12  C   LIG    1       -0.806  14.332   0.394  0.00  0.00    +0.060 C 
BRANCH   7  13
ATOM     13  N   LIG    1        0.826  13.156  -1.003  0.00  0.00    -0.380 N 
ATOM     14  C   LIG    1       -0.025  13.412  -2.173  0.00  0.00    +0.230 C 
ATOM     15  C   LIG    1        0.851  13.534  -3.422  0.00  0.00    +0.260 C 
ATOM     16  O   LIG    1        1.616  12.335  -3.580  0.00  0.00    -0.350 OA
ATOM     17  C   LIG    1        2.444  12.030  -2.455  0.00  0.00    +0.260 C 
ATOM     18  C   LIG    1        1.571  11.905  -1.204  0.00  0.00    +0.210 C 
ATOM     19  H   LIG    1        1.476  13.919  -0.886  0.00  0.00    +0.420 HD
ENDBRANCH   7  13
ENDBRANCH   6   7
ENDBRANCH   3   6
ENDBRANCH   1   2
BRANCH   1  20
ATOM     20  S   LIG    1       -1.212   6.774  -0.563  0.00  0.00    +0.110 S 
BRANCH  20  30
ATOM     21  N   LIG    1        0.520   1.903  -0.694  0.00  0.00    -0.510 N 
ATOM     22  C   LIG    1       -0.638   1.292  -1.016  0.00  0.00    +0.570 A 
ATOM     23  C   LIG    1       -1.847   2.114  -1.205  0.00  0.00    -0.160 A 
ATOM     24  C   LIG    1       -3.069   1.535  -1.544  0.00  0.00    +0.140 A 
ATOM     25  C   LIG    1       -4.179   2.337  -1.711  0.00  0.00    +0.030 A 
ATOM     26  C   LIG    1       -4.083   3.709  -1.544  0.00  0.00    +0.100 A 
ATOM     27  C   LIG    1       -2.880   4.293  -1.199  0.00  0.00    +0.000 A 
ATOM     28  C   LIG    1       -1.753   3.503  -1.031  0.00  0.00    +0.160 A 
ATOM     29  N   LIG    1       -0.524   4.067  -0.697  0.00  0.00    -0.440 N 
ATOM     30  C   LIG    1       -0.154   5.367  -0.476  0.00  0.00    +0.190 A 
ATOM     31  N   LIG    1        1.125   5.381  -0.190  0.00  0.00    -0.280 NA
ATOM     32  N   LIG    1        1.592   4.062  -0.226  0.00  0.00    -0.310 NA
ATOM     33  O   LIG    1       -0.682   0.084  -1.155  0.00  0.00    -0.480 OA
ATOM     34  C   LIG    1        0.582   3.279  -0.534  0.00  0.00    +0.470 A 
BRANCH  21  35
ATOM     35  C   LIG    1        1.732   1.100  -0.509  0.00  0.00    +0.320 C 
BRANCH  35  37
ATOM     36  C   LIG    1        3.731   0.131  -1.653  0.00  0.00    +0.030 C 
ATOM     37  C   LIG    1        2.466   0.969  -1.845  0.00  0.00    +0.000 C 
ENDBRANCH  35  37
ENDBRANCH  21  35
ENDBRANCH  20  30
ENDBRANCH   1  20
TORSDOF 8
