REMARK  Name = ZINCqH00000029RW.0
REMARK                            x       y       z     vdW  Elec       q    Type
REMARK                         _______ _______ _______ _____ _____    ______ ____
ROOT
ATOM      1  S   LIG    1       -3.087   6.915   0.447  0.00  0.00    +0.100 S 
ENDROOT
BRANCH   1   5
ATOM      2  C   LIG    1       -1.365   3.061   0.586  0.00  0.00    +0.230 A 
ATOM      3  N   LIG    1       -0.917   3.812  -0.374  0.00  0.00    -0.280 NA
ATOM      4  N   LIG    1       -1.386   4.978  -0.478  0.00  0.00    -0.250 NA
ATOM      5  C   LIG    1       -2.287   5.346   0.386  0.00  0.00    -0.080 A 
ATOM      6  S   LIG    1       -2.570   3.991   1.480  0.00  0.00    +0.240 S 
BRANCH   2   8
ATOM      7  C   LIG    1       -1.419   1.131   1.965  0.00  0.00    +0.510 C 
ATOM      8  N   LIG    1       -0.970   1.754   0.858  0.00  0.00    -0.480 N 
ATOM      9  O   LIG    1       -2.168   1.708   2.725  0.00  0.00    -0.500 OA
BRANCH   8  10
ATOM     10  C   LIG    1       -0.066   1.056  -0.059  0.00  0.00    +0.190 C 
ATOM     11  C   LIG    1        0.106   1.640  -1.463  0.00  0.00    +0.070 C 
ATOM     12  C   LIG    1        1.237   1.761  -0.440  0.00  0.00    +0.040 C 
ENDBRANCH   8  10
BRANCH   7  14
ATOM     13  C   LIG    1       -1.639  -0.751   3.565  0.00  0.00    +0.070 C 
ATOM     14  C   LIG    1       -0.992  -0.284   2.260  0.00  0.00    +0.090 C 
ENDBRANCH   7  14
ENDBRANCH   2   8
ENDBRANCH   1   5
BRANCH   1  15
ATOM     15  C   LIG    1       -2.343   7.807  -0.947  0.00  0.00    +0.110 C 
BRANCH  15  16
ATOM     16  C   LIG    1       -2.934   9.191  -1.030  0.00  0.00    +0.540 C 
ATOM     17  N   LIG    1       -2.528  10.039  -1.995  0.00  0.00    -0.670 N 
ATOM     18  H   LIG    1       -1.921   9.733  -2.687  0.00  0.00    +0.410 HD
ATOM     19  O   LIG    1       -3.774   9.541  -0.229  0.00  0.00    -0.500 OA
BRANCH  17  20
ATOM     20  C   LIG    1       -2.983  11.363  -2.000  0.00  0.00    +0.150 A 
ATOM     21  C   LIG    1       -2.132  12.389  -2.390  0.00  0.00    -0.020 A 
ATOM     22  C   LIG    1       -2.586  13.694  -2.398  0.00  0.00    -0.060 A 
ATOM     23  C   LIG    1       -3.881  13.980  -2.008  0.00  0.00    -0.010 A 
ATOM     24  C   LIG    1       -4.728  12.961  -1.613  0.00  0.00    -0.060 A 
ATOM     25  C   LIG    1       -6.139  13.277  -1.188  0.00  0.00    +0.090 C 
ATOM     26  C   LIG    1       -1.666  14.807  -2.827  0.00  0.00    +0.090 C 
ATOM     27  C   LIG    1       -4.283  11.653  -1.607  0.00  0.00    +0.020 A 
ENDBRANCH  17  20
ENDBRANCH  15  16
ENDBRANCH   1  15
TORSDOF 7
