REMARK  Name = ZINCqH0000005iB4.0
REMARK                            x       y       z     vdW  Elec       q    Type
REMARK                         _______ _______ _______ _____ _____    ______ ____
ROOT
ATOM      1  C   LIG    1        4.572   0.850   0.465  0.00  0.00    -0.000 A 
ATOM      2  C   LIG    1        3.878  -0.301   0.662  0.00  0.00    -0.070 A 
ATOM      3  C   LIG    1        2.496   0.100   0.922  0.00  0.00    -0.130 A 
ATOM      4  C   LIG    1        1.316  -0.596   1.194  0.00  0.00    +0.070 A 
ATOM      5  C   LIG    1        0.153   0.095   1.394  0.00  0.00    +0.000 A 
ATOM      6  C   LIG    1        0.139   1.481   1.329  0.00  0.00    +0.060 A 
ATOM      7  C   LIG    1        1.293   2.186   1.062  0.00  0.00    +0.030 A 
ATOM      8  C   LIG    1        2.487   1.506   0.854  0.00  0.00    +0.070 A 
ATOM      9  O   LIG    1        3.743   1.908   0.580  0.00  0.00    -0.170 OA
ENDROOT
BRANCH   1  12
ATOM     10  C   LIG    1        5.755   3.333  -0.139  0.00  0.00    +0.310 C 
ATOM     11  N   LIG    1        6.567   2.114  -0.153  0.00  0.00    -0.600 N 
ATOM     12  C   LIG    1        6.010   0.930   0.171  0.00  0.00    +0.600 C 
ATOM     13  O   LIG    1        6.698  -0.072   0.219  0.00  0.00    -0.490 OA
BRANCH  11  14
ATOM     14  C   LIG    1        7.984   2.182  -0.517  0.00  0.00    +0.430 C 
BRANCH  14  15
ATOM     15  C   LIG    1        8.129   1.994  -2.006  0.00  0.00    -0.040 A 
ATOM     16  C   LIG    1        8.116   2.973  -2.928  0.00  0.00    -0.040 A 
ATOM     17  C   LIG    1        8.282   2.352  -4.187  0.00  0.00    -0.070 A 
ATOM     18  C   LIG    1        8.387   1.031  -3.959  0.00  0.00    +0.170 A 
ATOM     19  O   LIG    1        8.300   0.820  -2.636  0.00  0.00    -0.160 OA
ENDBRANCH  14  15
ENDBRANCH  11  14
ENDBRANCH   1  12
BRANCH   2  20
ATOM     20  C   LIG    1        4.422  -1.706   0.622  0.00  0.00    +0.170 C 
BRANCH  20  21
ATOM     21  S   LIG    1        4.302  -2.352  -1.069  0.00  0.00    +0.040 S 
BRANCH  21  22
ATOM     22  C   LIG    1        4.973  -3.975  -0.921  0.00  0.00    +0.210 A 
ATOM     23  N   LIG    1        5.436  -4.513   0.182  0.00  0.00    -0.320 NA
ATOM     24  N   LIG    1        5.868  -5.808  -0.148  0.00  0.00    -0.480 N 
ATOM     25  H   LIG    1        6.260  -6.460   0.453  0.00  0.00    +0.440 HD
ATOM     26  C   LIG    1        5.637  -5.962  -1.463  0.00  0.00    +0.500 A 
ATOM     27  N   LIG    1        5.101  -4.858  -1.917  0.00  0.00    -0.520 NA
ENDBRANCH  21  22
ENDBRANCH  20  21
ENDBRANCH   2  20
TORSDOF 6
