REMARK  Name = ZINCfA000001Fn8Q.0
REMARK                            x       y       z     vdW  Elec       q    Type
REMARK                         _______ _______ _______ _____ _____    ______ ____
ROOT
ATOM      1  N   LIG    1        0.979  -2.683   1.358  0.00  0.00    -0.510 N 
ATOM      2  H   LIG    1        0.129  -2.329   1.770  0.00  0.00    +0.430 HD
ATOM      3  H   LIG    1        1.771  -2.368   1.898  0.00  0.00    +0.430 HD
ENDROOT
BRANCH   1   4
ATOM      4  C   LIG    1        0.945  -4.152   1.351  0.00  0.00    +0.270 C 
BRANCH   4   5
ATOM      5  C   LIG    1        0.821  -4.666   2.786  0.00  0.00    +0.070 C 
BRANCH   5  10
ATOM      6 BR   LIG    1        2.532  -8.630   2.673  0.00  0.00    -0.040 Br
ATOM      7  C   LIG    1        1.936  -6.933   3.467  0.00  0.00    -0.100 C 
ATOM      8  C   LIG    1        0.549  -6.904   4.114  0.00  0.00    +0.140 C 
ATOM      9 BR   LIG    1        3.346  -5.842   4.295  0.00  0.00    -0.050 Br
ATOM     10  C   LIG    1        0.786  -6.196   2.778  0.00  0.00    +0.030 C 
ENDBRANCH   5  10
ENDBRANCH   4   5
ENDBRANCH   1   4
BRANCH   1  11
ATOM     11  C   LIG    1        1.098  -2.189  -0.020  0.00  0.00    +0.360 C 
BRANCH  11  12
ATOM     12  C   LIG    1        1.133  -0.682  -0.013  0.00  0.00    +0.040 A 
ATOM     13  C   LIG    1        2.350  -0.027  -0.020  0.00  0.00    +0.010 A 
ATOM     14  C   LIG    1        2.371   1.359  -0.013  0.00  0.00    +0.080 A 
ATOM     15  C   LIG    1        1.162   2.038   0.002  0.00  0.00    +0.020 A 
ATOM     16  C   LIG    1       -0.016   1.314   0.009  0.00  0.00    +0.280 A 
ATOM     17  N   LIG    1        0.002  -0.004   0.002  0.00  0.00    -0.470 NA
ENDBRANCH  11  12
ENDBRANCH   1  11
TORSDOF 5
