REMARK  Name = ZINCvU0000000A3w.0
REMARK                            x       y       z     vdW  Elec       q    Type
REMARK                         _______ _______ _______ _____ _____    ______ ____
ROOT
ATOM      1  C   LIG    1        0.367  -4.056   7.167  0.00  0.00    -0.010 A 
ATOM      2  N   LIG    1        0.426  -5.321   6.885  0.00  0.00    -0.270 NA
ATOM      3  N   LIG    1        0.368  -6.175   7.964  0.00  0.00    -0.340 NA
ATOM      4  C   LIG    1        0.263  -5.606   9.124  0.00  0.00    +0.300 A 
ATOM      5  S   LIG    1        0.235  -3.858   8.911  0.00  0.00    +0.110 S 
ENDROOT
BRANCH   4   6
ATOM      6  N   LIG    1        0.188  -6.270  10.343  0.00  0.00    -0.620 N 
ATOM      7  H   LIG    1        0.195  -5.765  11.171  0.00  0.00    +0.430 HD
BRANCH   6   8
ATOM      8  C   LIG    1        0.102  -7.666  10.375  0.00  0.00    +0.140 A 
ATOM      9  C   LIG    1       -0.510  -8.349   9.331  0.00  0.00    +0.060 A 
ATOM     10  C   LIG    1       -0.589  -9.727   9.361  0.00  0.00    -0.020 A 
ATOM     11  C   LIG    1       -0.068 -10.429  10.438  0.00  0.00    +0.090 A 
ATOM     12  C   LIG    1        0.537  -9.748  11.484  0.00  0.00    +0.050 A 
ATOM     13  C   LIG    1        0.623  -8.370  11.453  0.00  0.00    +0.030 A 
BRANCH  11  14
ATOM     14  O   LIG    1       -0.151 -11.786  10.469  0.00  0.00    -0.310 OA
BRANCH  14  15
ATOM     15  C   LIG    1       -0.788 -12.423   9.360  0.00  0.00    +0.600 C 
ATOM     16  F   LIG    1       -2.107 -11.967   9.255  0.00  0.00    -0.160 F 
ATOM     17  F   LIG    1       -0.787 -13.808   9.553  0.00  0.00    -0.130 F 
ATOM     18  F   LIG    1       -0.094 -12.115   8.185  0.00  0.00    -0.160 F 
ENDBRANCH  14  15
ENDBRANCH  11  14
ENDBRANCH   6   8
ENDBRANCH   4   6
BRANCH   1  19
ATOM     19  S   LIG    1        0.419  -2.745   5.991  0.00  0.00    +0.140 S 
BRANCH  19  20
ATOM     20  C   LIG    1        0.566  -3.620   4.409  0.00  0.00    +0.180 C 
BRANCH  20  28
ATOM     21  C   LIG    1        0.983  -0.177  -2.505  0.00  0.00    +0.160 C 
ATOM     22  C   LIG    1        0.901  -0.765  -1.120  0.00  0.00    -0.200 A 
ATOM     23  C   LIG    1        0.801  -0.054  -0.012  0.00  0.00    -0.030 A 
ATOM     24  C   LIG    1        0.730  -0.836   1.206  0.00  0.00    -0.210 A 
ATOM     25  C   LIG    1        0.788  -2.198   0.960  0.00  0.00    +0.050 A 
ATOM     26  N   LIG    1        0.732  -3.070   2.025  0.00  0.00    -0.580 N 
ATOM     27  H   LIG    1        0.772  -4.026   1.862  0.00  0.00    +0.430 HD
ATOM     28  C   LIG    1        0.622  -2.619   3.284  0.00  0.00    +0.460 A 
ATOM     29  N   LIG    1        0.563  -1.349   3.573  0.00  0.00    -0.570 NA
ATOM     30  C   LIG    1        0.610  -0.409   2.615  0.00  0.00    +0.550 A 
ATOM     31  O   LIG    1        0.553   0.776   2.903  0.00  0.00    -0.470 OA
ATOM     32  C   LIG    1        0.757   1.452  -0.014  0.00  0.00    +0.130 C 
ATOM     33  S   LIG    1        0.930  -2.483  -0.768  0.00  0.00    +0.180 S 
ENDBRANCH  20  28
ENDBRANCH  19  20
ENDBRANCH   1  19
TORSDOF 7
