REMARK  Name = ZINCrH000004jJP2.0
REMARK                            x       y       z     vdW  Elec       q    Type
REMARK                         _______ _______ _______ _____ _____    ______ ____
ROOT
ATOM      1  C   LIG    1       -8.304   4.286   1.013  0.00  0.00    +0.570 C 
ATOM      2  N   LIG    1       -7.554   3.283   0.516  0.00  0.00    -0.610 N 
ATOM      3  C   LIG    1       -7.028   2.233   1.399  0.00  0.00    +0.290 C 
ATOM      4  C   LIG    1       -5.513   2.134   1.200  0.00  0.00    +0.030 C 
ATOM      5  C   LIG    1       -5.211   1.916  -0.285  0.00  0.00    +0.100 C 
ATOM      6  C   LIG    1       -5.728   3.108  -1.093  0.00  0.00    +0.030 C 
ATOM      7  C   LIG    1       -7.246   3.219  -0.919  0.00  0.00    +0.280 C 
ATOM      8  O   LIG    1       -8.615   4.288   2.189  0.00  0.00    -0.530 OA
ENDROOT
BRANCH   5   9
ATOM      9  C   LIG    1       -3.723   1.784  -0.481  0.00  0.00    +0.290 A 
ATOM     10  N   LIG    1       -3.075   0.657  -0.530  0.00  0.00    -0.490 NA
ATOM     11  C   LIG    1       -1.752   0.899  -0.717  0.00  0.00    +0.050 A 
ATOM     12  C   LIG    1       -0.629   0.076  -0.841  0.00  0.00    +0.070 A 
ATOM     13  C   LIG    1        0.604   0.631  -1.032  0.00  0.00    +0.000 A 
ATOM     14  C   LIG    1        0.758   2.008  -1.100  0.00  0.00    +0.030 A 
ATOM     15  C   LIG    1       -0.335   2.840  -0.975  0.00  0.00    +0.010 A 
ATOM     16  C   LIG    1       -1.596   2.294  -0.780  0.00  0.00    +0.050 A 
ATOM     17  N   LIG    1       -2.860   2.826  -0.622  0.00  0.00    -0.600 N 
ATOM     18  H   LIG    1       -3.091   3.768  -0.621  0.00  0.00    +0.420 HD
ENDBRANCH   5   9
BRANCH   1  22
ATOM     19  C   LIG    1       -9.584   7.433  -1.528  0.00  0.00    +0.260 A 
ATOM     20  C   LIG    1       -9.861   6.109  -1.860  0.00  0.00    -0.070 A 
ATOM     21  C   LIG    1       -9.444   5.094  -1.046  0.00  0.00    +0.130 A 
ATOM     22  C   LIG    1       -8.748   5.381   0.132  0.00  0.00    -0.230 A 
ATOM     23  C   LIG    1       -8.468   6.712   0.469  0.00  0.00    +0.200 A 
ATOM     24  F   LIG    1       -7.792   6.996   1.603  0.00  0.00    -0.120 F 
ATOM     25  C   LIG    1       -8.887   7.731  -0.362  0.00  0.00    -0.100 A 
BRANCH  19  27
ATOM     26  C   LIG    1       -9.717   9.853  -2.018  0.00  0.00    +0.290 C 
ATOM     27  N   LIG    1      -10.007   8.460  -2.365  0.00  0.00    -0.620 N 
ATOM     28  C   LIG    1      -10.741   8.148  -3.594  0.00  0.00    +0.290 C 
ENDBRANCH  19  27
ENDBRANCH   1  22
TORSDOF 3
