REMARK  Name = ZINCqH00000380mR.0
REMARK                            x       y       z     vdW  Elec       q    Type
REMARK                         _______ _______ _______ _____ _____    ______ ____
ROOT
ATOM      1  C   LIG    1        2.430   3.942  -0.036  0.00  0.00    +0.570 C 
ATOM      2  N   LIG    1        2.411   5.287  -0.120  0.00  0.00    -0.610 N 
ATOM      3  C   LIG    1        1.137   6.019  -0.120  0.00  0.00    +0.270 C 
ATOM      4  C   LIG    1        1.173   7.056   1.016  0.00  0.00    +0.260 C 
ATOM      5  N   LIG    1        2.427   7.816   0.916  0.00  0.00    -0.620 N 
ATOM      6  C   LIG    1        3.701   7.084   0.910  0.00  0.00    +0.310 C 
ATOM      7  C   LIG    1        2.408   9.161   0.832  0.00  0.00    +0.710 C 
ATOM      8  N   LIG    1        1.242   9.827   0.942  0.00  0.00    -0.690 N 
ATOM      9  H   LIG    1        0.408   9.337   1.017  0.00  0.00    +0.410 HD
ATOM     10  O   LIG    1        3.444   9.773   0.655  0.00  0.00    -0.560 OA
ATOM     11  C   LIG    1        3.665   6.048  -0.220  0.00  0.00    +0.290 C 
ATOM     12  O   LIG    1        3.489   3.354   0.065  0.00  0.00    -0.520 OA
ENDROOT
BRANCH   1  17
ATOM     13  C   LIG    1       -2.499   0.971  -0.164  0.00  0.00    +0.110 C 
ATOM     14  C   LIG    1       -1.210   1.751  -0.129  0.00  0.00    -0.090 A 
ATOM     15  C   LIG    1       -0.221   1.407   0.774  0.00  0.00    +0.050 A 
ATOM     16  C   LIG    1        0.964   2.113   0.808  0.00  0.00    +0.070 A 
ATOM     17  C   LIG    1        1.162   3.182  -0.068  0.00  0.00    -0.110 A 
ATOM     18  C   LIG    1        0.159   3.530  -0.973  0.00  0.00    +0.020 A 
ATOM     19  C   LIG    1       -1.024   2.815  -0.997  0.00  0.00    +0.090 A 
ATOM     20  F   LIG    1       -1.997   3.150  -1.873  0.00  0.00    -0.130 F 
ENDBRANCH   1  17
BRANCH   8  21
ATOM     21  C   LIG    1        1.233  11.227   0.948  0.00  0.00    +0.170 A 
ATOM     22  C   LIG    1        2.142  11.931   0.170  0.00  0.00    +0.040 A 
ATOM     23  C   LIG    1        2.131  13.313   0.177  0.00  0.00    +0.050 A 
ATOM     24  C   LIG    1        1.217  13.994   0.959  0.00  0.00    +0.020 A 
ATOM     25  C   LIG    1        0.310  13.295   1.736  0.00  0.00    -0.020 A 
ATOM     26 CL   LIG    1       -0.837  14.155   2.716  0.00  0.00    -0.060 Cl
ATOM     27  C   LIG    1        0.312  11.913   1.728  0.00  0.00    +0.000 A 
ENDBRANCH   8  21
TORSDOF 2
