REMARK  Name = ZINCtj00000mi0pO.0
REMARK                            x       y       z     vdW  Elec       q    Type
REMARK                         _______ _______ _______ _____ _____    ______ ____
ROOT
ATOM      1  C   LIG    1        3.546   0.900  -8.313  0.00  0.00    +0.010 A 
ATOM      2  C   LIG    1        4.270   1.585  -7.329  0.00  0.00    +0.130 A 
ATOM      3  C   LIG    1        3.630   1.881  -6.140  0.00  0.00    +0.030 A 
ATOM      4  C   LIG    1        2.304   1.471  -5.988  0.00  0.00    +0.260 A 
ATOM      5  N   LIG    1        1.694   0.825  -6.976  0.00  0.00    -0.270 NA
ATOM      6  N   LIG    1        2.284   0.553  -8.082  0.00  0.00    -0.180 NA
ENDROOT
BRANCH   4   7
ATOM      7  N   LIG    1        1.625   1.742  -4.812  0.00  0.00    -0.470 N 
ATOM      8  C   LIG    1        0.250   1.230  -4.869  0.00  0.00    +0.220 C 
ATOM      9  C   LIG    1       -0.513   1.672  -3.618  0.00  0.00    +0.060 C 
ATOM     10  C   LIG    1        0.201   1.134  -2.374  0.00  0.00    +0.110 C 
ATOM     11  C   LIG    1        1.645   1.642  -2.364  0.00  0.00    +0.030 C 
ATOM     12  C   LIG    1        2.345   1.202  -3.652  0.00  0.00    +0.210 C 
BRANCH  10  13
ATOM     13  O   LIG    1        0.197  -0.294  -2.402  0.00  0.00    -0.550 OA
ATOM     14  H   LIG    1        0.639  -0.674  -3.173  0.00  0.00    +0.400 HD
ENDBRANCH  10  13
BRANCH  10  15
ATOM     15  C   LIG    1       -0.522   1.624  -1.118  0.00  0.00    +0.300 C 
BRANCH  15  16
ATOM     16  N   LIG    1        0.266   1.270   0.070  0.00  0.00    -0.380 N 
ATOM     17  C   LIG    1        0.466  -0.185   0.110  0.00  0.00    +0.250 C 
ATOM     18  C   LIG    1        1.288  -0.551   1.348  0.00  0.00    +0.250 C 
ATOM     19  O   LIG    1        0.612  -0.082   2.518  0.00  0.00    -0.360 OA
ATOM     20  C   LIG    1        0.372   1.328   2.515  0.00  0.00    +0.260 C 
ATOM     21  C   LIG    1       -0.451   1.698   1.279  0.00  0.00    +0.230 C 
ATOM     22  H   LIG    1        1.162   1.732   0.029  0.00  0.00    +0.420 HD
ENDBRANCH  15  16
ENDBRANCH  10  15
ENDBRANCH   4   7
BRANCH   1  24
ATOM     23  O   LIG    1        5.337   0.882  -9.813  0.00  0.00    -0.500 OA
ATOM     24  C   LIG    1        4.183   0.564  -9.604  0.00  0.00    +0.580 C 
ATOM     25  N   LIG    1        3.483  -0.096 -10.549  0.00  0.00    -0.650 N 
ATOM     26  H   LIG    1        2.543  -0.287 -10.411  0.00  0.00    +0.420 HD
BRANCH  25  27
ATOM     27  C   LIG    1        4.115  -0.504 -11.728  0.00  0.00    +0.140 A 
ATOM     28  C   LIG    1        3.408  -0.529 -12.923  0.00  0.00    -0.010 A 
ATOM     29  C   LIG    1        4.036  -0.927 -14.087  0.00  0.00    +0.030 A 
ATOM     30  C   LIG    1        5.364  -1.312 -14.061  0.00  0.00    +0.000 A 
ATOM     31  C   LIG    1        6.069  -1.294 -12.872  0.00  0.00    +0.030 A 
ATOM     32  C   LIG    1        5.448  -0.891 -11.705  0.00  0.00    +0.010 A 
ENDBRANCH  25  27
ENDBRANCH   1  24
TORSDOF 6
