REMARK  Name = ZINCvU00000005gG.0
REMARK                            x       y       z     vdW  Elec       q    Type
REMARK                         _______ _______ _______ _____ _____    ______ ____
ROOT
ATOM      1  C   LIG    1        4.371  -1.153   3.269  0.00  0.00    +0.010 A 
ATOM      2  C   LIG    1        5.770  -1.052   3.375  0.00  0.00    -0.200 A 
ATOM      3  C   LIG    1        6.348  -0.780   4.625  0.00  0.00    +0.300 A 
ATOM      4  O   LIG    1        7.683  -0.739   4.444  0.00  0.00    -0.070 OA
ATOM      5  N   LIG    1        7.985  -0.982   3.085  0.00  0.00    -0.260 NA
ATOM      6  N   LIG    1        5.577  -0.620   5.691  0.00  0.00    -0.460 NA
ATOM      7  C   LIG    1        4.265  -0.708   5.623  0.00  0.00    +0.240 A 
ATOM      8  C   LIG    1        6.877  -1.173   2.417  0.00  0.00    +0.200 A 
ATOM      9  C   LIG    1        3.616  -0.969   4.428  0.00  0.00    -0.020 A 
ENDROOT
BRANCH   8  10
ATOM     10  C   LIG    1        6.761  -1.458   0.967  0.00  0.00    +0.000 A 
ATOM     11  C   LIG    1        6.956  -2.753   0.490  0.00  0.00    +0.040 A 
ATOM     12  C   LIG    1        6.841  -3.013  -0.860  0.00  0.00    +0.010 A 
ATOM     13  C   LIG    1        6.544  -1.989  -1.742  0.00  0.00    +0.010 A 
ATOM     14  C   LIG    1        6.355  -0.701  -1.275  0.00  0.00    +0.010 A 
ATOM     15  C   LIG    1        6.461  -0.430   0.074  0.00  0.00    +0.040 A 
ENDBRANCH   8  10
BRANCH   1  18
ATOM     16  N   LIG    1        2.378  -1.407   1.867  0.00  0.00    -0.710 N 
ATOM     17  H   LIG    1        1.837  -1.197   2.644  0.00  0.00    +0.400 HD
ATOM     18  C   LIG    1        3.721  -1.438   1.970  0.00  0.00    +0.550 C 
ATOM     19  O   LIG    1        4.399  -1.701   0.996  0.00  0.00    -0.490 OA
BRANCH  16  20
ATOM     20  C   LIG    1        1.735  -1.689   0.582  0.00  0.00    +0.340 C 
BRANCH  20  26
ATOM     21  C   LIG    1       -0.378  -0.347   0.732  0.00  0.00    +0.150 A 
ATOM     22  C   LIG    1       -1.755  -0.258   0.874  0.00  0.00    -0.080 A 
ATOM     23  C   LIG    1       -2.509  -1.407   1.019  0.00  0.00    +0.060 A 
ATOM     24  C   LIG    1       -1.892  -2.644   1.017  0.00  0.00    -0.030 A 
ATOM     25  C   LIG    1       -0.519  -2.735   0.881  0.00  0.00    +0.070 A 
ATOM     26  C   LIG    1        0.239  -1.590   0.736  0.00  0.00    -0.150 A 
BRANCH  21  27
ATOM     27  O   LIG    1        0.366   0.782   0.590  0.00  0.00    -0.310 OA
BRANCH  27  29
ATOM     28  C   LIG    1        0.660   3.175   0.425  0.00  0.00    +0.070 C 
ATOM     29  C   LIG    1       -0.337   2.026   0.595  0.00  0.00    +0.170 C 
ENDBRANCH  27  29
ENDBRANCH  21  27
ENDBRANCH  20  26
ENDBRANCH  16  20
ENDBRANCH   1  18
BRANCH   7  30
ATOM     30  C   LIG    1        3.450  -0.515   6.876  0.00  0.00    +0.010 C 
ATOM     31  C   LIG    1        1.953  -0.245   6.710  0.00  0.00    +0.040 C 
ATOM     32  C   LIG    1        2.891   0.883   7.146  0.00  0.00    +0.060 C 
ENDBRANCH   7  30
TORSDOF 7
