REMARK  Name = ZINCpk00000xI0dp.0
REMARK                            x       y       z     vdW  Elec       q    Type
REMARK                         _______ _______ _______ _____ _____    ______ ____
ROOT
ATOM      1  C   LIG    1       -0.718   1.572   1.248  0.00  0.00    +0.520 C 
ATOM      2  N   LIG    1       -0.242   1.246   2.466  0.00  0.00    -0.600 N 
ATOM      3  C   LIG    1        0.964   0.418   2.601  0.00  0.00    +0.260 C 
ATOM      4  C   LIG    1        1.966   1.148   3.501  0.00  0.00    +0.030 C 
ATOM      5  C   LIG    1        1.291   1.497   4.830  0.00  0.00    +0.060 C 
ATOM      6  C   LIG    1        0.104   2.428   4.572  0.00  0.00    +0.110 C 
ATOM      7  C   LIG    1       -0.915   1.717   3.684  0.00  0.00    +0.270 C 
ATOM      8  O   LIG    1       -1.714   2.256   1.150  0.00  0.00    -0.530 OA
ENDROOT
BRANCH   6   9
ATOM      9  O   LIG    1        0.561   3.612   3.915  0.00  0.00    -0.540 OA
ATOM     10  H   LIG    1       -0.139   4.249   3.720  0.00  0.00    +0.390 HD
ENDBRANCH   6   9
BRANCH   1  11
ATOM     11  C   LIG    1       -0.013   1.086   0.008  0.00  0.00    +0.080 C 
BRANCH  11  12
ATOM     12  C   LIG    1       -0.753   1.593  -1.232  0.00  0.00    +0.220 C 
BRANCH  12  13
ATOM     13  O   LIG    1       -0.084   1.132  -2.407  0.00  0.00    -0.320 OA
BRANCH  13  19
ATOM     14  C   LIG    1        0.087   1.008  -7.284  0.00  0.00    +0.090 C 
ATOM     15  C   LIG    1       -0.562   1.456  -5.999  0.00  0.00    -0.050 A 
ATOM     16  C   LIG    1       -1.701   2.239  -6.037  0.00  0.00    -0.040 A 
ATOM     17  C   LIG    1       -2.300   2.651  -4.861  0.00  0.00    +0.050 A 
ATOM     18  C   LIG    1       -1.763   2.277  -3.644  0.00  0.00    -0.080 A 
ATOM     19  C   LIG    1       -0.617   1.496  -3.603  0.00  0.00    +0.130 A 
ATOM     20  C   LIG    1       -0.018   1.084  -4.785  0.00  0.00    -0.020 A 
ENDBRANCH  13  19
ENDBRANCH  12  13
ENDBRANCH  11  12
ENDBRANCH   1  11
BRANCH   6  21
ATOM     21  C   LIG    1       -0.549   2.803   5.904  0.00  0.00    +0.330 C 
BRANCH  21  22
ATOM     22  N   LIG    1       -1.754   3.597   5.650  0.00  0.00    -0.300 N 
ATOM     23  C   LIG    1       -2.998   3.317   6.104  0.00  0.00    +0.140 A 
ATOM     24  C   LIG    1       -3.800   4.302   5.637  0.00  0.00    +0.140 A 
ATOM     25  N   LIG    1       -3.018   5.126   4.930  0.00  0.00    -0.260 NA
ATOM     26  N   LIG    1       -1.811   4.683   4.962  0.00  0.00    -0.090 NA
ENDBRANCH  21  22
ENDBRANCH   6  21
TORSDOF 7
