REMARK  Name = ZINCvU0000000HHh.0
REMARK                            x       y       z     vdW  Elec       q    Type
REMARK                         _______ _______ _______ _____ _____    ______ ____
ROOT
ATOM      1  C   LIG    1       -5.027   6.245  -1.824  0.00  0.00    -0.070 A 
ATOM      2  C   LIG    1       -5.969   6.849  -1.003  0.00  0.00    -0.050 A 
ATOM      3  C   LIG    1       -5.930   6.569   0.474  0.00  0.00    +0.080 C 
ATOM      4  C   LIG    1       -6.617   7.678   1.267  0.00  0.00    +0.040 C 
ATOM      5  C   LIG    1       -8.039   7.882   0.727  0.00  0.00    +0.090 C 
ATOM      6  C   LIG    1       -7.918   8.371  -0.700  0.00  0.00    -0.090 C 
ATOM      7  C   LIG    1       -8.692   9.377  -1.160  0.00  0.00    +0.100 C 
ATOM      8  C   LIG    1       -6.924   7.713  -1.572  0.00  0.00    +0.180 A 
ATOM      9  N   LIG    1       -6.963   7.953  -2.873  0.00  0.00    -0.420 NA
ATOM     10  C   LIG    1       -6.102   7.406  -3.731  0.00  0.00    +0.130 A 
ATOM     11  C   LIG    1       -6.173   7.682  -5.109  0.00  0.00    +0.060 A 
ATOM     12  C   LIG    1       -5.277   7.109  -5.959  0.00  0.00    +0.020 A 
ATOM     13  C   LIG    1       -4.288   6.250  -5.489  0.00  0.00    +0.030 A 
ATOM     14  C   LIG    1       -4.189   5.960  -4.159  0.00  0.00    +0.010 A 
ATOM     15  C   LIG    1       -5.093   6.530  -3.258  0.00  0.00    -0.060 A 
ENDROOT
BRANCH   7  16
ATOM     16  C   LIG    1       -8.400   9.991  -2.456  0.00  0.00    -0.140 A 
ATOM     17  C   LIG    1       -9.328  10.318  -3.402  0.00  0.00    +0.010 A 
ATOM     18  C   LIG    1       -8.804  10.890  -4.538  0.00  0.00    +0.010 A 
ATOM     19  C   LIG    1       -7.473  11.028  -4.545  0.00  0.00    -0.070 A 
ATOM     20  S   LIG    1       -6.797  10.417  -3.042  0.00  0.00    +0.160 S 
ENDBRANCH   7  16
BRANCH   1  21
ATOM     21  C   LIG    1       -3.996   5.341  -1.270  0.00  0.00    +0.530 C 
ATOM     22  O   LIG    1       -2.926   5.789  -0.909  0.00  0.00    -0.480 OA
BRANCH  21  23
ATOM     23  O   LIG    1       -4.244   4.021  -1.165  0.00  0.00    -0.320 OA
BRANCH  23  24
ATOM     24  C   LIG    1       -3.187   3.194  -0.612  0.00  0.00    +0.260 C 
BRANCH  24  27
ATOM     25  N   LIG    1       -2.819   0.804  -0.093  0.00  0.00    -0.720 N 
ATOM     26  H   LIG    1       -1.934   1.041   0.226  0.00  0.00    +0.400 HD
ATOM     27  C   LIG    1       -3.642   1.758  -0.572  0.00  0.00    +0.520 C 
ATOM     28  O   LIG    1       -4.748   1.461  -0.970  0.00  0.00    -0.510 OA
BRANCH  25  29
ATOM     29  C   LIG    1       -3.261  -0.592  -0.054  0.00  0.00    +0.230 C 
ATOM     30  C   LIG    1       -2.995  -1.250  -1.410  0.00  0.00    +0.020 C 
BRANCH  29  32
ATOM     31  C   LIG    1       -2.853  -0.763   2.405  0.00  0.00    +0.020 C 
ATOM     32  C   LIG    1       -2.491  -1.341   1.035  0.00  0.00    +0.020 C 
ENDBRANCH  29  32
ENDBRANCH  25  29
ENDBRANCH  24  27
ENDBRANCH  23  24
ENDBRANCH  21  23
ENDBRANCH   1  21
TORSDOF 7
