REMARK  Name = ZINCpe000000WC2w.0
REMARK                            x       y       z     vdW  Elec       q    Type
REMARK                         _______ _______ _______ _____ _____    ______ ____
ROOT
ATOM      1  N   LIG    1       -1.145   2.266   0.077  0.00  0.00    -0.480 N 
ATOM      2  C   LIG    1       -1.320   2.954   1.364  0.00  0.00    +0.210 C 
ATOM      3  C   LIG    1       -2.620   3.761   1.335  0.00  0.00    +0.200 C 
ATOM      4  N   LIG    1       -3.748   2.859   1.066  0.00  0.00    -0.520 NA
ATOM      5  C   LIG    1       -3.573   2.171  -0.221  0.00  0.00    +0.190 C 
ATOM      6  C   LIG    1       -2.273   1.363  -0.192  0.00  0.00    +0.200 C 
ENDROOT
BRANCH   1  11
ATOM      7  C   LIG    1        2.450   1.514   0.210  0.00  0.00    +0.100 A 
ATOM      8  C   LIG    1        2.393   0.154  -0.062  0.00  0.00    +0.150 A 
ATOM      9  N   LIG    1        1.237  -0.446  -0.268  0.00  0.00    -0.430 NA
ATOM     10  C   LIG    1        0.095   0.211  -0.226  0.00  0.00    +0.180 A 
ATOM     11  C   LIG    1        0.069   1.575   0.040  0.00  0.00    +0.100 A 
ATOM     12  C   LIG    1        1.268   2.244   0.262  0.00  0.00    +0.000 A 
BRANCH   7  14
ATOM     13  C   LIG    1        4.814   1.304   0.347  0.00  0.00    +0.250 C 
ATOM     14  O   LIG    1        3.646   2.123   0.420  0.00  0.00    -0.310 OA
ENDBRANCH   7  14
ENDBRANCH   1  11
BRANCH   4  15
ATOM     15  C   LIG    1       -5.024   3.586   1.105  0.00  0.00    +0.220 C 
BRANCH  15  16
ATOM     16  C   LIG    1       -6.164   2.600   1.075  0.00  0.00    +0.520 C 
ATOM     17  N   LIG    1       -7.434   3.042   0.977  0.00  0.00    -0.620 N 
ATOM     18  C   LIG    1       -7.732   4.481   0.903  0.00  0.00    +0.250 C 
ATOM     19  C   LIG    1       -8.663   4.716  -0.297  0.00  0.00    +0.190 C 
ATOM     20  O   LIG    1       -9.788   3.840  -0.197  0.00  0.00    -0.370 OA
ATOM     21  C   LIG    1       -9.454   2.451  -0.251  0.00  0.00    +0.140 C 
ATOM     22  C   LIG    1      -10.735   1.615  -0.198  0.00  0.00    +0.070 C 
ATOM     23  C   LIG    1       -7.908   4.433  -1.597  0.00  0.00    +0.010 C 
ATOM     24  C   LIG    1       -8.563   2.099   0.946  0.00  0.00    +0.260 C 
ATOM     25  O   LIG    1       -5.939   1.410   1.140  0.00  0.00    -0.520 OA
ENDBRANCH  15  16
ENDBRANCH   4  15
TORSDOF 4
