REMARK  Name = ZINCqH0000035wnL.0
REMARK                            x       y       z     vdW  Elec       q    Type
REMARK                         _______ _______ _______ _____ _____    ______ ____
ROOT
ATOM      1  N   LIG    1       -1.213  -2.000   0.724  0.00  0.00    -0.710 N 
ATOM      2  H   LIG    1       -0.483  -2.473   0.295  0.00  0.00    +0.410 HD
ATOM      3  C   LIG    1       -2.209  -2.690   1.314  0.00  0.00    +0.560 C 
ATOM      4  O   LIG    1       -3.124  -2.098   1.852  0.00  0.00    -0.530 OA
ENDROOT
BRANCH   3   5
ATOM      5  C   LIG    1       -2.189  -4.172   1.306  0.00  0.00    -0.050 A 
ATOM      6  C   LIG    1       -1.145  -4.873   0.691  0.00  0.00    -0.080 A 
ATOM      7  C   LIG    1       -1.161  -6.253   0.705  0.00  0.00    +0.310 A 
ATOM      8  N   LIG    1       -2.143  -6.915   1.286  0.00  0.00    -0.530 NA
ATOM      9  C   LIG    1       -3.151  -6.295   1.879  0.00  0.00    +0.400 A 
ATOM     10  C   LIG    1       -3.208  -4.905   1.915  0.00  0.00    -0.040 A 
BRANCH   9  11
ATOM     11  N   LIG    1       -4.161  -7.040   2.476  0.00  0.00    -0.710 N 
ATOM     12  H   LIG    1       -4.125  -8.009   2.457  0.00  0.00    +0.410 HD
BRANCH  11  13
ATOM     13  C   LIG    1       -5.280  -6.362   3.135  0.00  0.00    +0.240 C 
ATOM     14  C   LIG    1       -4.926  -6.066   4.607  0.00  0.00    +0.000 C 
ATOM     15  C   LIG    1       -6.256  -6.289   5.370  0.00  0.00    +0.020 C 
ATOM     16  C   LIG    1       -6.868  -7.510   4.640  0.00  0.00    +0.020 C 
ATOM     17  C   LIG    1       -6.514  -7.280   3.156  0.00  0.00    +0.020 C 
ENDBRANCH  11  13
ENDBRANCH   9  11
ENDBRANCH   3   5
BRANCH   1  18
ATOM     18  C   LIG    1       -1.233  -0.535   0.732  0.00  0.00    +0.260 C 
BRANCH  18  19
ATOM     19  C   LIG    1        0.002  -0.004   0.002  0.00  0.00    +0.150 C 
ATOM     20  C   LIG    1       -0.005  -0.506  -1.443  0.00  0.00    +0.080 C 
BRANCH  19  21
ATOM     21  C   LIG    1       -0.018   1.503   0.010  0.00  0.00    -0.110 A 
ATOM     22  C   LIG    1       -1.225   2.178   0.020  0.00  0.00    +0.020 A 
ATOM     23  C   LIG    1       -1.244   3.560   0.032  0.00  0.00    +0.000 A 
ATOM     24  C   LIG    1       -0.056   4.267   0.025  0.00  0.00    +0.010 A 
ATOM     25  C   LIG    1        1.151   3.592   0.010  0.00  0.00    +0.000 A 
ATOM     26  C   LIG    1        1.169   2.210   0.003  0.00  0.00    +0.030 A 
ENDBRANCH  19  21
BRANCH  19  28
ATOM     27  C   LIG    1        1.287  -0.052   2.025  0.00  0.00    +0.200 C 
ATOM     28  O   LIG    1        1.182  -0.468   0.662  0.00  0.00    -0.370 OA
ENDBRANCH  19  28
ENDBRANCH  18  19
ENDBRANCH   1  18
TORSDOF 7
