REMARK  Name = ZINCrD00000hQ4py.0
REMARK                            x       y       z     vdW  Elec       q    Type
REMARK                         _______ _______ _______ _____ _____    ______ ____
ROOT
ATOM      1  C   LIG    1        1.189   5.534   0.021  0.00  0.00    +0.530 C 
ATOM      2  N   LIG    1        0.262   6.512   0.035  0.00  0.00    -0.590 N 
ATOM      3  C   LIG    1       -1.199   6.311   0.043  0.00  0.00    +0.280 C 
ATOM      4  C   LIG    1       -1.772   7.607   0.673  0.00  0.00    +0.040 C 
ATOM      5  C   LIG    1       -0.822   8.683   0.085  0.00  0.00    +0.050 C 
ATOM      6  C   LIG    1        0.539   7.956   0.041  0.00  0.00    +0.280 C 
ATOM      7  O   LIG    1        2.369   5.817   0.011  0.00  0.00    -0.500 OA
ENDROOT
BRANCH   6   8
ATOM      8  C   LIG    1        1.288   8.338  -1.210  0.00  0.00    -0.070 A 
ATOM      9  C   LIG    1        1.194   7.549  -2.340  0.00  0.00    +0.060 A 
ATOM     10  C   LIG    1        1.882   7.901  -3.488  0.00  0.00    -0.030 A 
ATOM     11  C   LIG    1        2.664   9.042  -3.504  0.00  0.00    +0.040 A 
ATOM     12  C   LIG    1        2.758   9.831  -2.373  0.00  0.00    +0.060 A 
ATOM     13 CL   LIG    1        1.764   6.909  -4.908  0.00  0.00    -0.060 Cl
ATOM     14  C   LIG    1        2.065   9.483  -1.227  0.00  0.00    -0.020 A 
ATOM     15 CL   LIG    1        2.177  10.478   0.191  0.00  0.00    -0.050 Cl
ENDBRANCH   6   8
BRANCH   1  17
ATOM     16  O   LIG    1       -0.416   3.820   0.028  0.00  0.00    -0.510 OA
ATOM     17  C   LIG    1        0.765   4.104   0.017  0.00  0.00    +0.510 C 
ATOM     18  N   LIG    1        1.693   3.126   0.003  0.00  0.00    -0.600 N 
ATOM     19  H   LIG    1        2.636   3.352  -0.005  0.00  0.00    +0.430 HD
BRANCH  18  20
ATOM     20  C   LIG    1        1.294   1.780  -0.001  0.00  0.00    -0.000 A 
ATOM     21  C   LIG    1        2.138   0.670  -0.015  0.00  0.00    +0.240 A 
ATOM     22  N   LIG    1        3.470   0.544  -0.028  0.00  0.00    -0.460 NA
ATOM     23  C   LIG    1        4.034  -0.641  -0.039  0.00  0.00    +0.360 A 
ATOM     24  C   LIG    1        3.244  -1.800  -0.038  0.00  0.00    -0.050 A 
ATOM     25  C   LIG    1        1.893  -1.687  -0.025  0.00  0.00    +0.350 A 
ATOM     26  N   LIG    1        1.331  -0.442  -0.013  0.00  0.00    -0.310 N 
ATOM     27  N   LIG    1        0.002  -0.004   0.002  0.00  0.00    -0.300 NA
ATOM     28  C   LIG    1       -0.016   1.310   0.009  0.00  0.00    +0.320 A 
ENDBRANCH  18  20
ENDBRANCH   1  17
TORSDOF 3
