REMARK  Name = ZINCvU0000000AYd.0
REMARK                            x       y       z     vdW  Elec       q    Type
REMARK                         _______ _______ _______ _____ _____    ______ ____
ROOT
ATOM      1  C   LIG    1        3.955   6.197   0.949  0.00  0.00    -0.140 C 
ATOM      2  C   LIG    1        3.700   7.230   0.074  0.00  0.00    +0.260 C 
ENDROOT
BRANCH   2   3
ATOM      3  C   LIG    1        2.507   8.061   0.249  0.00  0.00    -0.140 A 
ATOM      4  C   LIG    1        2.595   9.454   0.117  0.00  0.00    +0.120 A 
ATOM      5  C   LIG    1        1.471  10.230   0.283  0.00  0.00    -0.080 A 
ATOM      6  C   LIG    1        0.249   9.636   0.580  0.00  0.00    +0.190 A 
ATOM      7  C   LIG    1        0.156   8.253   0.712  0.00  0.00    -0.140 A 
ATOM      8 BR   LIG    1       -1.510   7.454   1.117  0.00  0.00    -0.030 Br
ATOM      9  C   LIG    1        1.272   7.466   0.544  0.00  0.00    +0.170 A 
BRANCH   6  10
ATOM     10  O   LIG    1       -0.856  10.406   0.742  0.00  0.00    -0.290 OA
BRANCH  10  11
ATOM     11  C   LIG    1       -0.690  11.818   0.592  0.00  0.00    +0.260 C 
BRANCH  11  12
ATOM     12  C   LIG    1       -2.015  12.504   0.805  0.00  0.00    -0.100 A 
ATOM     13  C   LIG    1       -2.858  12.728  -0.267  0.00  0.00    +0.030 A 
ATOM     14  C   LIG    1       -4.075  13.354  -0.071  0.00  0.00    +0.010 A 
ATOM     15  C   LIG    1       -4.444  13.765   1.196  0.00  0.00    +0.020 A 
ATOM     16  C   LIG    1       -3.599  13.545   2.268  0.00  0.00    +0.010 A 
ATOM     17  C   LIG    1       -2.384  12.915   2.072  0.00  0.00    +0.030 A 
ENDBRANCH  11  12
ENDBRANCH  10  11
ENDBRANCH   6  10
ENDBRANCH   2   3
BRANCH   1  18
ATOM     18  C   LIG    1        3.175   6.075   2.190  0.00  0.00    +0.570 C 
ATOM     19  N   LIG    1        3.333   4.997   2.983  0.00  0.00    -0.660 N 
ATOM     20  H   LIG    1        4.006   4.332   2.768  0.00  0.00    +0.430 HD
ATOM     21  O   LIG    1        2.386   6.948   2.501  0.00  0.00    -0.490 OA
BRANCH  19  22
ATOM     22  C   LIG    1        2.527   4.836   4.114  0.00  0.00    +0.220 A 
ATOM     23  C   LIG    1        2.013   5.949   4.766  0.00  0.00    +0.040 A 
ATOM     24  C   LIG    1        1.217   5.787   5.883  0.00  0.00    +0.110 A 
ATOM     25  C   LIG    1        0.928   4.518   6.350  0.00  0.00    +0.020 A 
ATOM     26  C   LIG    1        1.443   3.407   5.706  0.00  0.00    +0.130 A 
ATOM     27  C   LIG    1        2.239   3.562   4.588  0.00  0.00    -0.080 A 
BRANCH  27  28
ATOM     28  N   LIG    1        2.785   2.373   3.896  0.00  0.00    +0.040 N 
ATOM     29  O   LIG    1        3.392   2.503   2.848  0.00  0.00    -0.190 OA
ATOM     30  O   LIG    1        2.627   1.264   4.375  0.00  0.00    -0.140 OA
ENDBRANCH  27  28
ENDBRANCH  19  22
ENDBRANCH   1  18
BRANCH   1  32
ATOM     31  N   LIG    1        5.793   4.484   0.415  0.00  0.00    -0.380 NA
ATOM     32  C   LIG    1        4.980   5.242   0.651  0.00  0.00    +0.230 C 
ENDBRANCH   1  32
TORSDOF 8
