REMARK  Name = ZINCrH000004jN87.0
REMARK                            x       y       z     vdW  Elec       q    Type
REMARK                         _______ _______ _______ _____ _____    ______ ____
ROOT
ATOM      1  C   LIG    1       -7.896   3.405   0.657  0.00  0.00    +0.300 C 
ATOM      2  N   LIG    1       -7.019   2.302   1.054  0.00  0.00    -0.590 N 
ATOM      3  C   LIG    1       -5.726   2.297   0.671  0.00  0.00    +0.570 C 
ATOM      4  O   LIG    1       -5.019   1.343   0.929  0.00  0.00    -0.520 OA
ENDROOT
BRANCH   3   5
ATOM      5  C   LIG    1       -5.170   3.451  -0.060  0.00  0.00    -0.090 A 
ATOM      6  C   LIG    1       -5.918   4.064  -1.069  0.00  0.00    +0.050 A 
ATOM      7  C   LIG    1       -5.395   5.142  -1.749  0.00  0.00    +0.090 A 
ATOM      8  C   LIG    1       -4.129   5.618  -1.434  0.00  0.00    -0.120 A 
ATOM      9  S   LIG    1       -3.463   7.001  -2.305  0.00  0.00    -0.070 S 
ATOM     10  C   LIG    1       -2.409   7.766  -1.037  0.00  0.00    +0.150 C 
ATOM     11  C   LIG    1       -1.620   6.691  -0.343  0.00  0.00    +0.520 C 
ATOM     12  N   LIG    1       -2.095   5.471  -0.101  0.00  0.00    -0.660 N 
ATOM     13  H   LIG    1       -1.501   4.846   0.343  0.00  0.00    +0.420 HD
ATOM     14  O   LIG    1       -0.491   6.949   0.016  0.00  0.00    -0.510 OA
ATOM     15  C   LIG    1       -3.367   5.010  -0.433  0.00  0.00    +0.160 A 
ATOM     16  C   LIG    1       -3.896   3.929   0.256  0.00  0.00    +0.060 A 
ENDBRANCH   3   5
BRANCH   2  17
ATOM     17  C   LIG    1       -7.545   1.203   1.867  0.00  0.00    +0.340 C 
BRANCH  17  18
ATOM     18  C   LIG    1       -7.374   1.531   3.328  0.00  0.00    +0.480 C 
ATOM     19  N   LIG    1       -7.790   0.660   4.268  0.00  0.00    -0.670 N 
ATOM     20  H   LIG    1       -8.250  -0.153   4.006  0.00  0.00    +0.420 HD
ATOM     21  O   LIG    1       -6.862   2.580   3.657  0.00  0.00    -0.480 OA
BRANCH  19  22
ATOM     22  C   LIG    1       -7.556   0.927   5.622  0.00  0.00    +0.160 A 
ATOM     23  C   LIG    1       -6.330   1.438   6.030  0.00  0.00    -0.030 A 
ATOM     24  C   LIG    1       -6.105   1.704   7.367  0.00  0.00    +0.050 A 
ATOM     25  C   LIG    1       -7.094   1.454   8.300  0.00  0.00    +0.040 A 
ATOM     26  C   LIG    1       -8.314   0.940   7.899  0.00  0.00    +0.050 A 
ATOM     27 CL   LIG    1       -5.085   1.746   4.861  0.00  0.00    -0.020 Cl
ATOM     28  C   LIG    1       -8.548   0.676   6.562  0.00  0.00    -0.050 A 
ATOM     29 CL   LIG    1      -10.079   0.032   6.059  0.00  0.00    -0.050 Cl
ENDBRANCH  19  22
ENDBRANCH  17  18
ENDBRANCH   2  17
TORSDOF 4
