REMARK  Name = ZINCrH000004u8jx.0
REMARK                            x       y       z     vdW  Elec       q    Type
REMARK                         _______ _______ _______ _____ _____    ______ ____
ROOT
ATOM      1  C   LIG    1       -1.337   2.845   0.509  0.00  0.00    -0.150 A 
ATOM      2  C   LIG    1       -1.241   1.467   0.723  0.00  0.00    +0.070 A 
ATOM      3  C   LIG    1       -0.016   0.844   0.644  0.00  0.00    -0.010 A 
ATOM      4  C   LIG    1        1.124   1.582   0.341  0.00  0.00    +0.180 A 
ATOM      5  C   LIG    1        1.030   2.953   0.120  0.00  0.00    +0.010 A 
ATOM      6  C   LIG    1       -0.190   3.583   0.203  0.00  0.00    +0.110 A 
ENDROOT
BRANCH   1   8
ATOM      7  O   LIG    1       -2.731   4.716   0.406  0.00  0.00    -0.520 OA
ATOM      8  C   LIG    1       -2.648   3.518   0.598  0.00  0.00    +0.570 C 
ATOM      9  N   LIG    1       -3.753   2.805   0.893  0.00  0.00    -0.730 N 
ATOM     10  H   LIG    1       -3.687   1.849   1.046  0.00  0.00    +0.410 HD
BRANCH   9  11
ATOM     11  C   LIG    1       -5.053   3.473   0.982  0.00  0.00    +0.320 C 
BRANCH  11  12
ATOM     12  C   LIG    1       -6.132   2.444   1.326  0.00  0.00    +0.450 C 
ATOM     13  F   LIG    1       -6.178   1.464   0.329  0.00  0.00    -0.180 F 
ATOM     14  F   LIG    1       -7.375   3.082   1.411  0.00  0.00    -0.170 F 
ATOM     15  F   LIG    1       -5.831   1.845   2.554  0.00  0.00    -0.180 F 
ENDBRANCH  11  12
ENDBRANCH   9  11
ENDBRANCH   1   8
BRANCH   4  16
ATOM     16  N   LIG    1        2.361   0.947   0.256  0.00  0.00    -0.660 N 
ATOM     17  H   LIG    1        2.417   0.036  -0.073  0.00  0.00    +0.410 HD
ATOM     18  C   LIG    1        3.480   1.597   0.632  0.00  0.00    +0.550 C 
ATOM     19  O   LIG    1        3.401   2.702   1.134  0.00  0.00    -0.470 OA
BRANCH  18  20
ATOM     20  C   LIG    1        4.802   0.969   0.433  0.00  0.00    -0.090 A 
ATOM     21  C   LIG    1        4.908  -0.235  -0.266  0.00  0.00    +0.100 A 
ATOM     22  C   LIG    1        6.146  -0.813  -0.454  0.00  0.00    +0.090 A 
ATOM     23  C   LIG    1        7.281  -0.209   0.060  0.00  0.00    -0.010 A 
ATOM     24  C   LIG    1        7.181   0.983   0.759  0.00  0.00    +0.110 A 
ATOM     25 CL   LIG    1        8.835  -0.947  -0.174  0.00  0.00    -0.020 Cl
ATOM     26  C   LIG    1        5.950   1.574   0.948  0.00  0.00    +0.030 A 
BRANCH  26  27
ATOM     27  N   LIG    1        5.846   2.848   1.695  0.00  0.00    +0.010 N 
ATOM     28  O   LIG    1        5.047   2.954   2.609  0.00  0.00    -0.080 OA
ATOM     29  O   LIG    1        6.559   3.789   1.397  0.00  0.00    -0.160 OA
ENDBRANCH  26  27
ENDBRANCH  18  20
ENDBRANCH   4  16
TORSDOF 6
