REMARK  Name = ZINCqH0000007RXg.0
REMARK                            x       y       z     vdW  Elec       q    Type
REMARK                         _______ _______ _______ _____ _____    ______ ____
ROOT
ATOM      1  N   LIG    1        1.144   2.317  -0.499  0.00  0.00    -0.710 N 
ATOM      2  H   LIG    1        1.730   2.348  -1.271  0.00  0.00    +0.410 HD
ATOM      3  C   LIG    1        0.158   3.227  -0.365  0.00  0.00    +0.550 C 
ATOM      4  O   LIG    1       -0.577   3.189   0.602  0.00  0.00    -0.530 OA
ENDROOT
BRANCH   3   5
ATOM      5  C   LIG    1       -0.030   4.270  -1.396  0.00  0.00    -0.100 A 
ATOM      6  C   LIG    1        0.815   4.319  -2.505  0.00  0.00    +0.050 A 
ATOM      7  C   LIG    1        0.631   5.293  -3.466  0.00  0.00    +0.060 A 
ATOM      8  C   LIG    1       -0.382   6.224  -3.326  0.00  0.00    -0.160 A 
ATOM      9  C   LIG    1       -1.220   6.184  -2.226  0.00  0.00    +0.060 A 
ATOM     10  C   LIG    1       -1.051   5.213  -1.261  0.00  0.00    +0.090 A 
BRANCH   8  11
ATOM     11  C   LIG    1       -0.573   7.288  -4.376  0.00  0.00    +0.510 C 
ATOM     12  F   LIG    1       -1.925   7.643  -4.439  0.00  0.00    -0.170 F 
ATOM     13  F   LIG    1       -0.162   6.795  -5.619  0.00  0.00    -0.170 F 
ATOM     14  F   LIG    1        0.190   8.413  -4.045  0.00  0.00    -0.170 F 
ENDBRANCH   8  11
ENDBRANCH   3   5
BRANCH   1  15
ATOM     15  C   LIG    1        1.334   1.287   0.525  0.00  0.00    +0.290 C 
BRANCH  15  16
ATOM     16  C   LIG    1        2.449   0.335   0.090  0.00  0.00    +0.190 C 
BRANCH  16  22
ATOM     17  C   LIG    1        4.509   1.207   1.224  0.00  0.00    +0.130 A 
ATOM     18  C   LIG    1        5.716   1.889   1.195  0.00  0.00    -0.080 A 
ATOM     19  C   LIG    1        6.171   2.437   0.011  0.00  0.00    +0.040 A 
ATOM     20  C   LIG    1        5.424   2.305  -1.145  0.00  0.00    -0.030 A 
ATOM     21  C   LIG    1        4.223   1.621  -1.120  0.00  0.00    +0.070 A 
ATOM     22  C   LIG    1        3.761   1.076   0.062  0.00  0.00    -0.120 A 
BRANCH  17  24
ATOM     23  C   LIG    1        4.881   0.841   3.543  0.00  0.00    +0.250 C 
ATOM     24  O   LIG    1        4.059   0.667   2.387  0.00  0.00    -0.320 OA
ENDBRANCH  17  24
ENDBRANCH  16  22
BRANCH  16  25
ATOM     25  N   LIG    1        2.152  -0.185  -1.252  0.00  0.00    -0.540 NA
ATOM     26  C   LIG    1        0.773  -0.684  -1.330  0.00  0.00    +0.190 C 
ATOM     27  C   LIG    1        3.112  -1.229  -1.636  0.00  0.00    +0.190 C 
ENDBRANCH  16  25
ENDBRANCH  15  16
ENDBRANCH   1  15
TORSDOF 7
