REMARK  Name = ZINCrD000000Beqv.0
REMARK                            x       y       z     vdW  Elec       q    Type
REMARK                         _______ _______ _______ _____ _____    ______ ____
ROOT
ATOM      1  O   LIG    1       -1.115   5.932   0.045  0.00  0.00    -0.530 OA
ATOM      2  C   LIG    1       -0.058   5.331   0.032  0.00  0.00    +0.560 C 
ATOM      3  N   LIG    1        1.104   6.013   0.025  0.00  0.00    -0.730 N 
ATOM      4  H   LIG    1        1.947   5.534   0.015  0.00  0.00    +0.400 HD
ENDROOT
BRANCH   2   5
ATOM      5  C   LIG    1       -0.048   3.853   0.023  0.00  0.00    -0.130 A 
ATOM      6  C   LIG    1        1.165   3.161   0.008  0.00  0.00    +0.050 A 
ATOM      7  C   LIG    1        1.175   1.781   0.000  0.00  0.00    +0.020 A 
ATOM      8  C   LIG    1       -0.013   1.076   0.008  0.00  0.00    +0.050 A 
ATOM      9  C   LIG    1       -1.231   1.755   0.017  0.00  0.00    -0.060 A 
ATOM     10  C   LIG    1       -1.249   3.146   0.030  0.00  0.00    +0.100 A 
BRANCH   9  11
ATOM     11  C   LIG    1       -2.505   0.995   0.019  0.00  0.00    -0.000 A 
ATOM     12  C   LIG    1       -3.736   1.657   0.034  0.00  0.00    -0.030 A 
ATOM     13  C   LIG    1       -4.897   0.912   0.030  0.00  0.00    +0.270 A 
ATOM     14  N   LIG    1       -4.855  -0.407   0.022  0.00  0.00    -0.490 NA
ATOM     15  C   LIG    1       -3.715  -1.070   0.013  0.00  0.00    +0.260 A 
ATOM     16  C   LIG    1       -2.507  -0.403   0.011  0.00  0.00    -0.030 A 
ENDBRANCH   9  11
ENDBRANCH   2   5
BRANCH   3  17
ATOM     17  C   LIG    1        1.094   7.478   0.034  0.00  0.00    +0.250 C 
BRANCH  17  18
ATOM     18  C   LIG    1        2.533   7.998   0.024  0.00  0.00    +0.130 C 
ATOM     19  C   LIG    1        2.530   9.526   0.158  0.00  0.00    +0.060 C 
ATOM     20  C   LIG    1        3.948  10.034  -0.096  0.00  0.00    +0.090 C 
ATOM     21  C   LIG    1        4.940   9.284   0.754  0.00  0.00    -0.060 A 
ATOM     22  C   LIG    1        6.197   9.847   0.931  0.00  0.00    +0.000 A 
ATOM     23  C   LIG    1        7.152   9.207   1.694  0.00  0.00    +0.000 A 
ATOM     24  C   LIG    1        6.856   7.994   2.287  0.00  0.00    +0.000 A 
ATOM     25  C   LIG    1        5.607   7.433   2.115  0.00  0.00    +0.000 A 
ATOM     26  C   LIG    1        4.644   8.077   1.348  0.00  0.00    -0.080 A 
ATOM     27  C   LIG    1        3.300   7.412   1.207  0.00  0.00    +0.060 C 
BRANCH  18  28
ATOM     28  O   LIG    1        3.171   7.624  -1.198  0.00  0.00    -0.540 OA
ATOM     29  H   LIG    1        3.214   6.669  -1.343  0.00  0.00    +0.370 HD
ENDBRANCH  18  28
ENDBRANCH  17  18
ENDBRANCH   3  17
TORSDOF 5
