REMARK  Name = ZINCtj00000riBVr.1
REMARK                            x       y       z     vdW  Elec       q    Type
REMARK                         _______ _______ _______ _____ _____    ______ ____
ROOT
ATOM      1  C   LIG    1       -0.205   1.927   1.049  0.00  0.00    +0.110 C 
ATOM      2  C   LIG    1       -0.064   3.424   0.763  0.00  0.00    +0.060 C 
ATOM      3  C   LIG    1       -0.940   3.804  -0.433  0.00  0.00    +0.040 C 
ATOM      4  C   LIG    1       -0.473   3.030  -1.669  0.00  0.00    +0.260 C 
ATOM      5  N   LIG    1       -0.470   1.595  -1.355  0.00  0.00    -0.600 N 
ATOM      6  C   LIG    1       -1.132   0.720  -2.138  0.00  0.00    +0.600 C 
ATOM      7  O   LIG    1       -1.060  -0.473  -1.913  0.00  0.00    -0.530 OA
ATOM      8  C   LIG    1        0.267   1.132  -0.172  0.00  0.00    +0.260 C 
ENDROOT
BRANCH   6   9
ATOM      9  C   LIG    1       -1.943   1.208  -3.264  0.00  0.00    -0.220 A 
ATOM     10  C   LIG    1       -1.563   2.088  -4.228  0.00  0.00    +0.280 A 
ATOM     11  O   LIG    1       -2.573   2.289  -5.084  0.00  0.00    -0.180 OA
ATOM     12  C   LIG    1       -3.659   1.565  -4.741  0.00  0.00    +0.070 A 
ATOM     13  C   LIG    1       -4.924   1.433  -5.298  0.00  0.00    +0.010 A 
ATOM     14  C   LIG    1       -5.853   0.593  -4.709  0.00  0.00    +0.140 A 
ATOM     15  C   LIG    1       -5.530  -0.122  -3.560  0.00  0.00    -0.010 A 
ATOM     16  C   LIG    1       -4.278   0.000  -2.997  0.00  0.00    +0.080 A 
ATOM     17  C   LIG    1       -3.336   0.837  -3.586  0.00  0.00    -0.100 A 
BRANCH  14  18
ATOM     18  O   LIG    1       -7.090   0.466  -5.256  0.00  0.00    -0.490 OA
ATOM     19  H   LIG    1       -7.159  -0.240  -5.913  0.00  0.00    +0.400 HD
ENDBRANCH  14  18
ENDBRANCH   6   9
BRANCH   1  20
ATOM     20  O   LIG    1       -1.575   1.622   1.316  0.00  0.00    -0.530 OA
ATOM     21  H   LIG    1       -1.741   0.688   1.503  0.00  0.00    +0.370 HD
ENDBRANCH   1  20
BRANCH   1  22
ATOM     22  C   LIG    1        0.648   1.553   2.263  0.00  0.00    +0.280 C 
BRANCH  22  24
ATOM     23  C   LIG    1        1.291  -0.459   3.477  0.00  0.00    +0.510 C 
ATOM     24  N   LIG    1        0.608   0.102   2.460  0.00  0.00    -0.710 N 
ATOM     25  H   LIG    1        0.089  -0.455   1.858  0.00  0.00    +0.410 HD
ATOM     26  O   LIG    1        1.939   0.237   4.230  0.00  0.00    -0.520 OA
BRANCH  23  32
ATOM     27  C   LIG    1        1.238  -2.986   5.853  0.00  0.00    +0.320 C 
ATOM     28  N   LIG    1        2.075  -2.324   4.843  0.00  0.00    -0.380 N 
ATOM     29  C   LIG    1        3.135  -3.249   4.391  0.00  0.00    +0.270 C 
ATOM     30  C   LIG    1        3.309  -2.946   2.882  0.00  0.00    +0.080 C 
ATOM     31  C   LIG    1        1.842  -2.666   2.447  0.00  0.00    +0.100 C 
ATOM     32  C   LIG    1        1.249  -1.952   3.680  0.00  0.00    +0.170 C 
ATOM     33  H   LIG    1        2.495  -1.496   5.239  0.00  0.00    +0.430 HD
ENDBRANCH  23  32
ENDBRANCH  22  24
ENDBRANCH   1  22
TORSDOF 6
