REMARK  Name = ZINCtj00000riBVr.0
REMARK                            x       y       z     vdW  Elec       q    Type
REMARK                         _______ _______ _______ _____ _____    ______ ____
ROOT
ATOM      1  C   LIG    1        5.697   6.722  -0.775  0.00  0.00    +0.110 C 
ATOM      2  C   LIG    1        6.742   5.605  -0.718  0.00  0.00    +0.060 C 
ATOM      3  C   LIG    1        6.043   4.246  -0.796  0.00  0.00    +0.040 C 
ATOM      4  C   LIG    1        5.102   4.090   0.408  0.00  0.00    +0.260 C 
ATOM      5  N   LIG    1        4.186   5.238   0.438  0.00  0.00    -0.600 N 
ATOM      6  C   LIG    1        2.852   5.051   0.482  0.00  0.00    +0.600 C 
ATOM      7  O   LIG    1        2.102   6.006   0.414  0.00  0.00    -0.530 OA
ATOM      8  C   LIG    1        4.752   6.594   0.425  0.00  0.00    +0.260 C 
ENDROOT
BRANCH   6   9
ATOM      9  C   LIG    1        2.303   3.693   0.613  0.00  0.00    -0.230 A 
ATOM     10  C   LIG    1        2.757   2.699   1.422  0.00  0.00    +0.290 A 
ATOM     11  O   LIG    1        2.001   1.605   1.266  0.00  0.00    -0.180 OA
ATOM     12  C   LIG    1        1.022   1.809   0.360  0.00  0.00    +0.070 A 
ATOM     13  C   LIG    1        0.007   1.003  -0.137  0.00  0.00    +0.010 A 
ATOM     14  C   LIG    1       -0.866   1.500  -1.088  0.00  0.00    +0.140 A 
ATOM     15  C   LIG    1       -0.742   2.808  -1.546  0.00  0.00    -0.010 A 
ATOM     16  C   LIG    1        0.260   3.619  -1.061  0.00  0.00    +0.090 A 
ATOM     17  C   LIG    1        1.145   3.126  -0.108  0.00  0.00    -0.100 A 
BRANCH  14  18
ATOM     18  O   LIG    1       -1.855   0.705  -1.576  0.00  0.00    -0.490 OA
ATOM     19  H   LIG    1       -2.681   0.753  -1.076  0.00  0.00    +0.400 HD
ENDBRANCH  14  18
ENDBRANCH   6   9
BRANCH   1  20
ATOM     20  O   LIG    1        4.947   6.612  -1.986  0.00  0.00    -0.530 OA
ATOM     21  H   LIG    1        4.263   7.288  -2.088  0.00  0.00    +0.370 HD
ENDBRANCH   1  20
BRANCH   1  22
ATOM     22  C   LIG    1        6.399   8.081  -0.729  0.00  0.00    +0.280 C 
BRANCH  22  24
ATOM     23  C   LIG    1        5.785  10.436  -0.610  0.00  0.00    +0.510 C 
ATOM     24  N   LIG    1        5.396   9.146  -0.659  0.00  0.00    -0.710 N 
ATOM     25  H   LIG    1        4.452   8.924  -0.649  0.00  0.00    +0.410 HD
ATOM     26  O   LIG    1        6.965  10.714  -0.623  0.00  0.00    -0.500 OA
BRANCH  23  32
ATOM     27  C   LIG    1        6.128  12.082  -2.435  0.00  0.00    +0.320 C 
ATOM     28  N   LIG    1        4.985  12.510  -1.617  0.00  0.00    -0.380 N 
ATOM     29  C   LIG    1        5.275  13.825  -1.006  0.00  0.00    +0.270 C 
ATOM     30  C   LIG    1        4.619  13.763   0.396  0.00  0.00    +0.080 C 
ATOM     31  C   LIG    1        4.884  12.288   0.801  0.00  0.00    +0.100 C 
ATOM     32  C   LIG    1        4.753  11.532  -0.538  0.00  0.00    +0.150 C 
ATOM     33  H   LIG    1        4.162  12.578  -2.196  0.00  0.00    +0.430 HD
ENDBRANCH  23  32
ENDBRANCH  22  24
ENDBRANCH   1  22
TORSDOF 6
