REMARK  Name = ZINCrH000004oLYC.0
REMARK                            x       y       z     vdW  Elec       q    Type
REMARK                         _______ _______ _______ _____ _____    ______ ____
ROOT
ATOM      1  C   LIG    1        0.202   0.496   6.075  0.00  0.00    -0.650 A 
ATOM      2  C   LIG    1        1.090  -0.553   5.916  0.00  0.00    +0.120 A 
ATOM      3  C   LIG    1        2.154  -0.697   6.782  0.00  0.00    +0.030 A 
ATOM      4  C   LIG    1        2.328   0.212   7.827  0.00  0.00    -0.080 A 
ATOM      5  C   LIG    1        1.425   1.265   7.985  0.00  0.00    +0.070 A 
ATOM      6  C   LIG    1        0.368   1.401   7.109  0.00  0.00    +0.130 A 
ENDROOT
BRANCH   4   7
ATOM      7  C   LIG    1        3.463   0.061   8.761  0.00  0.00    +0.560 C 
ATOM      8  N   LIG    1        4.333  -0.957   8.606  0.00  0.00    -0.670 N 
ATOM      9  H   LIG    1        4.177  -1.628   7.923  0.00  0.00    +0.420 HD
ATOM     10  O   LIG    1        3.612   0.855   9.670  0.00  0.00    -0.500 OA
BRANCH   8  11
ATOM     11  C   LIG    1        5.460  -1.045   9.429  0.00  0.00    +0.170 A 
ATOM     12  C   LIG    1        6.655  -1.539   8.921  0.00  0.00    -0.020 A 
ATOM     13  C   LIG    1        7.769  -1.620   9.734  0.00  0.00    +0.070 A 
ATOM     14  C   LIG    1        7.694  -1.220  11.056  0.00  0.00    -0.030 A 
ATOM     15  C   LIG    1        6.502  -0.733  11.567  0.00  0.00    +0.120 A 
ATOM     16  F   LIG    1        6.432  -0.343  12.859  0.00  0.00    -0.130 F 
ATOM     17  C   LIG    1        5.386  -0.644  10.756  0.00  0.00    -0.010 A 
ENDBRANCH   8  11
ENDBRANCH   4   7
BRANCH   1  18
ATOM     18  S   LIG    1       -1.151   0.676   4.961  0.00  0.00    +2.690 S 
ATOM     19  O   LIG    1       -1.389  -0.610   4.407  0.00  0.00    -0.950 OA
ATOM     20  O   LIG    1       -2.144   1.421   5.653  0.00  0.00    -0.950 OA
BRANCH  18  26
ATOM     21  C   LIG    1       -0.054   1.040   0.018  0.00  0.00    +0.030 C 
ATOM     22  C   LIG    1       -0.764   1.540   1.278  0.00  0.00    -0.030 C 
ATOM     23  C   LIG    1       -0.781   3.071   1.281  0.00  0.00    +0.030 C 
ATOM     24  C   LIG    1       -1.520   3.572   2.524  0.00  0.00    -0.010 C 
ATOM     25  C   LIG    1       -0.782   3.095   3.779  0.00  0.00    +0.290 C 
ATOM     26  N   LIG    1       -0.634   1.634   3.713  0.00  0.00    -0.990 NA
ATOM     27  C   LIG    1       -2.946   3.018   2.529  0.00  0.00    +0.020 C 
ATOM     28  C   LIG    1       -0.018   1.040   2.519  0.00  0.00    +0.280 C 
ENDBRANCH  18  26
ENDBRANCH   1  18
TORSDOF 4
