REMARK  Name = ZINCvU0000000IgI.0
REMARK                            x       y       z     vdW  Elec       q    Type
REMARK                         _______ _______ _______ _____ _____    ______ ____
ROOT
ATOM      1  C   LIG    1       -3.747   1.391   0.698  0.00  0.00    -0.210 A 
ATOM      2  C   LIG    1       -4.672   0.405   0.411  0.00  0.00    +0.290 A 
ATOM      3  N   LIG    1       -4.070  -0.509  -0.372  0.00  0.00    -0.300 N 
ATOM      4  N   LIG    1       -2.747  -0.125  -0.610  0.00  0.00    -0.260 NA
ATOM      5  C   LIG    1       -2.509   1.009   0.009  0.00  0.00    +0.140 A 
ENDROOT
BRANCH   3   6
ATOM      6  C   LIG    1       -4.676  -1.668  -0.873  0.00  0.00    +0.140 A 
ATOM      7  C   LIG    1       -6.000  -1.949  -0.564  0.00  0.00    -0.010 A 
ATOM      8  C   LIG    1       -6.597  -3.090  -1.065  0.00  0.00    +0.050 A 
ATOM      9  C   LIG    1       -5.874  -3.958  -1.862  0.00  0.00    +0.010 A 
ATOM     10  C   LIG    1       -4.553  -3.683  -2.167  0.00  0.00    +0.050 A 
ATOM     11  C   LIG    1       -3.952  -2.541  -1.675  0.00  0.00    +0.030 A 
ENDBRANCH   3   6
BRANCH   5  12
ATOM     12  C   LIG    1       -1.230   1.758   0.015  0.00  0.00    -0.020 A 
ATOM     13  C   LIG    1       -1.236   3.152   0.037  0.00  0.00    +0.110 A 
ATOM     14  C   LIG    1       -0.041   3.845   0.036  0.00  0.00    +0.050 A 
ATOM     15  C   LIG    1        1.159   3.158   0.020  0.00  0.00    +0.120 A 
ATOM     16  C   LIG    1        1.171   1.774   0.004  0.00  0.00    -0.040 A 
ATOM     17  C   LIG    1       -0.016   1.072   0.005  0.00  0.00    +0.130 A 
BRANCH  16  18
ATOM     18  N   LIG    1        2.460   1.047  -0.014  0.00  0.00    +0.030 N 
ATOM     19  O   LIG    1        3.509   1.666  -0.014  0.00  0.00    -0.150 OA
ATOM     20  O   LIG    1        2.472  -0.171  -0.029  0.00  0.00    -0.160 OA
ENDBRANCH  16  18
ENDBRANCH   5  12
BRANCH   1  22
ATOM     21  C   LIG    1       -5.167   2.802   2.098  0.00  0.00    -0.110 C 
ATOM     22  C   LIG    1       -3.962   2.584   1.525  0.00  0.00    +0.190 C 
BRANCH  21  24
ATOM     23  O   LIG    1       -4.467   4.748   3.066  0.00  0.00    -0.530 OA
ATOM     24  C   LIG    1       -5.374   3.954   2.897  0.00  0.00    +0.560 C 
ATOM     25  N   LIG    1       -6.575   4.171   3.469  0.00  0.00    -0.670 N 
ATOM     26  H   LIG    1       -7.316   3.574   3.280  0.00  0.00    +0.410 HD
BRANCH  25  27
ATOM     27  C   LIG    1       -6.752   5.255   4.334  0.00  0.00    +0.140 A 
ATOM     28  C   LIG    1       -7.602   5.141   5.427  0.00  0.00    -0.030 A 
ATOM     29  C   LIG    1       -7.771   6.213   6.282  0.00  0.00    +0.030 A 
ATOM     30  C   LIG    1       -7.104   7.401   6.045  0.00  0.00    -0.010 A 
ATOM     31  C   LIG    1       -6.261   7.518   4.955  0.00  0.00    +0.030 A 
ATOM     32  C   LIG    1       -6.083   6.449   4.099  0.00  0.00    +0.020 A 
ENDBRANCH  25  27
ENDBRANCH  21  24
ENDBRANCH   1  22
TORSDOF 6
