REMARK  Name = ZINCqH00000501UH.1
REMARK                            x       y       z     vdW  Elec       q    Type
REMARK                         _______ _______ _______ _____ _____    ______ ____
ROOT
ATOM      1  C   LIG    1        0.160   1.459   0.070  0.00  0.00    +0.610 C 
ATOM      2  N   LIG    1       -0.891   1.815   0.835  0.00  0.00    -0.600 N 
ATOM      3  C   LIG    1       -0.903   3.107   1.535  0.00  0.00    +0.280 C 
ATOM      4  C   LIG    1       -1.175   2.866   3.019  0.00  0.00    +0.010 C 
ATOM      5  C   LIG    1       -2.464   2.055   3.173  0.00  0.00    +0.160 C 
ATOM      6  C   LIG    1       -2.301   0.699   2.484  0.00  0.00    +0.040 C 
ATOM      7  C   LIG    1       -2.043   0.917   0.990  0.00  0.00    +0.310 C 
ATOM      8  O   LIG    1        0.131   0.415  -0.554  0.00  0.00    -0.500 OA
ENDROOT
BRANCH   1  11
ATOM      9  C   LIG    1        3.006   0.529   0.288  0.00  0.00    +0.190 C 
ATOM     10  C   LIG    1        2.625   1.971   0.076  0.00  0.00    +0.160 A 
ATOM     11  C   LIG    1        1.337   2.333  -0.015  0.00  0.00    -0.240 A 
ATOM     12  S   LIG    1        1.354   4.090  -0.251  0.00  0.00    +0.230 S 
ATOM     13  C   LIG    1        3.119   4.213  -0.218  0.00  0.00    +0.170 A 
ATOM     14  N   LIG    1        4.132   5.036  -0.300  0.00  0.00    -0.260 NA
ATOM     15  N   LIG    1        5.305   4.282  -0.165  0.00  0.00    -0.210 NA
ATOM     16  C   LIG    1        4.968   3.030  -0.006  0.00  0.00    +0.210 A 
ATOM     17  N   LIG    1        3.584   2.939  -0.033  0.00  0.00    -0.440 N 
BRANCH  16  18
ATOM     18  S   LIG    1        6.083   1.683   0.208  0.00  0.00    +0.040 S 
ATOM     19  H   LIG    1        6.238   1.627   1.543  0.00  0.00    +0.090 HD
ENDBRANCH  16  18
ENDBRANCH   1  11
BRANCH   5  20
ATOM     20  O   LIG    1       -2.737   1.855   4.561  0.00  0.00    -0.300 OA
BRANCH  20  21
ATOM     21  C   LIG    1       -3.435   2.830   5.201  0.00  0.00    +0.140 A 
ATOM     22  C   LIG    1       -3.835   2.649   6.517  0.00  0.00    +0.000 A 
ATOM     23  C   LIG    1       -4.540   3.643   7.166  0.00  0.00    +0.070 A 
ATOM     24  C   LIG    1       -4.857   4.815   6.502  0.00  0.00    -0.070 A 
ATOM     25  C   LIG    1       -4.464   4.995   5.188  0.00  0.00    +0.070 A 
ATOM     26 CL   LIG    1       -5.749   6.060   7.318  0.00  0.00    -0.070 Cl
ATOM     27  C   LIG    1       -3.754   4.005   4.536  0.00  0.00    -0.060 A 
ENDBRANCH  20  21
ENDBRANCH   5  20
TORSDOF 4
