REMARK  Name = ZINCrD000000fuEl.0
REMARK                            x       y       z     vdW  Elec       q    Type
REMARK                         _______ _______ _______ _____ _____    ______ ____
ROOT
ATOM      1  N   LIG    1        1.087   1.970   0.002  0.00  0.00    -0.560 N 
ATOM      2  C   LIG    1        0.787   3.284   0.012  0.00  0.00    +0.530 C 
ATOM      3  C   LIG    1       -0.727   3.357   0.027  0.00  0.00    +0.230 C 
ATOM      4  N   LIG    1       -1.143   1.944   0.018  0.00  0.00    -0.560 N 
ATOM      5  C   LIG    1       -1.244   4.076  -1.221  0.00  0.00    +0.090 C 
ATOM      6  O   LIG    1        1.565   4.213   0.010  0.00  0.00    -0.450 OA
ATOM      7  C   LIG    1       -0.014   1.211   0.009  0.00  0.00    +0.710 C 
ATOM      8  O   LIG    1        0.002  -0.004   0.002  0.00  0.00    -0.520 OA
ENDROOT
BRANCH   4   9
ATOM      9  C   LIG    1       -2.455   1.458   0.020  0.00  0.00    +0.190 A 
ATOM     10  C   LIG    1       -3.525   2.343   0.035  0.00  0.00    -0.030 A 
ATOM     11  C   LIG    1       -4.819   1.861   0.032  0.00  0.00    +0.040 A 
ATOM     12  C   LIG    1       -5.050   0.497   0.025  0.00  0.00    -0.010 A 
ATOM     13  C   LIG    1       -3.987  -0.387   0.016  0.00  0.00    +0.040 A 
ATOM     14  C   LIG    1       -2.690   0.089   0.013  0.00  0.00    +0.000 A 
ENDBRANCH   4   9
BRANCH   1  15
ATOM     15  C   LIG    1        2.453   1.438  -0.014  0.00  0.00    +0.340 C 
BRANCH  15  16
ATOM     16  C   LIG    1        2.906   1.264  -1.441  0.00  0.00    +0.420 C 
ATOM     17  O   LIG    1        2.162   1.555  -2.354  0.00  0.00    -0.460 OA
BRANCH  16  21
ATOM     18  N   LIG    1        6.050   0.043  -2.788  0.00  0.00    -0.430 N 
ATOM     19  C   LIG    1        6.330  -0.067  -1.456  0.00  0.00    +0.010 A 
ATOM     20  C   LIG    1        5.268   0.350  -0.747  0.00  0.00    +0.000 A 
ATOM     21  C   LIG    1        4.245   0.743  -1.725  0.00  0.00    -0.270 A 
ATOM     22  C   LIG    1        7.626  -0.572  -0.875  0.00  0.00    +0.120 C 
ATOM     23  C   LIG    1        4.808   0.526  -2.968  0.00  0.00    +0.120 A 
ATOM     24  C   LIG    1        4.145   0.785  -4.296  0.00  0.00    +0.150 C 
BRANCH  18  25
ATOM     25  C   LIG    1        6.973  -0.314  -3.868  0.00  0.00    +0.320 C 
BRANCH  25  27
ATOM     26  C   LIG    1        9.112   0.809  -4.221  0.00  0.00    +0.050 C 
ATOM     27  C   LIG    1        7.804   0.887  -4.236  0.00  0.00    -0.060 C 
ENDBRANCH  25  27
ENDBRANCH  18  25
ENDBRANCH  16  21
ENDBRANCH  15  16
ENDBRANCH   1  15
TORSDOF 6
