REMARK  Name = ZINCrg00000BneO1.0
REMARK                            x       y       z     vdW  Elec       q    Type
REMARK                         _______ _______ _______ _____ _____    ______ ____
ROOT
ATOM      1  C   LIG    1        4.679   1.076   3.105  0.00  0.00    +0.260 C 
ATOM      2  C   LIG    1        4.124   0.489   1.791  0.00  0.00    +0.050 C 
ATOM      3  C   LIG    1        2.726   1.139   1.645  0.00  0.00    +0.000 C 
ATOM      4  C   LIG    1        2.964   2.581   2.158  0.00  0.00    +0.000 C 
ATOM      5  C   LIG    1        3.942   2.406   3.339  0.00  0.00    +0.150 C 
ENDROOT
BRANCH   1   8
ATOM      6  O   LIG    1        6.405   1.153   5.174  0.00  0.00    -0.490 OA
ATOM      7  C   LIG    1        6.897   1.333   4.080  0.00  0.00    +0.500 C 
ATOM      8  N   LIG    1        6.119   1.314   2.980  0.00  0.00    -0.720 N 
ATOM      9  H   LIG    1        6.512   1.458   2.105  0.00  0.00    +0.400 HD
BRANCH   7  10
ATOM     10  C   LIG    1        8.379   1.579   3.951  0.00  0.00    +0.360 C 
BRANCH  10  11
ATOM     11  N   LIG    1        8.996   1.551   5.279  0.00  0.00    -0.380 N 
ATOM     12  C   LIG    1       10.020   0.776   5.676  0.00  0.00    +0.480 A 
ATOM     13  N   LIG    1       10.276   1.051   6.929  0.00  0.00    -0.540 NA
ATOM     14  C   LIG    1        9.434   1.987   7.367  0.00  0.00    +0.420 A 
ATOM     15  N   LIG    1        8.631   2.325   6.393  0.00  0.00    -0.290 NA
ENDBRANCH  10  11
ENDBRANCH   7  10
ENDBRANCH   1   8
BRANCH   5  16
ATOM     16  O   LIG    1        3.218   2.355   4.570  0.00  0.00    -0.550 OA
ATOM     17  H   LIG    1        2.731   3.165   4.774  0.00  0.00    +0.380 HD
ENDBRANCH   5  16
BRANCH   3  18
ATOM     18  C   LIG    1        2.283   1.151   0.181  0.00  0.00    +0.290 C 
BRANCH  18  19
ATOM     19  N   LIG    1        0.896   1.615   0.093  0.00  0.00    -0.450 N 
ATOM     20  C   LIG    1        0.134   2.100   1.121  0.00  0.00    +0.130 A 
ATOM     21  C   LIG    1       -1.075   2.404   0.607  0.00  0.00    +0.150 A 
ATOM     22  N   LIG    1       -1.060   2.124  -0.701  0.00  0.00    -0.470 NA
ATOM     23  C   LIG    1        0.119   1.644  -1.028  0.00  0.00    +0.240 A 
BRANCH  23  24
ATOM     24  C   LIG    1        0.534   1.210  -2.380  0.00  0.00    -0.010 A 
ATOM     25  C   LIG    1        1.888   1.105  -2.698  0.00  0.00    +0.000 A 
ATOM     26  C   LIG    1        2.268   0.694  -3.959  0.00  0.00    +0.010 A 
ATOM     27  C   LIG    1        1.309   0.397  -4.910  0.00  0.00    +0.020 A 
ATOM     28  C   LIG    1       -0.036   0.503  -4.603  0.00  0.00    +0.010 A 
ATOM     29  C   LIG    1       -0.429   0.908  -3.344  0.00  0.00    +0.060 A 
ENDBRANCH  23  24
ENDBRANCH  18  19
ENDBRANCH   3  18
TORSDOF 7
