REMARK  Name = ZINCpk00000y6xYt.0
REMARK                            x       y       z     vdW  Elec       q    Type
REMARK                         _______ _______ _______ _____ _____    ______ ____
ROOT
ATOM      1  C   LIG    1       -0.015   1.295   0.009  0.00  0.00    +0.160 A 
ATOM      2  N   LIG    1        0.002  -0.004   0.002  0.00  0.00    -0.450 NA
ATOM      3  C   LIG    1        1.298  -0.418  -0.013  0.00  0.00    -0.080 A 
ATOM      4  C   LIG    1        2.075   0.700  -0.014  0.00  0.00    +0.250 A 
ATOM      5  O   LIG    1        1.244   1.754  -0.000  0.00  0.00    -0.190 OA
ENDROOT
BRANCH   3   6
ATOM      6  C   LIG    1        1.772  -1.814  -0.024  0.00  0.00    +0.610 C 
ATOM      7  N   LIG    1        0.883  -2.827  -0.021  0.00  0.00    -0.710 N 
ATOM      8  H   LIG    1       -0.068  -2.638  -0.011  0.00  0.00    +0.410 HD
ATOM      9  O   LIG    1        2.965  -2.051  -0.037  0.00  0.00    -0.530 OA
BRANCH   7  10
ATOM     10  C   LIG    1        1.354  -4.214  -0.032  0.00  0.00    +0.260 C 
BRANCH  10  11
ATOM     11  C   LIG    1        0.152  -5.161  -0.025  0.00  0.00    +0.130 C 
BRANCH  11  12
ATOM     12  C   LIG    1        0.637  -6.588  -0.037  0.00  0.00    -0.200 A 
ATOM     13  C   LIG    1        0.915  -7.383   1.024  0.00  0.00    -0.020 A 
ATOM     14  O   LIG    1        1.310  -8.561   0.521  0.00  0.00    +0.100 OA
ATOM     15  N   LIG    1        1.298  -8.555  -0.688  0.00  0.00    -0.360 NA
ATOM     16  C   LIG    1        0.803  -7.015   2.481  0.00  0.00    +0.190 C 
ATOM     17  C   LIG    1        0.900  -7.409  -1.158  0.00  0.00    +0.030 A 
ATOM     18  C   LIG    1        0.752  -7.030  -2.609  0.00  0.00    +0.160 C 
ENDBRANCH  11  12
ENDBRANCH  10  11
ENDBRANCH   7  10
ENDBRANCH   3   6
BRANCH   1  19
ATOM     19  C   LIG    1       -1.256   2.151   0.020  0.00  0.00    +0.380 C 
BRANCH  19  23
ATOM     20  C   LIG    1       -1.557   1.695   3.672  0.00  0.00    +0.160 C 
ATOM     21  C   LIG    1       -0.610   2.910   3.546  0.00  0.00    +0.000 C 
ATOM     22  C   LIG    1       -0.690   3.331   2.067  0.00  0.00    +0.180 C 
ATOM     23  N   LIG    1       -1.652   2.421   1.408  0.00  0.00    -0.490 NA
ATOM     24  C   LIG    1       -1.648   1.175   2.216  0.00  0.00    +0.200 C 
BRANCH  20  26
ATOM     25  C   LIG    1       -1.376   0.841   5.904  0.00  0.00    +0.200 C 
ATOM     26  O   LIG    1       -0.996   0.703   4.533  0.00  0.00    -0.380 OA
ENDBRANCH  20  26
ENDBRANCH  19  23
ENDBRANCH   1  19
TORSDOF 7
