REMARK  Name = ZINCkj000005gyAq.0
REMARK                            x       y       z     vdW  Elec       q    Type
REMARK                         _______ _______ _______ _____ _____    ______ ____
ROOT
ATOM      1  C   LIG    1        1.573   2.007  -0.702  0.00  0.00    +0.260 C 
ATOM      2  C   LIG    1        1.648   3.501  -0.307  0.00  0.00    +0.210 C 
ATOM      3  N   LIG    1        2.984   3.956  -0.369  0.00  0.00    -0.370 N 
ATOM      4  C   LIG    1        3.581   3.933  -1.702  0.00  0.00    +0.250 C 
ATOM      5  C   LIG    1        4.204   2.576  -1.946  0.00  0.00    +0.070 C 
ATOM      6  C   LIG    1        3.188   1.667  -2.662  0.00  0.00    +0.320 C 
ATOM      7  C   LIG    1        3.026   5.337   0.130  0.00  0.00    +0.320 C 
ATOM      8  H   LIG    1        3.544   3.381   0.241  0.00  0.00    +0.420 HD
ATOM      9  N   LIG    1        1.828   1.861  -2.120  0.00  0.00    -1.000 NA
ENDROOT
BRANCH   9  10
ATOM     10  S   LIG    1        0.550   1.912  -3.171  0.00  0.00    +2.680 S 
ATOM     11  O   LIG    1       -0.465   1.091  -2.609  0.00  0.00    -0.920 OA
ATOM     12  O   LIG    1        1.089   1.703  -4.469  0.00  0.00    -0.930 OA
BRANCH  10  13
ATOM     13  C   LIG    1       -0.076   3.559  -3.151  0.00  0.00    -0.730 A 
ATOM     14  C   LIG    1        0.509   4.539  -3.931  0.00  0.00    +0.360 A 
ATOM     15  N   LIG    1        0.047   5.774  -3.922  0.00  0.00    -0.460 NA
ATOM     16  C   LIG    1       -0.982   6.125  -3.177  0.00  0.00    +0.330 A 
ATOM     17  C   LIG    1       -1.620   5.198  -2.370  0.00  0.00    +0.040 A 
ATOM     18  F   LIG    1       -2.674   5.564  -1.608  0.00  0.00    -0.110 F 
ATOM     19  C   LIG    1       -1.165   3.887  -2.358  0.00  0.00    +0.150 A 
ENDBRANCH  10  13
ENDBRANCH   9  10
BRANCH   1  21
ATOM     20  C   LIG    1        0.154  -0.047  -0.608  0.00  0.00    +0.050 C 
ATOM     21  C   LIG    1        0.179   1.465  -0.377  0.00  0.00    +0.020 C 
ENDBRANCH   1  21
TORSDOF 3
