REMARK  Name = ZINCkj000005gyAq.1
REMARK                            x       y       z     vdW  Elec       q    Type
REMARK                         _______ _______ _______ _____ _____    ______ ____
ROOT
ATOM      1  C   LIG    1        0.481   1.094  -2.338  0.00  0.00    +0.250 C 
ATOM      2  C   LIG    1        1.131   2.180  -1.452  0.00  0.00    +0.260 C 
ATOM      3  N   LIG    1        1.121   1.774  -0.021  0.00  0.00    -0.390 N 
ATOM      4  C   LIG    1       -0.116   1.110   0.300  0.00  0.00    +0.270 C 
ATOM      5  C   LIG    1        0.215  -0.376   0.263  0.00  0.00    +0.050 C 
ATOM      6  C   LIG    1       -0.023  -1.016  -1.035  0.00  0.00    +0.330 C 
ATOM      7  C   LIG    1        1.266   2.967   0.823  0.00  0.00    +0.320 C 
ATOM      8  H   LIG    1        1.892   1.147   0.154  0.00  0.00    +0.420 HD
ATOM      9  N   LIG    1        0.817  -0.271  -2.038  0.00  0.00    -1.010 NA
ENDROOT
BRANCH   9  10
ATOM     10  S   LIG    1        2.101  -1.008  -2.778  0.00  0.00    +2.700 S 
ATOM     11  O   LIG    1        2.406  -2.158  -2.002  0.00  0.00    -0.930 OA
ATOM     12  O   LIG    1        3.047   0.016  -3.054  0.00  0.00    -0.940 OA
BRANCH  10  13
ATOM     13  C   LIG    1        1.536  -1.596  -4.340  0.00  0.00    -0.720 A 
ATOM     14  C   LIG    1        1.752  -0.855  -5.486  0.00  0.00    +0.370 A 
ATOM     15  N   LIG    1        1.332  -1.288  -6.659  0.00  0.00    -0.460 NA
ATOM     16  C   LIG    1        0.695  -2.435  -6.788  0.00  0.00    +0.330 A 
ATOM     17  C   LIG    1        0.442  -3.232  -5.684  0.00  0.00    +0.040 A 
ATOM     18  F   LIG    1       -0.211  -4.406  -5.823  0.00  0.00    -0.110 F 
ATOM     19  C   LIG    1        0.874  -2.811  -4.434  0.00  0.00    +0.150 A 
ENDBRANCH  10  13
ENDBRANCH   9  10
BRANCH   1  21
ATOM     20  C   LIG    1        0.395   2.765  -4.194  0.00  0.00    +0.050 C 
ATOM     21  C   LIG    1        0.877   1.369  -3.790  0.00  0.00    +0.000 C 
ENDBRANCH   1  21
TORSDOF 3
