REMARK  Name = ZINCqH000000901v.0
REMARK                            x       y       z     vdW  Elec       q    Type
REMARK                         _______ _______ _______ _____ _____    ______ ____
ROOT
ATOM      1  N   LIG    1        1.653   1.812   2.700  0.00  0.00    -0.720 N 
ATOM      2  H   LIG    1        2.221   1.855   1.914  0.00  0.00    +0.400 HD
ATOM      3  C   LIG    1        0.382   2.255   2.638  0.00  0.00    +0.520 C 
ATOM      4  O   LIG    1       -0.328   2.201   3.620  0.00  0.00    -0.530 OA
ENDROOT
BRANCH   3   5
ATOM      5  C   LIG    1       -0.159   2.816   1.348  0.00  0.00    -0.020 C 
ATOM      6  C   LIG    1       -1.620   3.239   1.541  0.00  0.00    +0.060 C 
ATOM      7  C   LIG    1       -2.158   3.837   0.239  0.00  0.00    +0.030 C 
ATOM      8  C   LIG    1       -2.105   2.776  -0.866  0.00  0.00    +0.260 C 
ATOM      9  N   LIG    1       -0.732   2.261  -0.960  0.00  0.00    -0.610 N 
ATOM     10  C   LIG    1       -0.078   2.261  -2.138  0.00  0.00    +0.600 C 
ATOM     11  O   LIG    1        1.095   1.941  -2.183  0.00  0.00    -0.520 OA
ATOM     12  C   LIG    1       -0.086   1.745   0.255  0.00  0.00    +0.300 C 
BRANCH  10  13
ATOM     13  C   LIG    1       -0.780   2.648  -3.366  0.00  0.00    -0.270 A 
ATOM     14  C   LIG    1       -0.209   3.261  -4.446  0.00  0.00    +0.100 A 
ATOM     15  C   LIG    1       -1.099   3.507  -5.464  0.00  0.00    +0.000 A 
ATOM     16  C   LIG    1       -2.357   3.119  -5.225  0.00  0.00    -0.070 A 
ATOM     17  S   LIG    1       -2.492   2.404  -3.682  0.00  0.00    +0.220 S 
ENDBRANCH  10  13
ENDBRANCH   3   5
BRANCH   1  19
ATOM     18  C   LIG    1        2.688   2.411   4.833  0.00  0.00    +0.030 C 
ATOM     19  C   LIG    1        2.179   1.267   3.954  0.00  0.00    +0.230 C 
BRANCH  19  20
ATOM     20  C   LIG    1        3.330   0.306   3.650  0.00  0.00    +0.030 C 
BRANCH  20  21
ATOM     21  C   LIG    1        2.796  -0.901   2.876  0.00  0.00    +0.060 C 
BRANCH  21  22
ATOM     22  C   LIG    1        3.929  -1.847   2.576  0.00  0.00    -0.080 A 
ATOM     23  C   LIG    1        4.649  -1.714   1.404  0.00  0.00    +0.000 A 
ATOM     24  C   LIG    1        5.692  -2.579   1.131  0.00  0.00    +0.000 A 
ATOM     25  C   LIG    1        6.009  -3.584   2.025  0.00  0.00    +0.000 A 
ATOM     26  C   LIG    1        5.285  -3.721   3.195  0.00  0.00    +0.000 A 
ATOM     27  C   LIG    1        4.245  -2.853   3.470  0.00  0.00    +0.000 A 
ENDBRANCH  21  22
ENDBRANCH  20  21
ENDBRANCH  19  20
ENDBRANCH   1  19
TORSDOF 6
