REMARK  Name = ZINCqH0000007jIY.0
REMARK                            x       y       z     vdW  Elec       q    Type
REMARK                         _______ _______ _______ _____ _____    ______ ____
ROOT
ATOM      1  N   LIG    1        8.504   1.495  -0.081  0.00  0.00    -0.660 N 
ATOM      2  H   LIG    1        8.620   2.455  -0.156  0.00  0.00    +0.420 HD
ATOM      3  C   LIG    1        7.265   0.965  -0.063  0.00  0.00    +0.520 C 
ATOM      4  O   LIG    1        7.121  -0.239  -0.071  0.00  0.00    -0.520 OA
ENDROOT
BRANCH   1  10
ATOM      5  C   LIG    1       10.851   1.079  -0.502  0.00  0.00    +0.090 A 
ATOM      6  C   LIG    1       11.958   0.252  -0.413  0.00  0.00    -0.030 A 
ATOM      7  C   LIG    1       11.848  -0.991   0.184  0.00  0.00    +0.040 A 
ATOM      8  C   LIG    1       10.628  -1.412   0.695  0.00  0.00    +0.130 A 
ATOM      9  C   LIG    1        9.517  -0.584   0.612  0.00  0.00    +0.040 A 
ATOM     10  C   LIG    1        9.625   0.659   0.009  0.00  0.00    +0.140 A 
BRANCH   8  11
ATOM     11  N   LIG    1       10.520  -2.672   1.299  0.00  0.00    -0.670 N 
ATOM     12  H   LIG    1        9.704  -3.188   1.202  0.00  0.00    +0.410 HD
ATOM     13  C   LIG    1       11.549  -3.166   2.015  0.00  0.00    +0.510 C 
ATOM     14  O   LIG    1       12.599  -2.562   2.065  0.00  0.00    -0.530 OA
ATOM     15  C   LIG    1       11.395  -4.471   2.753  0.00  0.00    +0.110 C 
ENDBRANCH   8  11
BRANCH   5  17
ATOM     16  C   LIG    1       12.248   2.667  -1.592  0.00  0.00    +0.250 C 
ATOM     17  O   LIG    1       10.961   2.301  -1.089  0.00  0.00    -0.320 OA
ENDBRANCH   5  17
ENDBRANCH   1  10
BRANCH   3  18
ATOM     18  C   LIG    1        6.059   1.868  -0.033  0.00  0.00    +0.060 C 
BRANCH  18  19
ATOM     19  C   LIG    1        4.786   1.020  -0.018  0.00  0.00    +0.060 C 
BRANCH  19  20
ATOM     20  C   LIG    1        3.562   1.937   0.013  0.00  0.00    +0.180 C 
BRANCH  20  21
ATOM     21  O   LIG    1        2.373   1.144   0.027  0.00  0.00    -0.310 OA
BRANCH  21  22
ATOM     22  C   LIG    1        1.188   1.809   0.054  0.00  0.00    +0.120 A 
ATOM     23  C   LIG    1       -0.005   1.102   0.070  0.00  0.00    -0.020 A 
ATOM     24  C   LIG    1       -1.208   1.781   0.091  0.00  0.00    +0.050 A 
ATOM     25  C   LIG    1       -1.223   3.163   0.109  0.00  0.00    -0.130 A 
ATOM     26  C   LIG    1       -0.035   3.870   0.094  0.00  0.00    +0.040 A 
ATOM     27  C   LIG    1       -2.537   3.901   0.138  0.00  0.00    +0.090 C 
ATOM     28  C   LIG    1        1.171   3.196   0.067  0.00  0.00    -0.080 A 
ENDBRANCH  21  22
ENDBRANCH  20  21
ENDBRANCH  19  20
ENDBRANCH  18  19
ENDBRANCH   3  18
TORSDOF 8
