REMARK  Name = ZINCrH000004kM6m.0
REMARK                            x       y       z     vdW  Elec       q    Type
REMARK                         _______ _______ _______ _____ _____    ______ ____
ROOT
ATOM      1  N   LIG    1       -2.601   2.872   7.190  0.00  0.00    -0.680 N 
ATOM      2  H   LIG    1       -2.282   3.669   7.643  0.00  0.00    +0.420 HD
ATOM      3  C   LIG    1       -3.622   2.164   7.712  0.00  0.00    +0.710 C 
ATOM      4  N   LIG    1       -4.271   2.619   8.802  0.00  0.00    -0.730 N 
ATOM      5  H   LIG    1       -4.002   3.456   9.212  0.00  0.00    +0.400 HD
ATOM      6  O   LIG    1       -3.959   1.115   7.198  0.00  0.00    -0.560 OA
ENDROOT
BRANCH   4   7
ATOM      7  C   LIG    1       -5.381   1.848   9.369  0.00  0.00    +0.320 C 
ATOM      8  C   LIG    1       -6.312   2.788  10.138  0.00  0.00    +0.040 C 
ATOM      9  C   LIG    1       -5.601   3.223  11.426  0.00  0.00    +0.160 C 
ATOM     10  O   LIG    1       -5.415   2.070  12.249  0.00  0.00    -0.310 OA
ATOM     11  C   LIG    1       -4.878   0.961  11.676  0.00  0.00    +0.140 A 
ATOM     12  C   LIG    1       -4.362  -0.029  12.505  0.00  0.00    -0.030 A 
ATOM     13  C   LIG    1       -3.812  -1.172  11.961  0.00  0.00    +0.050 A 
ATOM     14  C   LIG    1       -3.774  -1.335  10.588  0.00  0.00    -0.040 A 
ATOM     15  C   LIG    1       -4.286  -0.353   9.763  0.00  0.00    +0.080 A 
ATOM     16  C   LIG    1       -6.459   4.251  12.166  0.00  0.00    +0.070 C 
ATOM     17  C   LIG    1       -4.837   0.797  10.303  0.00  0.00    -0.190 A 
ENDBRANCH   4   7
BRANCH   1  21
ATOM     18  C   LIG    1       -0.813   1.642   3.631  0.00  0.00    -0.200 A 
ATOM     19  C   LIG    1       -0.044   2.257   4.628  0.00  0.00    +0.200 A 
ATOM     20  C   LIG    1       -0.642   2.667   5.801  0.00  0.00    -0.040 A 
ATOM     21  C   LIG    1       -2.003   2.461   6.000  0.00  0.00    +0.250 A 
ATOM     22  C   LIG    1       -2.770   1.846   5.016  0.00  0.00    +0.000 A 
ATOM     23  F   LIG    1        1.279   2.453   4.438  0.00  0.00    -0.110 F 
ATOM     24  C   LIG    1       -2.184   1.437   3.837  0.00  0.00    +0.200 A 
ATOM     25  F   LIG    1       -2.930   0.840   2.881  0.00  0.00    -0.110 F 
BRANCH  18  26
ATOM     26  C   LIG    1       -0.181   1.207   2.375  0.00  0.00    +0.520 C 
ATOM     27  O   LIG    1       -0.125   1.967   1.428  0.00  0.00    -0.480 OA
BRANCH  26  29
ATOM     28  C   LIG    1        0.942  -0.395   1.006  0.00  0.00    +0.280 C 
ATOM     29  O   LIG    1        0.335  -0.034   2.275  0.00  0.00    -0.350 OA
ENDBRANCH  26  29
ENDBRANCH  18  26
ENDBRANCH   1  21
TORSDOF 4
