REMARK  Name = ZINCnE000001TDPh.0
REMARK                            x       y       z     vdW  Elec       q    Type
REMARK                         _______ _______ _______ _____ _____    ______ ____
ROOT
ATOM      1  C   UNK    1        1.362   3.368   0.007  0.00  0.00    -0.000 A 
ATOM      2  C   UNK    1        0.273   4.240   0.022  0.00  0.00    +0.080 A 
ATOM      3  C   UNK    1        0.484   5.605   0.028  0.00  0.00    +0.060 A 
ATOM      4  C   UNK    1        1.774   6.111   0.018  0.00  0.00    +0.030 A 
ATOM      5  C   UNK    1        2.860   5.256   0.003  0.00  0.00    -0.040 A 
ATOM      6  F   UNK    1       -0.570   6.449   0.043  0.00  0.00    -0.140 F 
ATOM      7  C   UNK    1        2.664   3.884   0.003  0.00  0.00    +0.130 A 
ENDROOT
BRANCH   1  11
ATOM      8  C   UNK    1        0.002  -0.004   0.002  0.00  0.00    +0.010 A 
ATOM      9  C   UNK    1        1.248  -0.559  -0.013  0.00  0.00    -0.070 A 
ATOM     10  S   UNK    1        2.415   0.690  -0.017  0.00  0.00    +0.140 S 
ATOM     11  C   UNK    1        1.143   1.906   0.001  0.00  0.00    +0.050 A 
ATOM     12  N   UNK    1       -0.016   1.324   0.009  0.00  0.00    -0.400 NA
BRANCH   8  14
ATOM     13  O   UNK    1       -2.318  -0.264   0.023  0.00  0.00    -0.660 OA
ATOM     14  C   UNK    1       -1.224  -0.812   0.010  0.00  0.00    +0.550 C 
ATOM     15  O   UNK    1       -1.152  -2.034   0.003  0.00  0.00    -0.680 OA
ENDBRANCH   8  14
ENDBRANCH   1  11
BRANCH   7  16
ATOM     16  O   UNK    1        3.730   3.043  -0.005  0.00  0.00    -0.300 OA
BRANCH  16  17
ATOM     17  C   UNK    1        5.028   3.642  -0.009  0.00  0.00    +0.200 C 
BRANCH  17  18
ATOM     18  C   UNK    1        6.095   2.545  -0.018  0.00  0.00    +0.000 C 
ATOM     19  C   UNK    1        6.029   1.754   1.291  0.00  0.00    +0.010 C 
ATOM     20  C   UNK    1        7.150   0.711   1.306  0.00  0.00    +0.210 C 
ATOM     21  O   UNK    1        8.410   1.367   1.151  0.00  0.00    -0.380 OA
ATOM     22  C   UNK    1        8.547   2.084  -0.078  0.00  0.00    +0.200 C 
ATOM     23  C   UNK    1        7.482   3.181  -0.148  0.00  0.00    +0.000 C 
ENDBRANCH  17  18
ENDBRANCH  16  17
ENDBRANCH   7  16
TORSDOF 5
