REMARK  Name = ZINCrH000004rRlG.0
REMARK                            x       y       z     vdW  Elec       q    Type
REMARK                         _______ _______ _______ _____ _____    ______ ____
ROOT
ATOM      1  N   LIG    1        0.076   2.490   4.719  0.00  0.00    -0.580 N 
ATOM      2  C   LIG    1        0.321   1.483   5.758  0.00  0.00    +0.310 C 
ATOM      3  C   LIG    1        0.755   2.280   7.009  0.00  0.00    -0.010 C 
ATOM      4  C   LIG    1        1.332   3.568   6.378  0.00  0.00    +0.080 C 
ATOM      5  C   LIG    1        0.642   3.667   5.036  0.00  0.00    +0.520 C 
ATOM      6  O   LIG    1        0.602   4.665   4.347  0.00  0.00    -0.510 OA
ENDROOT
BRANCH   1  12
ATOM      7  C   LIG    1       -0.013   1.086   0.008  0.00  0.00    +0.090 C 
ATOM      8  C   LIG    1       -0.718   1.572   1.248  0.00  0.00    -0.080 A 
ATOM      9  C   LIG    1       -2.083   1.789   1.225  0.00  0.00    +0.020 A 
ATOM     10  C   LIG    1       -2.735   2.230   2.363  0.00  0.00    +0.020 A 
ATOM     11  C   LIG    1       -2.022   2.465   3.522  0.00  0.00    +0.010 A 
ATOM     12  C   LIG    1       -0.650   2.253   3.546  0.00  0.00    +0.140 A 
ATOM     13  C   LIG    1        0.001   1.805   2.404  0.00  0.00    -0.070 A 
ATOM     14  C   LIG    1        1.490   1.574   2.426  0.00  0.00    +0.090 C 
ENDBRANCH   1  12
BRANCH   3  15
ATOM     15  C   LIG    1        1.813   1.536   7.782  0.00  0.00    +0.530 C 
ATOM     16  N   LIG    1        2.322   2.068   8.911  0.00  0.00    -0.720 N 
ATOM     17  H   LIG    1        2.008   2.930   9.225  0.00  0.00    +0.400 HD
ATOM     18  O   LIG    1        2.206   0.458   7.389  0.00  0.00    -0.520 OA
BRANCH  16  19
ATOM     19  C   LIG    1        3.351   1.345   9.662  0.00  0.00    +0.180 C 
ATOM     20  C   LIG    1        2.798  -0.010  10.110  0.00  0.00    +0.030 C 
ATOM     21  C   LIG    1        3.872  -0.765  10.895  0.00  0.00    -0.010 C 
ATOM     22  C   LIG    1        5.096  -0.984  10.003  0.00  0.00    +0.010 C 
ATOM     23  C   LIG    1        5.650   0.371   9.556  0.00  0.00    -0.010 C 
ATOM     24  C   LIG    1        6.053   1.188  10.785  0.00  0.00    +0.020 C 
ATOM     25  C   LIG    1        4.829   1.407  11.676  0.00  0.00    +0.000 C 
ATOM     26  C   LIG    1        4.276   0.052  12.123  0.00  0.00    +0.020 C 
ATOM     27  C   LIG    1        4.575   1.126   8.771  0.00  0.00    +0.030 C 
ATOM     28  C   LIG    1        3.754   2.162  10.891  0.00  0.00    +0.020 C 
ENDBRANCH  16  19
ENDBRANCH   3  15
TORSDOF 3
