REMARK  Name = ZINCrD000000AByf.0
REMARK                            x       y       z     vdW  Elec       q    Type
REMARK                         _______ _______ _______ _____ _____    ______ ____
ROOT
ATOM      1  O   LIG    1       -6.753  -3.601   3.707  0.00  0.00    -0.530 OA
ATOM      2  C   LIG    1       -7.300  -3.878   2.661  0.00  0.00    +0.510 C 
ATOM      3  N   LIG    1       -6.715  -3.557   1.489  0.00  0.00    -0.740 N 
ATOM      4  H   LIG    1       -7.152  -3.779   0.652  0.00  0.00    +0.400 HD
ENDROOT
BRANCH   3   5
ATOM      5  C   LIG    1       -5.419  -2.875   1.481  0.00  0.00    +0.260 C 
BRANCH   5   6
ATOM      6  C   LIG    1       -4.981  -2.629   0.035  0.00  0.00    +0.070 C 
BRANCH   6   7
ATOM      7  C   LIG    1       -3.648  -1.927   0.026  0.00  0.00    -0.110 A 
ATOM      8  C   LIG    1       -2.479  -2.665   0.011  0.00  0.00    +0.050 A 
ATOM      9  C   LIG    1       -1.255  -2.024   0.003  0.00  0.00    +0.010 A 
ATOM     10  C   LIG    1       -1.200  -0.637   0.010  0.00  0.00    +0.100 A 
ATOM     11  C   LIG    1       -2.374   0.101   0.031  0.00  0.00    -0.060 A 
ATOM     12  C   LIG    1       -3.595  -0.545   0.034  0.00  0.00    +0.060 A 
BRANCH  10  13
ATOM     13  O   LIG    1        0.002  -0.004   0.002  0.00  0.00    -0.320 OA
BRANCH  13  14
ATOM     14  C   LIG    1       -0.017   1.425   0.010  0.00  0.00    +0.590 C 
ATOM     15  F   LIG    1       -0.672   1.876   1.161  0.00  0.00    -0.200 F 
ATOM     16  F   LIG    1       -0.694   1.888  -1.123  0.00  0.00    -0.200 F 
ENDBRANCH  13  14
ENDBRANCH  10  13
ENDBRANCH   6   7
ENDBRANCH   5   6
ENDBRANCH   3   5
BRANCH   2  17
ATOM     17  C   LIG    1       -8.633  -4.580   2.670  0.00  0.00    +0.150 C 
BRANCH  17  18
ATOM     18  C   LIG    1       -9.064  -4.822   4.093  0.00  0.00    -0.210 A 
ATOM     19  C   LIG    1       -9.802  -3.981   4.855  0.00  0.00    +0.250 A 
ATOM     20  N   LIG    1       -9.971  -4.563   6.064  0.00  0.00    -0.320 N 
ATOM     21  N   LIG    1       -9.315  -5.801   6.041  0.00  0.00    -0.290 NA
ATOM     22  C   LIG    1       -8.777  -5.958   4.858  0.00  0.00    +0.260 A 
BRANCH  20  23
ATOM     23  C   LIG    1      -10.677  -4.024   7.148  0.00  0.00    +0.160 A 
ATOM     24  C   LIG    1      -11.278  -2.778   7.035  0.00  0.00    -0.010 A 
ATOM     25  C   LIG    1      -11.980  -2.252   8.103  0.00  0.00    +0.040 A 
ATOM     26  C   LIG    1      -12.072  -2.959   9.287  0.00  0.00    +0.000 A 
ATOM     27  C   LIG    1      -11.470  -4.199   9.404  0.00  0.00    +0.040 A 
ATOM     28  C   LIG    1      -10.773  -4.733   8.338  0.00  0.00    +0.020 A 
ENDBRANCH  20  23
ENDBRANCH  17  18
ENDBRANCH   2  17
TORSDOF 8
