REMARK  Name = ZINCbw0000000HjL.0
REMARK                            x       y       z     vdW  Elec       q    Type
REMARK                         _______ _______ _______ _____ _____    ______ ____
ROOT
ATOM      1  C   LIG    1        2.473   1.037  -0.016  0.00  0.00    +0.100 C 
ATOM      2  C   LIG    1        1.160   1.777   0.001  0.00  0.00    -0.090 A 
ATOM      3  C   LIG    1        1.152   3.165   0.009  0.00  0.00    +0.010 A 
ATOM      4  C   LIG    1       -0.039   3.861   0.024  0.00  0.00    +0.090 A 
ATOM      5  C   LIG    1       -1.246   3.166   0.031  0.00  0.00    +0.050 A 
ATOM      6  N   LIG    1       -2.566   3.558   0.046  0.00  0.00    -0.590 N 
ATOM      7  H   LIG    1       -2.875   4.477   0.054  0.00  0.00    +0.420 HD
ATOM      8  C   LIG    1       -3.378   2.456   0.048  0.00  0.00    +0.240 A 
ATOM      9  C   LIG    1       -2.634   1.339   0.034  0.00  0.00    -0.060 A 
ATOM     10  C   LIG    1       -1.230   1.760   0.017  0.00  0.00    -0.080 A 
ATOM     11  F   LIG    1       -0.035   5.212   0.032  0.00  0.00    -0.140 F 
ATOM     12  C   LIG    1       -0.013   1.076   0.008  0.00  0.00    +0.050 A 
ENDROOT
TORSDOF 0
