REMARK  Name = ZINCnE000001PKqO.0
REMARK                            x       y       z     vdW  Elec       q    Type
REMARK                         _______ _______ _______ _____ _____    ______ ____
ROOT
ATOM      1  S   LIG    1        2.513  -0.377  -0.741  0.00  0.00    +2.690 S 
ATOM      2  O   LIG    1        1.361  -1.107  -0.342  0.00  0.00    -0.950 OA
ATOM      3  O   LIG    1        3.840  -0.834  -0.517  0.00  0.00    -0.950 OA
ENDROOT
BRANCH   1   4
ATOM      4  C   LIG    1        2.362  -0.121  -2.478  0.00  0.00    -0.690 A 
ATOM      5  C   LIG    1        1.116  -0.157  -3.076  0.00  0.00    +0.130 A 
ATOM      6  C   LIG    1        0.997   0.050  -4.438  0.00  0.00    -0.010 A 
ATOM      7  C   LIG    1        2.125   0.281  -5.203  0.00  0.00    +0.000 A 
ATOM      8  C   LIG    1        3.371   0.311  -4.606  0.00  0.00    -0.010 A 
ATOM      9  C   LIG    1        3.490   0.111  -3.243  0.00  0.00    +0.130 A 
BRANCH   7  10
ATOM     10  C   LIG    1        1.995   0.501  -6.688  0.00  0.00    +0.090 C 
BRANCH  10  11
ATOM     11  C   LIG    1        2.093  -0.843  -7.413  0.00  0.00    -0.060 C 
BRANCH  11  12
ATOM     12  C   LIG    1        1.963  -0.623  -8.898  0.00  0.00    +0.490 C 
ATOM     13  O   LIG    1        2.014  -1.573  -9.662  0.00  0.00    -0.700 OA
ATOM     14  O   LIG    1        1.808   0.504  -9.336  0.00  0.00    -0.700 OA
ENDBRANCH  11  12
ENDBRANCH  10  11
ENDBRANCH   7  10
ENDBRANCH   1   4
BRANCH   1  15
ATOM     15  N   LIG    1        2.401   1.107  -0.015  0.00  0.00    -1.050 N 
ATOM     16  H   LIG    1        3.138   1.443   0.518  0.00  0.00    +0.430 HD
BRANCH  15  21
ATOM     17  C   LIG    1       -2.296   4.224  -0.646  0.00  0.00    +0.110 C 
ATOM     18  C   LIG    1       -1.048   3.397  -0.479  0.00  0.00    -0.090 A 
ATOM     19  C   LIG    1       -1.139   2.019  -0.397  0.00  0.00    +0.060 A 
ATOM     20  C   LIG    1        0.002   1.258  -0.237  0.00  0.00    +0.010 A 
ATOM     21  C   LIG    1        1.244   1.875  -0.170  0.00  0.00    +0.160 A 
ATOM     22  C   LIG    1        1.333   3.260  -0.259  0.00  0.00    -0.050 A 
ATOM     23 CL   LIG    1        2.883   4.038  -0.176  0.00  0.00    -0.060 Cl
ATOM     24  C   LIG    1        0.187   4.016  -0.413  0.00  0.00    +0.050 A 
ENDBRANCH  15  21
ENDBRANCH   1  15
TORSDOF 6
