REMARK  Name = ZINCtV00000L6l6P.0
REMARK                            x       y       z     vdW  Elec       q    Type
REMARK                         _______ _______ _______ _____ _____    ______ ____
ROOT
ATOM      1  C   LIG    1       -2.582  -4.267  -0.115  0.00  0.00    +0.060 C 
ATOM      2  C   LIG    1       -2.465  -2.746   0.011  0.00  0.00    +0.060 C 
ATOM      3  C   LIG    1       -2.865  -3.586   1.226  0.00  0.00    +0.000 C 
ATOM      4 CL   LIG    1       -4.582  -3.499   1.770  0.00  0.00    -0.070 Cl
ATOM      5 CL   LIG    1       -1.643  -3.787   2.537  0.00  0.00    -0.070 Cl
ENDROOT
BRANCH   1   6
ATOM      6  C   LIG    1       -1.284  -5.067  -0.241  0.00  0.00    +0.270 C 
BRANCH   6   7
ATOM      7  O   LIG    1       -1.598  -6.466  -0.467  0.00  0.00    -0.340 OA
BRANCH   7   9
ATOM      8  O   LIG    1        0.579  -6.892  -0.532  0.00  0.00    -0.490 OA
ATOM      9  C   LIG    1       -0.558  -7.312  -0.601  0.00  0.00    +0.520 C 
BRANCH   9  10
ATOM     10  C   LIG    1       -0.802  -8.751  -0.834  0.00  0.00    -0.100 A 
ATOM     11  C   LIG    1       -2.108  -9.237  -0.908  0.00  0.00    +0.110 A 
ATOM     12  C   LIG    1       -2.329 -10.582  -1.130  0.00  0.00    -0.040 A 
ATOM     13  C   LIG    1       -1.259 -11.449  -1.268  0.00  0.00    +0.080 A 
ATOM     14  C   LIG    1        0.039 -10.973  -1.190  0.00  0.00    -0.040 A 
ATOM     15 CL   LIG    1        1.375 -12.069  -1.364  0.00  0.00    -0.040 Cl
ATOM     16 CL   LIG    1       -3.953 -11.188  -1.230  0.00  0.00    -0.040 Cl
ATOM     17  C   LIG    1        0.273  -9.630  -0.973  0.00  0.00    +0.120 A 
ENDBRANCH   9  10
ENDBRANCH   7   9
ENDBRANCH   6   7
ENDBRANCH   1   6
BRANCH   2  18
ATOM     18  C   LIG    1       -1.060  -2.142   0.001  0.00  0.00    +0.270 C 
BRANCH  18  19
ATOM     19  O   LIG    1       -1.155  -0.693   0.009  0.00  0.00    -0.340 OA
BRANCH  19  20
ATOM     20  C   LIG    1        0.002  -0.004   0.002  0.00  0.00    +0.520 C 
ATOM     21  O   LIG    1        1.062  -0.597  -0.011  0.00  0.00    -0.490 OA
BRANCH  20  22
ATOM     22  C   LIG    1       -0.018   1.473   0.010  0.00  0.00    -0.100 A 
ATOM     23  C   LIG    1       -1.235   2.158   0.020  0.00  0.00    +0.110 A 
ATOM     24  C   LIG    1       -1.247   3.538   0.034  0.00  0.00    -0.040 A 
ATOM     25  C   LIG    1       -0.056   4.244   0.026  0.00  0.00    +0.080 A 
ATOM     26  C   LIG    1        1.154   3.571   0.010  0.00  0.00    -0.040 A 
ATOM     27 CL   LIG    1        2.643   4.465   0.001  0.00  0.00    -0.040 Cl
ATOM     28 CL   LIG    1       -2.759   4.391   0.053  0.00  0.00    -0.040 Cl
ATOM     29  C   LIG    1        1.180   2.190   0.003  0.00  0.00    +0.120 A 
ENDBRANCH  20  22
ENDBRANCH  19  20
ENDBRANCH  18  19
ENDBRANCH   2  18
TORSDOF 8
