REMARK  Name = ZINCpk000004LDVX.0
REMARK                            x       y       z     vdW  Elec       q    Type
REMARK                         _______ _______ _______ _____ _____    ______ ____
ROOT
ATOM      1  N   LIG    1       -0.921  -3.839   2.287  0.00  0.00    -0.700 N 
ATOM      2  H   LIG    1       -0.126  -4.149   2.748  0.00  0.00    +0.430 HD
ENDROOT
BRANCH   1   6
ATOM      3  N   LIG    1       -3.997  -2.102   4.377  0.00  0.00    -0.550 N 
ATOM      4  C   LIG    1       -2.908  -2.521   5.051  0.00  0.00    +0.560 A 
ATOM      5  C   LIG    1       -1.849  -3.122   4.353  0.00  0.00    -0.230 A 
ATOM      6  C   LIG    1       -1.942  -3.260   2.996  0.00  0.00    +0.470 A 
ATOM      7  N   LIG    1       -3.071  -2.818   2.349  0.00  0.00    -0.650 N 
ATOM      8  H   LIG    1       -3.145  -2.917   1.387  0.00  0.00    +0.430 HD
ATOM      9  O   LIG    1       -2.845  -2.384   6.261  0.00  0.00    -0.520 OA
ATOM     10  C   LIG    1       -4.074  -2.250   3.042  0.00  0.00    +0.710 A 
ATOM     11  O   LIG    1       -5.066  -1.865   2.454  0.00  0.00    -0.540 OA
BRANCH   3  13
ATOM     12  C   LIG    1       -5.660  -2.468   6.132  0.00  0.00    +0.040 C 
ATOM     13  C   LIG    1       -5.106  -1.480   5.104  0.00  0.00    +0.250 C 
ATOM     14  C   LIG    1       -4.606  -0.225   5.822  0.00  0.00    +0.030 C 
ENDBRANCH   3  13
ENDBRANCH   1   6
BRANCH   1  15
ATOM     15  C   LIG    1       -1.030  -3.989   0.834  0.00  0.00    +0.230 C 
ATOM     16  C   LIG    1       -0.028  -5.050   0.308  0.00  0.00    +0.070 C 
ATOM     17  C   LIG    1        1.287  -4.253   0.179  0.00  0.00    +0.210 C 
ATOM     18  N   LIG    1        0.927  -2.830   0.079  0.00  0.00    -0.610 N 
ATOM     19  C   LIG    1        1.796  -1.806  -0.025  0.00  0.00    +0.610 C 
ATOM     20  O   LIG    1        2.992  -2.024  -0.065  0.00  0.00    -0.520 OA
ATOM     21  C   LIG    1        2.042  -4.687  -1.079  0.00  0.00    +0.030 C 
ATOM     22  C   LIG    1       -0.542  -2.712   0.106  0.00  0.00    +0.240 C 
BRANCH  19  23
ATOM     23  C   LIG    1        1.297  -0.420  -0.089  0.00  0.00    -0.230 A 
ATOM     24  C   LIG    1        0.000  -0.016  -0.216  0.00  0.00    +0.210 A 
ATOM     25  O   LIG    1       -0.025   1.320  -0.235  0.00  0.00    -0.170 OA
ATOM     26  C   LIG    1        1.214   1.824  -0.126  0.00  0.00    +0.180 A 
ATOM     27  C   LIG    1        2.093   0.815  -0.030  0.00  0.00    -0.010 A 
ENDBRANCH  19  23
ENDBRANCH   1  15
TORSDOF 4
