REMARK  Name = ZINCkj000005mdiI.1
REMARK                            x       y       z     vdW  Elec       q    Type
REMARK                         _______ _______ _______ _____ _____    ______ ____
ROOT
ATOM      1  O   LIG    1       -0.237  -1.800   2.939  0.00  0.00    -0.480 OA
ATOM      2  C   LIG    1       -0.412  -1.253   1.868  0.00  0.00    +0.640 C 
ATOM      3  O   LIG    1        0.525  -0.515   1.262  0.00  0.00    -0.320 OA
ATOM      4  C   LIG    1        0.002  -0.004   0.002  0.00  0.00    +0.190 C 
ATOM      5  C   LIG    1       -1.432  -0.563  -0.065  0.00  0.00    +0.300 C 
ATOM      6  N   LIG    1       -1.562  -1.336   1.184  0.00  0.00    -0.560 N 
ENDROOT
BRANCH   6   7
ATOM      7  C   LIG    1       -2.701  -2.042   1.589  0.00  0.00    +0.160 A 
ATOM      8  C   LIG    1       -3.837  -2.046   0.791  0.00  0.00    -0.020 A 
ATOM      9  C   LIG    1       -4.957  -2.748   1.191  0.00  0.00    +0.040 A 
ATOM     10  C   LIG    1       -4.952  -3.437   2.390  0.00  0.00    +0.000 A 
ATOM     11  C   LIG    1       -3.823  -3.430   3.189  0.00  0.00    +0.040 A 
ATOM     12  C   LIG    1       -2.698  -2.735   2.792  0.00  0.00    +0.010 A 
ENDBRANCH   6   7
BRANCH   4  13
ATOM     13  C   LIG    1       -0.019   1.526   0.010  0.00  0.00    +0.290 C 
BRANCH  13  14
ATOM     14  N   LIG    1        1.359   2.034   0.000  0.00  0.00    -0.390 N 
ATOM     15  C   LIG    1        2.037   1.725   1.286  0.00  0.00    +0.270 C 
ATOM     16  C   LIG    1        3.189   2.751   1.373  0.00  0.00    +0.080 C 
ATOM     17  C   LIG    1        2.748   3.929   0.480  0.00  0.00    +0.010 C 
ATOM     18  C   LIG    1        1.365   3.518  -0.071  0.00  0.00    +0.280 C 
ATOM     19  H   LIG    1        1.875   1.642  -0.774  0.00  0.00    +0.430 HD
BRANCH  17  20
ATOM     20  C   LIG    1        2.631   5.210   1.308  0.00  0.00    +0.200 C 
BRANCH  20  21
ATOM     21  O   LIG    1        3.933   5.637   1.711  0.00  0.00    -0.570 OA
ATOM     22  H   LIG    1        3.935   6.445   2.242  0.00  0.00    +0.400 HD
ENDBRANCH  20  21
ENDBRANCH  17  20
ENDBRANCH  13  14
ENDBRANCH   4  13
TORSDOF 5
