REMARK  Name = ZINCkj000005mdiI.0
REMARK                            x       y       z     vdW  Elec       q    Type
REMARK                         _______ _______ _______ _____ _____    ______ ____
ROOT
ATOM      1  O   LIG    1       -1.453  -1.945  -3.879  0.00  0.00    -0.470 OA
ATOM      2  C   LIG    1       -1.097  -0.820  -3.588  0.00  0.00    +0.640 C 
ATOM      3  O   LIG    1       -0.377  -0.542  -2.494  0.00  0.00    -0.320 OA
ATOM      4  C   LIG    1       -0.116   0.890  -2.437  0.00  0.00    +0.180 C 
ATOM      5  C   LIG    1       -0.803   1.450  -3.696  0.00  0.00    +0.300 C 
ATOM      6  N   LIG    1       -1.387   0.255  -4.333  0.00  0.00    -0.560 N 
ENDROOT
BRANCH   6   7
ATOM      7  C   LIG    1       -2.123   0.245  -5.523  0.00  0.00    +0.160 A 
ATOM      8  C   LIG    1       -2.362   1.432  -6.203  0.00  0.00    -0.020 A 
ATOM      9  C   LIG    1       -3.084   1.419  -7.380  0.00  0.00    +0.040 A 
ATOM     10  C   LIG    1       -3.579   0.226  -7.876  0.00  0.00    +0.000 A 
ATOM     11  C   LIG    1       -3.347  -0.957  -7.199  0.00  0.00    +0.040 A 
ATOM     12  C   LIG    1       -2.621  -0.951  -6.024  0.00  0.00    +0.010 A 
ENDBRANCH   6   7
BRANCH   4  13
ATOM     13  C   LIG    1       -0.732   1.497  -1.175  0.00  0.00    +0.290 C 
BRANCH  13  14
ATOM     14  N   LIG    1       -0.012   1.005   0.008  0.00  0.00    -0.390 N 
ATOM     15  C   LIG    1        1.374   1.521  -0.003  0.00  0.00    +0.260 C 
ATOM     16  C   LIG    1        1.706   1.791   1.486  0.00  0.00    +0.090 C 
ATOM     17  C   LIG    1        0.349   2.318   2.020  0.00  0.00    +0.010 C 
ATOM     18  C   LIG    1       -0.682   1.485   1.229  0.00  0.00    +0.270 C 
ATOM     19  H   LIG    1        0.002  -0.004   0.002  0.00  0.00    +0.440 HD
BRANCH  17  20
ATOM     20  C   LIG    1        0.219   2.055   3.522  0.00  0.00    +0.200 C 
BRANCH  20  21
ATOM     21  O   LIG    1        1.184   2.838   4.227  0.00  0.00    -0.570 OA
ATOM     22  H   LIG    1        1.159   2.722   5.187  0.00  0.00    +0.400 HD
ENDBRANCH  20  21
ENDBRANCH  17  20
ENDBRANCH  13  14
ENDBRANCH   4  13
TORSDOF 5
