REMARK  Name = ZINCrH000004lzTA.0
REMARK                            x       y       z     vdW  Elec       q    Type
REMARK                         _______ _______ _______ _____ _____    ______ ____
ROOT
ATOM      1  C   LIG    1        0.526  -3.708   0.169  0.00  0.00    +0.600 C 
ATOM      2  N   LIG    1        0.480  -2.362   0.100  0.00  0.00    -0.650 N 
ATOM      3  H   LIG    1        1.302  -1.852   0.031  0.00  0.00    +0.420 HD
ATOM      4  O   LIG    1       -0.495  -4.343   0.356  0.00  0.00    -0.490 OA
ENDROOT
BRANCH   1   6
ATOM      5  C   LIG    1        1.976  -5.755   0.070  0.00  0.00    -0.080 A 
ATOM      6  C   LIG    1        1.810  -4.407   0.019  0.00  0.00    -0.010 A 
ATOM      7  O   LIG    1        3.000  -3.809  -0.197  0.00  0.00    -0.180 OA
ATOM      8  C   LIG    1        3.987  -4.722  -0.285  0.00  0.00    +0.070 A 
ATOM      9  C   LIG    1        5.357  -4.625  -0.493  0.00  0.00    +0.030 A 
ATOM     10  C   LIG    1        6.126  -5.768  -0.542  0.00  0.00    +0.060 A 
ATOM     11  C   LIG    1        5.548  -7.020  -0.386  0.00  0.00    +0.000 A 
ATOM     12  C   LIG    1        4.202  -7.140  -0.180  0.00  0.00    +0.070 A 
ATOM     13  C   LIG    1        3.405  -5.994  -0.127  0.00  0.00    -0.130 A 
BRANCH   5  14
ATOM     14  C   LIG    1        0.905  -6.792   0.287  0.00  0.00    +0.260 C 
BRANCH  14  16
ATOM     15  C   LIG    1       -0.659  -8.182  -0.883  0.00  0.00    +0.210 C 
ATOM     16  O   LIG    1        0.370  -7.195  -0.976  0.00  0.00    -0.380 OA
ENDBRANCH  14  16
ENDBRANCH   5  14
ENDBRANCH   1   6
BRANCH   2  17
ATOM     17  C   LIG    1       -0.754  -1.702   0.127  0.00  0.00    +0.130 A 
ATOM     18  C   LIG    1       -1.866  -2.283  -0.463  0.00  0.00    +0.040 A 
ATOM     19  C   LIG    1       -3.088  -1.626  -0.434  0.00  0.00    +0.130 A 
ATOM     20  C   LIG    1       -3.196  -0.387   0.184  0.00  0.00    +0.050 A 
ATOM     21  C   LIG    1       -2.090   0.191   0.777  0.00  0.00    -0.030 A 
ATOM     22  C   LIG    1       -0.867  -0.459   0.747  0.00  0.00    +0.100 A 
BRANCH  19  23
ATOM     23  N   LIG    1       -4.213  -2.211  -1.031  0.00  0.00    -0.670 N 
ATOM     24  H   LIG    1       -4.326  -3.174  -1.010  0.00  0.00    +0.410 HD
ATOM     25  C   LIG    1       -5.136  -1.437  -1.633  0.00  0.00    +0.510 C 
ATOM     26  O   LIG    1       -4.947  -0.244  -1.747  0.00  0.00    -0.530 OA
ATOM     27  C   LIG    1       -6.405  -2.052  -2.165  0.00  0.00    +0.110 C 
ENDBRANCH  19  23
BRANCH  22  28
ATOM     28  O   LIG    1        0.222   0.114   1.327  0.00  0.00    -0.320 OA
ATOM     29  C   LIG    1        0.034   1.389   1.944  0.00  0.00    +0.250 C 
ENDBRANCH  22  28
ENDBRANCH   2  17
TORSDOF 6
