REMARK  Name = ZINCpk00000e9BE5.0
REMARK                            x       y       z     vdW  Elec       q    Type
REMARK                         _______ _______ _______ _____ _____    ______ ____
ROOT
ATOM      1  C   LIG    1        1.030   3.502   0.011  0.00  0.00    -0.140 A 
ATOM      2  C   LIG    1       -0.212   4.155   0.020  0.00  0.00    +0.170 A 
ATOM      3  C   LIG    1       -0.230   5.524   0.033  0.00  0.00    -0.070 A 
ATOM      4  C   LIG    1        0.976   6.223   0.025  0.00  0.00    +0.350 A 
ATOM      5  N   LIG    1        2.136   5.582   0.011  0.00  0.00    -0.460 NA
ATOM      6  C   LIG    1        2.198   4.266   0.004  0.00  0.00    +0.310 A 
ENDROOT
BRANCH   1  12
ATOM      7  C   LIG    1        0.002  -0.004   0.002  0.00  0.00    +0.190 A 
ATOM      8  C   LIG    1        1.191  -0.673  -0.013  0.00  0.00    -0.130 A 
ATOM      9  C   LIG    1        2.389   0.067  -0.021  0.00  0.00    +0.530 A 
ATOM     10  N   LIG    1        2.318   1.416  -0.013  0.00  0.00    -0.630 N 
ATOM     11  H   LIG    1        3.130   1.946  -0.017  0.00  0.00    +0.420 HD
ATOM     12  C   LIG    1        1.100   2.029   0.003  0.00  0.00    +0.450 A 
ATOM     13  O   LIG    1        3.470  -0.499  -0.034  0.00  0.00    -0.530 OA
ATOM     14  N   LIG    1       -0.016   1.327   0.009  0.00  0.00    -0.520 NA
BRANCH   7  16
ATOM     15  C   LIG    1       -1.783  -0.934   1.451  0.00  0.00    +0.040 C 
ATOM     16  C   LIG    1       -1.294  -0.773   0.010  0.00  0.00    +0.100 C 
ENDBRANCH   7  16
ENDBRANCH   1  12
BRANCH   4  17
ATOM     17  N   LIG    1        0.961   7.609   0.032  0.00  0.00    -0.500 N 
ATOM     18  C   LIG    1        0.201   8.121   1.179  0.00  0.00    +0.210 C 
ATOM     19  C   LIG    1        0.328   9.645   1.237  0.00  0.00    +0.000 C 
ATOM     20  C   LIG    1       -0.208  10.247  -0.065  0.00  0.00    +0.050 C 
ATOM     21  C   LIG    1        0.568   9.661  -1.247  0.00  0.00    +0.050 C 
ATOM     22  C   LIG    1        0.434   8.136  -1.233  0.00  0.00    +0.140 C 
ATOM     23  C   LIG    1        1.225   7.544  -2.401  0.00  0.00    +0.040 C 
BRANCH  19  24
ATOM     24  C   LIG    1        1.777  10.023   1.407  0.00  0.00    +0.540 C 
ATOM     25  O   LIG    1        2.326  10.710   0.571  0.00  0.00    -0.540 OA
ATOM     26  N   LIG    1        2.462   9.599   2.487  0.00  0.00    -0.850 N 
ATOM     27  H   LIG    1        3.395   9.842   2.596  0.00  0.00    +0.400 HD
ATOM     28  H   LIG    1        2.023   9.050   3.155  0.00  0.00    +0.400 HD
ENDBRANCH  19  24
ENDBRANCH   4  17
TORSDOF 4
