REMARK  Name = ZINCqH00000083cW.0
REMARK                            x       y       z     vdW  Elec       q    Type
REMARK                         _______ _______ _______ _____ _____    ______ ____
ROOT
ATOM      1  C   LIG    1       -4.966   0.164   1.042  0.00  0.00    -0.010 C 
ATOM      2  C   LIG    1       -4.861   1.161  -0.115  0.00  0.00    +0.060 C 
ATOM      3  C   LIG    1       -3.568   1.968   0.030  0.00  0.00    +0.210 C 
ATOM      4  N   LIG    1       -2.417   1.056   0.020  0.00  0.00    -0.470 N 
ATOM      5  C   LIG    1       -2.472   0.119   1.149  0.00  0.00    +0.200 C 
ATOM      6  C   LIG    1       -3.732  -0.743   1.038  0.00  0.00    +0.050 C 
ENDROOT
BRANCH   4   7
ATOM      7  C   LIG    1       -1.221   1.764   0.017  0.00  0.00    +0.340 A 
ATOM      8  C   LIG    1       -0.013   1.076   0.008  0.00  0.00    -0.040 A 
ATOM      9  C   LIG    1        1.170   1.793   0.001  0.00  0.00    +0.150 A 
ATOM     10  C   LIG    1        1.104   3.180   0.008  0.00  0.00    -0.270 A 
ATOM     11  C   LIG    1       -0.130   3.798   0.023  0.00  0.00    +0.360 A 
ATOM     12  N   LIG    1       -1.242   3.088   0.030  0.00  0.00    -0.520 NA
BRANCH  10  13
ATOM     13  C   LIG    1        2.367   4.002   0.001  0.00  0.00    +0.520 C 
ATOM     14  F   LIG    1        3.387   3.296   0.648  0.00  0.00    -0.180 F 
ATOM     15  F   LIG    1        2.141   5.210   0.669  0.00  0.00    -0.180 F 
ATOM     16  F   LIG    1        2.746   4.263  -1.320  0.00  0.00    -0.170 F 
ENDBRANCH  10  13
ENDBRANCH   4   7
BRANCH   1  19
ATOM     17  N   LIG    1       -6.507  -1.625   1.780  0.00  0.00    -0.730 N 
ATOM     18  H   LIG    1       -5.923  -1.771   2.540  0.00  0.00    +0.400 HD
ATOM     19  C   LIG    1       -6.208  -0.674   0.873  0.00  0.00    +0.520 C 
ATOM     20  O   LIG    1       -6.938  -0.491  -0.078  0.00  0.00    -0.530 OA
BRANCH  17  24
ATOM     21  C   LIG    1       -8.647  -3.860   3.409  0.00  0.00    +0.030 C 
ATOM     22  C   LIG    1       -9.743  -2.897   2.889  0.00  0.00    +0.040 C 
ATOM     23  C   LIG    1       -8.918  -1.738   2.277  0.00  0.00    +0.020 C 
ATOM     24  C   LIG    1       -7.714  -2.439   1.616  0.00  0.00    +0.240 C 
ATOM     25  C   LIG    1       -7.542  -3.789   2.335  0.00  0.00    +0.060 C 
BRANCH  21  27
ATOM     26  C   LIG    1      -10.448  -5.435   4.938  0.00  0.00    +0.140 C 
ATOM     27  S   LIG    1       -9.296  -5.549   3.541  0.00  0.00    -0.250 S 
ENDBRANCH  21  27
ENDBRANCH  17  24
ENDBRANCH   1  19
TORSDOF 5
