REMARK  Name = ZINCvU0000000H2J.0
REMARK                            x       y       z     vdW  Elec       q    Type
REMARK                         _______ _______ _______ _____ _____    ______ ____
ROOT
ATOM      1  C   LIG    1        2.255   6.441  -4.340  0.00  0.00    +0.040 C 
ATOM      2  C   LIG    1        2.281   6.757  -2.843  0.00  0.00    +0.290 C 
ENDROOT
BRANCH   2   3
ATOM      3  C   LIG    1        2.043   5.492  -2.058  0.00  0.00    -0.130 A 
ATOM      4  C   LIG    1        3.111   4.816  -1.498  0.00  0.00    +0.070 A 
ATOM      5  C   LIG    1        2.895   3.657  -0.779  0.00  0.00    -0.020 A 
ATOM      6  C   LIG    1        1.606   3.171  -0.618  0.00  0.00    +0.140 A 
ATOM      7  C   LIG    1        0.536   3.848  -1.186  0.00  0.00    -0.080 A 
ATOM      8  C   LIG    1        0.756   5.011  -1.899  0.00  0.00    +0.050 A 
BRANCH   6   9
ATOM      9  O   LIG    1        1.391   2.031   0.089  0.00  0.00    -0.300 OA
BRANCH   9  10
ATOM     10  C   LIG    1        0.054   1.526   0.117  0.00  0.00    +0.210 C 
ATOM     11  C   LIG    1       -0.731   2.222   1.230  0.00  0.00    +0.040 C 
BRANCH  10  12
ATOM     12  C   LIG    1        0.083   0.042   0.374  0.00  0.00    -0.090 A 
ATOM     13  C   LIG    1        0.982  -0.485   1.282  0.00  0.00    +0.040 A 
ATOM     14  C   LIG    1        1.005  -1.846   1.521  0.00  0.00    +0.010 A 
ATOM     15  C   LIG    1        0.136  -2.682   0.846  0.00  0.00    +0.010 A 
ATOM     16  C   LIG    1       -0.760  -2.156  -0.066  0.00  0.00    +0.010 A 
ATOM     17  C   LIG    1       -0.786  -0.794  -0.302  0.00  0.00    +0.010 A 
ENDBRANCH  10  12
ENDBRANCH   9  10
ENDBRANCH   6   9
ENDBRANCH   2   3
BRANCH   2  18
ATOM     18  N   LIG    1        1.231   7.730  -2.531  0.00  0.00    -0.730 N 
ATOM     19  H   LIG    1        0.365   7.426  -2.216  0.00  0.00    +0.390 HD
ATOM     20  C   LIG    1        1.468   9.048  -2.682  0.00  0.00    +0.580 C 
ATOM     21  O   LIG    1        2.519   9.426  -3.163  0.00  0.00    -0.530 OA
BRANCH  20  22
ATOM     22  C   LIG    1        0.455  10.030  -2.265  0.00  0.00    -0.210 A 
ATOM     23  C   LIG    1       -0.773   9.617  -1.841  0.00  0.00    +0.330 A 
ATOM     24  N   LIG    1       -1.732  10.491  -1.448  0.00  0.00    -0.620 N 
ATOM     25  H   LIG    1       -2.588  10.141  -1.155  0.00  0.00    +0.420 HD
ATOM     26  C   LIG    1       -1.543  11.824  -1.449  0.00  0.00    +0.550 A 
ATOM     27  C   LIG    1       -0.254  12.373  -1.890  0.00  0.00    -0.160 A 
ATOM     28  C   LIG    1       -0.005  13.744  -1.910  0.00  0.00    +0.090 A 
ATOM     29  C   LIG    1        1.229  14.204  -2.318  0.00  0.00    +0.000 A 
ATOM     30  C   LIG    1        2.218  13.318  -2.721  0.00  0.00    +0.050 A 
ATOM     31  C   LIG    1        1.990  11.959  -2.713  0.00  0.00    +0.050 A 
ATOM     32  O   LIG    1       -2.434  12.569  -1.088  0.00  0.00    -0.510 OA
ATOM     33  C   LIG    1        0.755  11.472  -2.296  0.00  0.00    +0.020 A 
ENDBRANCH  20  22
ENDBRANCH   2  18
TORSDOF 6
