REMARK  Name = ZINCqH0000004S0z.0
REMARK                            x       y       z     vdW  Elec       q    Type
REMARK                         _______ _______ _______ _____ _____    ______ ____
ROOT
ATOM      1  S   LIG    1        0.497   4.116  -1.290  0.00  0.00    +0.100 S 
ENDROOT
BRANCH   1   3
ATOM      2  N   LIG    1       -1.069   1.829  -0.903  0.00  0.00    -0.450 N 
ATOM      3  C   LIG    1       -0.749   2.924  -1.655  0.00  0.00    +0.150 A 
ATOM      4  N   LIG    1       -1.543   2.924  -2.702  0.00  0.00    -0.290 NA
ATOM      5  N   LIG    1       -2.333   1.911  -2.658  0.00  0.00    -0.250 NA
ATOM      6  C   LIG    1       -2.087   1.198  -1.581  0.00  0.00    +0.260 A 
BRANCH   6   7
ATOM      7  C   LIG    1       -2.774  -0.039  -1.176  0.00  0.00    +0.030 A 
ATOM      8  C   LIG    1       -3.954  -0.500  -1.677  0.00  0.00    +0.030 A 
ATOM      9  C   LIG    1       -4.234  -1.708  -1.009  0.00  0.00    -0.050 A 
ATOM     10  C   LIG    1       -3.228  -1.920  -0.137  0.00  0.00    +0.200 A 
ATOM     11  O   LIG    1       -2.347  -0.911  -0.241  0.00  0.00    -0.170 OA
ENDBRANCH   6   7
BRANCH   2  13
ATOM     12  C   LIG    1       -1.203   2.049   1.529  0.00  0.00    +0.050 C 
ATOM     13  C   LIG    1       -0.452   1.411   0.359  0.00  0.00    +0.310 C 
ENDBRANCH   2  13
ENDBRANCH   1   3
BRANCH   1  14
ATOM     14  C   LIG    1        0.309   5.214  -2.716  0.00  0.00    +0.110 C 
BRANCH  14  15
ATOM     15  C   LIG    1        1.304   6.343  -2.615  0.00  0.00    +0.530 C 
ATOM     16  N   LIG    1        1.312   7.319  -3.544  0.00  0.00    -0.550 N 
ATOM     17  C   LIG    1        0.330   7.264  -4.623  0.00  0.00    +0.310 C 
ATOM     18  C   LIG    1        1.063   7.352  -5.965  0.00  0.00    +0.100 C 
ATOM     19  S   LIG    1        1.830   8.995  -6.076  0.00  0.00    -0.100 S 
ATOM     20  C   LIG    1        2.606   9.164  -4.501  0.00  0.00    -0.110 A 
ATOM     21  C   LIG    1        3.571  10.151  -4.330  0.00  0.00    +0.050 A 
ATOM     22  C   LIG    1        4.186  10.319  -3.105  0.00  0.00    +0.010 A 
ATOM     23  C   LIG    1        3.842   9.503  -2.043  0.00  0.00    +0.030 A 
ATOM     24  C   LIG    1        2.888   8.518  -2.205  0.00  0.00    +0.040 A 
ATOM     25  C   LIG    1        2.263   8.337  -3.437  0.00  0.00    +0.140 A 
ATOM     26  O   LIG    1        2.096   6.372  -1.697  0.00  0.00    -0.490 OA
ENDBRANCH  14  15
ENDBRANCH   1  14
TORSDOF 5
