REMARK  Name = ZINCrH000004nfIw.1
REMARK                            x       y       z     vdW  Elec       q    Type
REMARK                         _______ _______ _______ _____ _____    ______ ____
ROOT
ATOM      1  C   LIG    1        5.319   0.692  -0.045  0.00  0.00    +0.100 C 
ENDROOT
BRANCH   1   2
ATOM      2  S   LIG    1        5.017   2.476  -0.033  0.00  0.00    -0.010 S 
BRANCH   2   8
ATOM      3  C   LIG    1       -1.241   3.140   0.031  0.00  0.00    +0.150 A 
ATOM      4  C   LIG    1       -1.214   1.750   0.017  0.00  0.00    -0.060 A 
ATOM      5  C   LIG    1       -0.013   1.076   0.008  0.00  0.00    +0.120 A 
ATOM      6  C   LIG    1        1.186   1.792   0.000  0.00  0.00    +0.020 A 
ATOM      7  N   LIG    1        2.495   1.421  -0.014  0.00  0.00    -0.480 NA
ATOM      8  C   LIG    1        3.255   2.488  -0.016  0.00  0.00    +0.260 A 
ATOM      9  N   LIG    1        2.477   3.612  -0.002  0.00  0.00    -0.580 N 
ATOM     10  H   LIG    1        2.791   4.529  -0.001  0.00  0.00    +0.430 HD
ATOM     11  C   LIG    1        1.155   3.196   0.008  0.00  0.00    +0.100 A 
ATOM     12  C   LIG    1       -0.060   3.863   0.024  0.00  0.00    -0.020 A 
BRANCH   3  14
ATOM     13  C   LIG    1       -3.614   2.988   0.053  0.00  0.00    +0.250 C 
ATOM     14  O   LIG    1       -2.434   3.793   0.046  0.00  0.00    -0.310 OA
ENDBRANCH   3  14
ENDBRANCH   2   8
ENDBRANCH   1   2
BRANCH   1  15
ATOM     15  C   LIG    1        6.826   0.430  -0.061  0.00  0.00    +0.060 C 
BRANCH  15  16
ATOM     16  C   LIG    1        7.082  -1.079  -0.072  0.00  0.00    +0.030 C 
BRANCH  16  17
ATOM     17  C   LIG    1        8.589  -1.340  -0.087  0.00  0.00    +0.310 C 
BRANCH  17  18
ATOM     18  N   LIG    1        8.834  -2.785  -0.098  0.00  0.00    -0.580 N 
ATOM     19  C   LIG    1        8.977  -3.540   1.006  0.00  0.00    +0.570 C 
ATOM     20  C   LIG    1        9.206  -4.941   0.592  0.00  0.00    -0.140 A 
ATOM     21  C   LIG    1        9.414  -6.129   1.273  0.00  0.00    +0.100 A 
ATOM     22  C   LIG    1        9.607  -7.304   0.562  0.00  0.00    +0.050 A 
ATOM     23  C   LIG    1        9.594  -7.296  -0.820  0.00  0.00    +0.050 A 
ATOM     24  C   LIG    1        9.387  -6.114  -1.515  0.00  0.00    +0.100 A 
ATOM     25  C   LIG    1        9.192  -4.933  -0.818  0.00  0.00    -0.140 A 
ATOM     26  O   LIG    1        8.925  -3.139   2.151  0.00  0.00    -0.460 OA
ATOM     27  C   LIG    1        8.951  -3.529  -1.212  0.00  0.00    +0.570 C 
ATOM     28  O   LIG    1        8.870  -3.117  -2.352  0.00  0.00    -0.460 OA
ENDBRANCH  17  18
ENDBRANCH  16  17
ENDBRANCH  15  16
ENDBRANCH   1  15
TORSDOF 7
