REMARK  Name = ZINCrH000004nfIw.0
REMARK                            x       y       z     vdW  Elec       q    Type
REMARK                         _______ _______ _______ _____ _____    ______ ____
ROOT
ATOM      1  C   LIG    1        5.449   4.395  -0.025  0.00  0.00    +0.100 C 
ENDROOT
BRANCH   1   2
ATOM      2  S   LIG    1        3.759   5.043  -0.006  0.00  0.00    -0.010 S 
BRANCH   2   9
ATOM      3  C   LIG    1        1.211  -0.691  -0.013  0.00  0.00    +0.120 A 
ATOM      4  C   LIG    1        0.002  -0.004   0.002  0.00  0.00    -0.040 A 
ATOM      5  C   LIG    1       -0.017   1.376   0.010  0.00  0.00    +0.060 A 
ATOM      6  C   LIG    1        1.175   2.083   0.002  0.00  0.00    +0.020 A 
ATOM      7  N   LIG    1        1.490   3.434   0.007  0.00  0.00    -0.580 N 
ATOM      8  H   LIG    1        0.860   4.172   0.018  0.00  0.00    +0.430 HD
ATOM      9  C   LIG    1        2.852   3.532  -0.006  0.00  0.00    +0.270 A 
ATOM     10  N   LIG    1        3.384   2.334  -0.018  0.00  0.00    -0.490 NA
ATOM     11  C   LIG    1        2.401   1.397  -0.014  0.00  0.00    +0.100 A 
ATOM     12  C   LIG    1        2.408   0.000  -0.021  0.00  0.00    +0.030 A 
BRANCH   3  14
ATOM     13  C   LIG    1       -0.054  -2.704  -0.012  0.00  0.00    +0.250 C 
ATOM     14  O   LIG    1        1.216  -2.051  -0.021  0.00  0.00    -0.320 OA
ENDBRANCH   3  14
ENDBRANCH   2   9
ENDBRANCH   1   2
BRANCH   1  15
ATOM     15  C   LIG    1        6.442   5.559  -0.028  0.00  0.00    +0.060 C 
BRANCH  15  16
ATOM     16  C   LIG    1        7.870   5.012  -0.044  0.00  0.00    +0.030 C 
BRANCH  16  17
ATOM     17  C   LIG    1        8.863   6.176  -0.046  0.00  0.00    +0.310 C 
BRANCH  17  18
ATOM     18  N   LIG    1       10.230   5.652  -0.062  0.00  0.00    -0.580 N 
ATOM     19  C   LIG    1       10.954   5.379   1.039  0.00  0.00    +0.570 C 
ATOM     20  C   LIG    1       12.275   4.867   0.619  0.00  0.00    -0.140 A 
ATOM     21  C   LIG    1       13.404   4.433   1.295  0.00  0.00    +0.100 A 
ATOM     22  C   LIG    1       14.514   4.010   0.580  0.00  0.00    +0.050 A 
ATOM     23  C   LIG    1       14.501   4.018  -0.802  0.00  0.00    +0.050 A 
ATOM     24  C   LIG    1       13.378   4.449  -1.492  0.00  0.00    +0.100 A 
ATOM     25  C   LIG    1       12.262   4.875  -0.790  0.00  0.00    -0.140 A 
ATOM     26  O   LIG    1       10.582   5.525   2.186  0.00  0.00    -0.460 OA
ATOM     27  C   LIG    1       10.931   5.386  -1.179  0.00  0.00    +0.570 C 
ATOM     28  O   LIG    1       10.535   5.540  -2.317  0.00  0.00    -0.460 OA
ENDBRANCH  17  18
ENDBRANCH  16  17
ENDBRANCH  15  16
ENDBRANCH   1  15
TORSDOF 7
