REMARK  Name = ZINCrD00000F5LuL.0
REMARK                            x       y       z     vdW  Elec       q    Type
REMARK                         _______ _______ _______ _____ _____    ______ ____
ROOT
ATOM      1  C   LIG    1        0.620  -0.304   2.577  0.00  0.00    -0.240 A 
ATOM      2  C   LIG    1        1.994  -0.299   2.305  0.00  0.00    +0.340 A 
ATOM      3  N   LIG    1        2.856   0.685   2.029  0.00  0.00    -0.540 NA
ATOM      4  C   LIG    1        4.131   0.423   1.806  0.00  0.00    +0.470 A 
ATOM      5  C   LIG    1        4.597  -0.908   1.857  0.00  0.00    -0.090 A 
ATOM      6  C   LIG    1        3.729  -1.904   2.142  0.00  0.00    +0.380 A 
ATOM      7  N   LIG    1        2.414  -1.602   2.365  0.00  0.00    -0.340 N 
ATOM      8  N   LIG    1        1.303  -2.399   2.662  0.00  0.00    -0.320 NA
ATOM      9  C   LIG    1        0.245  -1.636   2.787  0.00  0.00    +0.320 A 
ENDROOT
BRANCH   1  16
ATOM     10  C   LIG    1       -0.524   1.612   1.467  0.00  0.00    -0.100 A 
ATOM     11  C   LIG    1       -1.359   2.709   1.518  0.00  0.00    +0.050 A 
ATOM     12  C   LIG    1       -1.940   3.086   2.717  0.00  0.00    -0.040 A 
ATOM     13  C   LIG    1       -1.688   2.364   3.871  0.00  0.00    +0.020 A 
ATOM     14  C   LIG    1       -0.855   1.265   3.832  0.00  0.00    +0.030 A 
ATOM     15 CL   LIG    1       -2.989   4.468   2.773  0.00  0.00    -0.070 Cl
ATOM     16  C   LIG    1       -0.270   0.878   2.626  0.00  0.00    +0.030 A 
BRANCH  10  18
ATOM     17  C   LIG    1        1.396   1.999  -0.053  0.00  0.00    +0.060 C 
ATOM     18  C   LIG    1        0.107   1.203   0.161  0.00  0.00    +0.210 C 
BRANCH  18  19
ATOM     19  O   LIG    1       -0.800   1.469  -0.910  0.00  0.00    -0.560 OA
ATOM     20  H   LIG    1       -1.641   0.997  -0.840  0.00  0.00    +0.380 HD
ENDBRANCH  18  19
ENDBRANCH  10  18
ENDBRANCH   1  16
BRANCH   4  21
ATOM     21  N   LIG    1        5.010   1.453   1.522  0.00  0.00    -0.580 N 
ATOM     22  C   LIG    1        6.452   1.196   1.404  0.00  0.00    +0.280 C 
ATOM     23  C   LIG    1        7.200   2.148   2.342  0.00  0.00    +0.010 C 
ATOM     24  C   LIG    1        6.791   3.590   2.032  0.00  0.00    +0.030 C 
ATOM     25  C   LIG    1        5.289   3.759   2.271  0.00  0.00    -0.020 C 
ATOM     26  C   LIG    1        4.518   2.824   1.327  0.00  0.00    +0.300 C 
BRANCH  25  27
ATOM     27  C   LIG    1        4.887   5.208   1.993  0.00  0.00    +0.180 C 
BRANCH  27  28
ATOM     28  O   LIG    1        5.520   6.069   2.942  0.00  0.00    -0.570 OA
ATOM     29  H   LIG    1        5.309   7.005   2.825  0.00  0.00    +0.380 HD
ENDBRANCH  27  28
ENDBRANCH  25  27
ENDBRANCH   4  21
TORSDOF 6
