REMARK  Name = ZINCrD00000F5Lul.1
REMARK                            x       y       z     vdW  Elec       q    Type
REMARK                         _______ _______ _______ _____ _____    ______ ____
ROOT
ATOM      1  C   LIG    1       -1.286  -0.769   0.225  0.00  0.00    +0.370 A 
ATOM      2  N   LIG    1       -1.389  -2.066   0.139  0.00  0.00    -0.260 NA
ATOM      3  N   LIG    1       -2.732  -2.379  -0.113  0.00  0.00    -0.460 N 
ATOM      4  H   LIG    1       -3.102  -3.269  -0.222  0.00  0.00    +0.470 HD
ATOM      5  C   LIG    1       -3.414  -1.218  -0.181  0.00  0.00    +0.430 A 
ATOM      6  S   LIG    1       -5.092  -1.048  -0.476  0.00  0.00    -0.550 S 
ATOM      7  N   LIG    1       -2.537  -0.216   0.025  0.00  0.00    -0.340 N 
ENDROOT
BRANCH   1  12
ATOM      8  C   LIG    1        2.327   0.013   0.912  0.00  0.00    +0.130 A 
ATOM      9  C   LIG    1        2.294   1.400   0.972  0.00  0.00    -0.040 A 
ATOM     10  C   LIG    1        1.102   2.076   0.789  0.00  0.00    +0.060 A 
ATOM     11  C   LIG    1       -0.062   1.377   0.546  0.00  0.00    +0.040 A 
ATOM     12  C   LIG    1       -0.039  -0.017   0.485  0.00  0.00    -0.010 A 
ATOM     13  C   LIG    1        1.163  -0.698   0.670  0.00  0.00    +0.050 A 
BRANCH   8  14
ATOM     14  O   LIG    1        3.501  -0.647   1.093  0.00  0.00    -0.310 OA
BRANCH  14  16
ATOM     15  C   LIG    1        5.878  -0.762   1.514  0.00  0.00    +0.070 C 
ATOM     16  C   LIG    1        4.662   0.150   1.339  0.00  0.00    +0.170 C 
ENDBRANCH  14  16
ENDBRANCH   8  14
ENDBRANCH   1  12
BRANCH   7  17
ATOM     17  N   LIG    1       -2.840   1.152   0.034  0.00  0.00    -0.260 NA
ATOM     18  C   LIG    1       -4.076   1.544  -0.050  0.00  0.00    +0.360 C 
BRANCH  18  19
ATOM     19  C   LIG    1       -4.388   2.980  -0.151  0.00  0.00    -0.040 A 
ATOM     20  C   LIG    1       -3.354   3.922  -0.149  0.00  0.00    +0.050 A 
ATOM     21  C   LIG    1       -3.644   5.253  -0.248  0.00  0.00    +0.080 A 
ATOM     22  C   LIG    1       -4.974   5.675  -0.339  0.00  0.00    -0.100 A 
ATOM     23  C   LIG    1       -6.008   4.734  -0.335  0.00  0.00    +0.090 A 
ATOM     24  C   LIG    1       -5.718   3.402  -0.242  0.00  0.00    +0.070 A 
BRANCH  22  25
ATOM     25  C   LIG    1       -5.286   7.113  -0.440  0.00  0.00    +0.510 C 
ATOM     26  O   LIG    1       -6.442   7.480  -0.519  0.00  0.00    -0.500 OA
BRANCH  25  27
ATOM     27  O   LIG    1       -4.290   8.021  -0.444  0.00  0.00    -0.350 OA
ATOM     28  C   LIG    1       -4.672   9.418  -0.545  0.00  0.00    +0.290 C 
ENDBRANCH  25  27
ENDBRANCH  22  25
ENDBRANCH  18  19
ENDBRANCH   7  17
TORSDOF 7
