REMARK  Name = ZINCqH0000035IOZ.0
REMARK                            x       y       z     vdW  Elec       q    Type
REMARK                         _______ _______ _______ _____ _____    ______ ____
ROOT
ATOM      1  N   LIG    1        2.402   1.374  -0.018  0.00  0.00    -0.680 N 
ATOM      2  H   LIG    1        2.414   0.404   0.006  0.00  0.00    +0.410 HD
ATOM      3  C   LIG    1        3.557   2.061  -0.122  0.00  0.00    +0.710 C 
ATOM      4  N   LIG    1        4.725   1.400  -0.239  0.00  0.00    -0.620 N 
ATOM      5  C   LIG    1        4.758  -0.067  -0.359  0.00  0.00    +0.250 C 
ATOM      6  C   LIG    1        5.752  -0.614   0.672  0.00  0.00    +0.210 C 
ATOM      7  O   LIG    1        7.003   0.063   0.524  0.00  0.00    -0.360 OA
ATOM      8  C   LIG    1        6.940   1.469   0.775  0.00  0.00    +0.150 C 
ATOM      9  C   LIG    1        6.403   1.714   2.186  0.00  0.00    +0.030 C 
ATOM     10  C   LIG    1        6.006   2.124  -0.256  0.00  0.00    +0.300 C 
ATOM     11  O   LIG    1        3.544   3.276  -0.112  0.00  0.00    -0.560 OA
ENDROOT
BRANCH   1  15
ATOM     12  C   LIG    1       -1.231   3.418   0.200  0.00  0.00    +0.110 A 
ATOM     13  C   LIG    1       -1.205   2.094  -0.211  0.00  0.00    -0.040 A 
ATOM     14  C   LIG    1       -0.003   1.414  -0.279  0.00  0.00    +0.100 A 
ATOM     15  C   LIG    1        1.181   2.061   0.056  0.00  0.00    +0.130 A 
ATOM     16  C   LIG    1        1.155   3.388   0.462  0.00  0.00    +0.080 A 
ATOM     17  F   LIG    1        0.022   0.123  -0.675  0.00  0.00    -0.130 F 
ATOM     18  C   LIG    1       -0.048   4.065   0.534  0.00  0.00    +0.090 A 
ATOM     19  F   LIG    1       -0.074   5.357   0.930  0.00  0.00    -0.120 F 
BRANCH  12  21
ATOM     20  C   LIG    1       -3.591   3.358  -0.089  0.00  0.00    +0.250 C 
ATOM     21  O   LIG    1       -2.414   4.085   0.270  0.00  0.00    -0.300 OA
ENDBRANCH  12  21
ENDBRANCH   1  15
BRANCH   8  22
ATOM     22  C   LIG    1        8.319   2.064   0.651  0.00  0.00    -0.080 A 
ATOM     23  C   LIG    1        8.473   3.372   0.230  0.00  0.00    +0.020 A 
ATOM     24  C   LIG    1        9.737   3.919   0.122  0.00  0.00    +0.010 A 
ATOM     25  C   LIG    1       10.849   3.156   0.424  0.00  0.00    +0.000 A 
ATOM     26  C   LIG    1       10.696   1.847   0.841  0.00  0.00    +0.000 A 
ATOM     27  C   LIG    1        9.431   1.301   0.955  0.00  0.00    +0.040 A 
ENDBRANCH   8  22
TORSDOF 3
