REMARK  Name = ZINCpe00000MyAeY.0
REMARK                            x       y       z     vdW  Elec       q    Type
REMARK                         _______ _______ _______ _____ _____    ______ ____
ROOT
ATOM      1  N   LIG    1        3.486   0.242   1.875  0.00  0.00    -0.560 N 
ATOM      2  C   LIG    1        2.892  -0.782   1.252  0.00  0.00    +0.710 C 
ATOM      3  N   LIG    1        2.273  -0.404   0.118  0.00  0.00    -0.720 N 
ATOM      4  H   LIG    1        1.781  -0.975  -0.492  0.00  0.00    +0.440 HD
ATOM      5  C   LIG    1        2.490   1.047  -0.016  0.00  0.00    +0.170 C 
ATOM      6  C   LIG    1        3.265   1.363  -1.297  0.00  0.00    +0.110 C 
ATOM      7  O   LIG    1        2.909  -1.925   1.663  0.00  0.00    -0.530 OA
ATOM      8  C   LIG    1        3.313   1.399   1.207  0.00  0.00    +0.540 C 
ATOM      9  O   LIG    1        3.729   2.494   1.519  0.00  0.00    -0.440 OA
ENDROOT
BRANCH   5  10
ATOM     10  C   LIG    1        1.174   1.783   0.000  0.00  0.00    -0.110 A 
ATOM     11  C   LIG    1       -0.013   1.076   0.008  0.00  0.00    +0.050 A 
ATOM     12  C   LIG    1       -1.221   1.752   0.017  0.00  0.00    +0.090 A 
ATOM     13  C   LIG    1       -1.240   3.136   0.030  0.00  0.00    +0.040 A 
ATOM     14  C   LIG    1       -0.052   3.843   0.023  0.00  0.00    +0.030 A 
ATOM     15  F   LIG    1       -2.382   1.060   0.019  0.00  0.00    -0.130 F 
ATOM     16  C   LIG    1        1.156   3.167   0.008  0.00  0.00    +0.120 A 
ATOM     17  F   LIG    1        2.316   3.859   0.000  0.00  0.00    -0.110 F 
ENDBRANCH   5  10
BRANCH   1  18
ATOM     18  C   LIG    1        4.231   0.120   3.131  0.00  0.00    +0.360 C 
BRANCH  18  21
ATOM     19  N   LIG    1        3.760   0.256   5.556  0.00  0.00    -0.720 N 
ATOM     20  H   LIG    1        4.700   0.076   5.716  0.00  0.00    +0.410 HD
ATOM     21  C   LIG    1        3.293   0.323   4.293  0.00  0.00    +0.500 C 
ATOM     22  O   LIG    1        2.118   0.548   4.093  0.00  0.00    -0.530 OA
BRANCH  19  23
ATOM     23  C   LIG    1        2.849   0.453   6.686  0.00  0.00    +0.250 C 
ATOM     24  C   LIG    1        2.162  -0.872   7.024  0.00  0.00    +0.040 C 
BRANCH  23  25
ATOM     25  C   LIG    1        3.641   0.943   7.900  0.00  0.00    +0.180 C 
BRANCH  25  27
ATOM     26  C   LIG    1        5.340   0.279   9.454  0.00  0.00    +0.200 C 
ATOM     27  O   LIG    1        4.548  -0.078   8.320  0.00  0.00    -0.390 OA
ENDBRANCH  25  27
ENDBRANCH  23  25
ENDBRANCH  19  23
ENDBRANCH  18  21
ENDBRANCH   1  18
TORSDOF 6
