REMARK  Name = ZINCrg000000s4p0.0
REMARK                            x       y       z     vdW  Elec       q    Type
REMARK                         _______ _______ _______ _____ _____    ______ ____
ROOT
ATOM      1  C   LIG    1        1.210   2.214  -0.005  0.00  0.00    +0.230 C 
ATOM      2  C   LIG    1        2.110   1.844   1.176  0.00  0.00    +0.050 C 
ENDROOT
BRANCH   1   3
ATOM      3  C   LIG    1        0.016   1.295  -0.033  0.00  0.00    +0.520 C 
ATOM      4  N   LIG    1        0.139   0.045  -0.523  0.00  0.00    -0.610 N 
ATOM      5  C   LIG    1       -0.982  -0.905  -0.459  0.00  0.00    +0.320 C 
ATOM      6  C   LIG    1       -1.201  -1.488  -1.863  0.00  0.00    +0.210 C 
ATOM      7  N   LIG    1        0.063  -2.052  -2.356  0.00  0.00    -0.460 N 
ATOM      8  C   LIG    1        1.089  -1.012  -2.504  0.00  0.00    +0.230 C 
ATOM      9  C   LIG    1        1.400  -0.407  -1.130  0.00  0.00    +0.290 C 
ATOM     10  O   LIG    1       -1.057   1.681   0.380  0.00  0.00    -0.530 OA
BRANCH   7  11
ATOM     11  C   LIG    1       -0.128  -2.733  -3.546  0.00  0.00    +0.490 A 
ATOM     12  N   LIG    1        0.583  -2.389  -4.609  0.00  0.00    -0.550 NA
ATOM     13  C   LIG    1        0.429  -3.023  -5.760  0.00  0.00    +0.340 A 
ATOM     14  C   LIG    1       -0.497  -4.050  -5.847  0.00  0.00    -0.110 A 
ATOM     15  C   LIG    1       -1.228  -4.381  -4.717  0.00  0.00    +0.350 A 
ATOM     16  N   LIG    1       -1.022  -3.710  -3.596  0.00  0.00    -0.530 NA
ENDBRANCH   7  11
ENDBRANCH   1   3
BRANCH   1  17
ATOM     17  N   LIG    1        0.756   3.599   0.143  0.00  0.00    -0.730 N 
ATOM     18  H   LIG    1       -0.101   3.788   0.556  0.00  0.00    +0.410 HD
BRANCH  17  22
ATOM     19  C   LIG    1        1.443   8.427  -0.468  0.00  0.00    +0.090 C 
ATOM     20  C   LIG    1        1.917   7.005  -0.623  0.00  0.00    -0.040 A 
ATOM     21  C   LIG    1        1.125   5.963  -0.178  0.00  0.00    -0.040 A 
ATOM     22  C   LIG    1        1.558   4.649  -0.313  0.00  0.00    +0.220 A 
ATOM     23  C   LIG    1        2.783   4.379  -0.904  0.00  0.00    -0.020 A 
ATOM     24  C   LIG    1        3.579   5.431  -1.357  0.00  0.00    -0.090 A 
ATOM     25  C   LIG    1        3.138   6.747  -1.212  0.00  0.00    -0.020 A 
BRANCH  24  26
ATOM     26  C   LIG    1        4.887   5.152  -1.988  0.00  0.00    +0.560 C 
ATOM     27  O   LIG    1        5.270   4.005  -2.113  0.00  0.00    -0.540 OA
ATOM     28  N   LIG    1        5.655   6.170  -2.426  0.00  0.00    -0.850 N 
ATOM     29  H   LIG    1        6.513   5.987  -2.840  0.00  0.00    +0.410 HD
ATOM     30  H   LIG    1        5.350   7.085  -2.326  0.00  0.00    +0.400 HD
ENDBRANCH  24  26
ENDBRANCH  17  22
ENDBRANCH   1  17
TORSDOF 5
