REMARK  Name = ZINCrD000000AOcY.0
REMARK                            x       y       z     vdW  Elec       q    Type
REMARK                         _______ _______ _______ _____ _____    ______ ____
ROOT
ATOM      1  C   LIG    1       -2.747   0.505  -2.148  0.00  0.00    +0.510 C 
ATOM      2  N   LIG    1       -2.163   1.185  -1.141  0.00  0.00    -0.610 N 
ATOM      3  C   LIG    1       -0.755   1.594  -1.232  0.00  0.00    +0.280 C 
ATOM      4  C   LIG    1       -0.013   1.086   0.008  0.00  0.00    +0.030 C 
ATOM      5  C   LIG    1       -0.730   1.580   1.266  0.00  0.00    -0.030 C 
ATOM      6  C   LIG    1       -2.156   1.023   1.294  0.00  0.00    +0.020 C 
ATOM      7  C   LIG    1       -2.923   1.530   0.068  0.00  0.00    +0.270 C 
ATOM      8  O   LIG    1       -2.109   0.226  -3.141  0.00  0.00    -0.530 OA
ENDROOT
BRANCH   1   9
ATOM      9  C   LIG    1       -4.192   0.092  -2.040  0.00  0.00    +0.300 C 
BRANCH   9  12
ATOM     10  O   LIG    1       -6.652  -0.919  -2.488  0.00  0.00    -0.520 OA
ATOM     11  C   LIG    1       -5.845  -1.094  -3.381  0.00  0.00    +0.600 C 
ATOM     12  N   LIG    1       -4.587  -0.627  -3.254  0.00  0.00    -0.720 N 
ATOM     13  H   LIG    1       -3.943  -0.766  -3.966  0.00  0.00    +0.410 HD
BRANCH  11  14
ATOM     14  C   LIG    1       -6.239  -1.813  -4.595  0.00  0.00    -0.260 A 
ATOM     15  C   LIG    1       -7.478  -2.337  -4.839  0.00  0.00    +0.110 A 
ATOM     16  C   LIG    1       -7.575  -2.958  -6.061  0.00  0.00    +0.050 A 
ATOM     17  C   LIG    1       -6.452  -2.953  -6.791  0.00  0.00    -0.220 A 
ATOM     18 BR   LIG    1       -6.284  -3.734  -8.505  0.00  0.00    +0.020 Br
ATOM     19  S   LIG    1       -5.193  -2.147  -5.969  0.00  0.00    +0.270 S 
ENDBRANCH  11  14
ENDBRANCH   9  12
ENDBRANCH   1   9
BRANCH   5  20
ATOM     20  C   LIG    1        0.029   1.103   2.506  0.00  0.00    +0.260 C 
BRANCH  20  21
ATOM     21  C   LIG    1       -0.678   1.590   3.745  0.00  0.00    -0.130 A 
ATOM     22  C   LIG    1       -0.493   2.889   4.181  0.00  0.00    +0.050 A 
ATOM     23  C   LIG    1       -1.145   3.338   5.314  0.00  0.00    -0.010 A 
ATOM     24  C   LIG    1       -1.974   2.482   6.020  0.00  0.00    +0.100 A 
ATOM     25  C   LIG    1       -2.154   1.180   5.586  0.00  0.00    -0.010 A 
ATOM     26  F   LIG    1       -2.607   2.918   7.130  0.00  0.00    -0.140 F 
ATOM     27  C   LIG    1       -1.506   0.735   4.449  0.00  0.00    +0.050 A 
ENDBRANCH  20  21
BRANCH  20  28
ATOM     28  O   LIG    1        1.359   1.625   2.481  0.00  0.00    -0.550 OA
ATOM     29  H   LIG    1        1.402   2.591   2.473  0.00  0.00    +0.370 HD
ENDBRANCH  20  28
ENDBRANCH   5  20
TORSDOF 6
