REMARK  Name = ZINCrD000000BXgx.0
REMARK                            x       y       z     vdW  Elec       q    Type
REMARK                         _______ _______ _______ _____ _____    ______ ____
ROOT
ATOM      1  O   LIG    1       -2.235   1.265  -3.462  0.00  0.00    -0.570 OA
ATOM      2  C   LIG    1       -2.764   0.905  -2.427  0.00  0.00    +0.710 C 
ATOM      3  N   LIG    1       -2.106   1.026  -1.257  0.00  0.00    -0.740 N 
ATOM      4  H   LIG    1       -2.528   0.739  -0.432  0.00  0.00    +0.390 HD
ATOM      5  N   LIG    1       -4.007   0.386  -2.451  0.00  0.00    -0.690 N 
ATOM      6  H   LIG    1       -4.403   0.037  -1.637  0.00  0.00    +0.410 HD
ENDROOT
BRANCH   3   7
ATOM      7  C   LIG    1       -0.755   1.591  -1.231  0.00  0.00    +0.260 C 
ATOM      8  C   LIG    1       -0.839   3.119  -1.161  0.00  0.00    -0.000 C 
ATOM      9  C   LIG    1       -1.525   3.525   0.146  0.00  0.00    +0.210 C 
ATOM     10  O   LIG    1       -0.797   2.987   1.252  0.00  0.00    -0.370 OA
ATOM     11  C   LIG    1       -0.724   1.560   1.265  0.00  0.00    +0.200 C 
ATOM     12  C   LIG    1       -0.007   1.075   0.002  0.00  0.00    +0.030 C 
BRANCH  11  13
ATOM     13  C   LIG    1        0.040   1.105   2.482  0.00  0.00    -0.140 A 
ATOM     14  C   LIG    1       -0.315  -0.063   3.139  0.00  0.00    +0.060 A 
ATOM     15  C   LIG    1        0.419  -0.445   4.251  0.00  0.00    -0.030 A 
ATOM     16  C   LIG    1        1.467   0.352   4.672  0.00  0.00    +0.260 A 
ATOM     17  N   LIG    1        1.774   1.460   4.026  0.00  0.00    -0.480 NA
ATOM     18  C   LIG    1        1.100   1.851   2.962  0.00  0.00    +0.290 A 
ENDBRANCH  11  13
ENDBRANCH   3   7
BRANCH   5  19
ATOM     19  C   LIG    1       -4.727   0.349  -3.651  0.00  0.00    +0.150 A 
ATOM     20  C   LIG    1       -6.105   0.526  -3.640  0.00  0.00    +0.020 A 
ATOM     21  C   LIG    1       -6.814   0.495  -4.824  0.00  0.00    +0.010 A 
ATOM     22  C   LIG    1       -6.152   0.276  -6.025  0.00  0.00    +0.140 A 
ATOM     23  C   LIG    1       -4.776   0.093  -6.035  0.00  0.00    +0.040 A 
ATOM     24  C   LIG    1       -4.065   0.129  -4.852  0.00  0.00    +0.060 A 
BRANCH  22  25
ATOM     25  N   LIG    1       -6.874   0.239  -7.227  0.00  0.00    -0.320 N 
ATOM     26  C   LIG    1       -8.210   0.395  -7.358  0.00  0.00    +0.230 A 
ATOM     27  C   LIG    1       -8.510   0.295  -8.674  0.00  0.00    -0.110 A 
ATOM     28  C   LIG    1       -7.319   0.061  -9.370  0.00  0.00    +0.250 A 
ATOM     29  N   LIG    1       -6.338   0.028  -8.504  0.00  0.00    -0.290 NA
ENDBRANCH  22  25
ENDBRANCH   5  19
TORSDOF 4
