REMARK  Name = ZINCvU0000000Gsn.0
REMARK                            x       y       z     vdW  Elec       q    Type
REMARK                         _______ _______ _______ _____ _____    ______ ____
ROOT
ATOM      1  C   LIG    1        1.525   6.411  -2.379  0.00  0.00    -0.000 A 
ATOM      2  C   LIG    1        2.261   6.028  -3.455  0.00  0.00    -0.080 A 
ATOM      3  C   LIG    1        2.708   7.262  -4.100  0.00  0.00    -0.130 A 
ATOM      4  C   LIG    1        3.482   7.547  -5.228  0.00  0.00    +0.070 A 
ATOM      5  C   LIG    1        3.723   8.847  -5.573  0.00  0.00    +0.010 A 
ATOM      6  C   LIG    1        3.206   9.885  -4.811  0.00  0.00    +0.060 A 
ATOM      7  C   LIG    1        2.440   9.625  -3.694  0.00  0.00    +0.030 A 
ATOM      8  C   LIG    1        2.180   8.311  -3.324  0.00  0.00    +0.070 A 
ATOM      9  O   LIG    1        1.480   7.758  -2.314  0.00  0.00    -0.180 OA
ENDROOT
BRANCH   1  12
ATOM     10  N   LIG    1        0.165   5.991  -0.397  0.00  0.00    -0.650 N 
ATOM     11  H   LIG    1        0.032   6.948  -0.313  0.00  0.00    +0.420 HD
ATOM     12  C   LIG    1        0.873   5.497  -1.432  0.00  0.00    +0.600 C 
ATOM     13  O   LIG    1        0.970   4.293  -1.583  0.00  0.00    -0.490 OA
BRANCH  10  17
ATOM     14  C   LIG    1       -1.455   3.410   2.452  0.00  0.00    +0.100 A 
ATOM     15  C   LIG    1       -0.984   4.655   2.833  0.00  0.00    -0.020 A 
ATOM     16  C   LIG    1       -0.449   5.512   1.889  0.00  0.00    -0.100 A 
ATOM     17  C   LIG    1       -0.377   5.123   0.558  0.00  0.00    +0.140 A 
ATOM     18  C   LIG    1       -0.844   3.872   0.174  0.00  0.00    -0.010 A 
ATOM     19  C   LIG    1        0.058   6.869   2.305  0.00  0.00    +0.090 C 
ATOM     20  C   LIG    1       -1.380   3.014   1.120  0.00  0.00    +0.110 A 
BRANCH  14  22
ATOM     21  C   LIG    1       -2.033   3.041   4.730  0.00  0.00    +0.250 C 
ATOM     22  O   LIG    1       -1.987   2.570   3.382  0.00  0.00    -0.300 OA
ENDBRANCH  14  22
BRANCH  20  23
ATOM     23  O   LIG    1       -1.837   1.790   0.746  0.00  0.00    -0.300 OA
ATOM     24  C   LIG    1       -1.733   1.453  -0.639  0.00  0.00    +0.240 C 
ENDBRANCH  20  23
ENDBRANCH  10  17
ENDBRANCH   1  12
BRANCH   2  25
ATOM     25  C   LIG    1        2.556   4.618  -3.895  0.00  0.00    +0.300 C 
BRANCH  25  26
ATOM     26  O   LIG    1        1.538   4.176  -4.795  0.00  0.00    -0.300 OA
BRANCH  26  27
ATOM     27  C   LIG    1        1.655   2.916  -5.289  0.00  0.00    +0.130 A 
ATOM     28  C   LIG    1        2.731   2.122  -4.919  0.00  0.00    -0.080 A 
ATOM     29  C   LIG    1        2.844   0.839  -5.419  0.00  0.00    +0.040 A 
ATOM     30  C   LIG    1        1.893   0.350  -6.294  0.00  0.00    -0.040 A 
ATOM     31  C   LIG    1        0.822   1.141  -6.669  0.00  0.00    +0.050 A 
ATOM     32  C   LIG    1        0.701   2.423  -6.168  0.00  0.00    -0.020 A 
ENDBRANCH  26  27
ENDBRANCH  25  26
ENDBRANCH   2  25
TORSDOF 7
