REMARK  Name = ZINCkj000005fAAY.0
REMARK                            x       y       z     vdW  Elec       q    Type
REMARK                         _______ _______ _______ _____ _____    ______ ____
ROOT
ATOM      1  N   LIG    1       -0.136   1.362   0.241  0.00  0.00    -1.120 NA
ATOM      2  H   LIG    1       -0.937   1.897   0.352  0.00  0.00    +0.420 HD
ENDROOT
BRANCH   1   3
ATOM      3  S   LIG    1       -0.257  -0.274   0.013  0.00  0.00    +2.710 S 
ATOM      4  O   LIG    1        0.514  -0.577  -1.141  0.00  0.00    -0.930 OA
ATOM      5  O   LIG    1       -1.637  -0.594   0.132  0.00  0.00    -0.910 OA
BRANCH   3   6
ATOM      6  C   LIG    1        0.553  -1.052   1.371  0.00  0.00    -0.640 A 
ATOM      7  C   LIG    1        1.666  -1.841   1.152  0.00  0.00    +0.160 A 
ATOM      8  C   LIG    1        2.301  -2.451   2.218  0.00  0.00    +0.080 A 
ATOM      9  C   LIG    1        1.824  -2.271   3.502  0.00  0.00    +0.100 A 
ATOM     10  C   LIG    1        0.710  -1.481   3.721  0.00  0.00    +0.110 A 
ATOM     11  C   LIG    1        0.078  -0.867   2.657  0.00  0.00    +0.030 A 
BRANCH  11  12
ATOM     12  N   LIG    1       -1.110  -0.017   2.892  0.00  0.00    +0.020 N 
ATOM     13  O   LIG    1       -1.592   0.624   1.975  0.00  0.00    -0.170 OA
ATOM     14  O   LIG    1       -1.606   0.043   4.003  0.00  0.00    -0.110 OA
ENDBRANCH  11  12
ENDBRANCH   3   6
ENDBRANCH   1   3
BRANCH   1  15
ATOM     15  C   LIG    1        1.182   2.001   0.270  0.00  0.00    +0.310 C 
BRANCH  15  16
ATOM     16  C   LIG    1        1.018   3.515   0.117  0.00  0.00    +0.060 C 
BRANCH  16  17
ATOM     17  N   LIG    1        0.198   4.032   1.222  0.00  0.00    -0.640 N 
ATOM     18  H   LIG    1       -0.709   3.591   1.202  0.00  0.00    +0.430 HD
ATOM     19  H   LIG    1        0.090   5.030   1.121  0.00  0.00    +0.440 HD
ATOM     20  H   LIG    1        0.651   3.830   2.100  0.00  0.00    +0.430 HD
ENDBRANCH  16  17
BRANCH  16  22
ATOM     21  C   LIG    1        2.223   5.703   0.120  0.00  0.00    +0.040 C 
ATOM     22  C   LIG    1        2.394   4.183   0.147  0.00  0.00    +0.070 C 
ENDBRANCH  16  22
BRANCH  16  23
ATOM     23  C   LIG    1        0.330   3.822  -1.215  0.00  0.00    +0.050 C 
ATOM     24  C   LIG    1        1.183   3.283  -2.365  0.00  0.00    +0.060 C 
ENDBRANCH  16  23
ENDBRANCH  15  16
ENDBRANCH   1  15
TORSDOF 8
