REMARK  Name = ZINCpk00000eaIDM.0
REMARK                            x       y       z     vdW  Elec       q    Type
REMARK                         _______ _______ _______ _____ _____    ______ ____
ROOT
ATOM      1  C   LIG    1        2.902  -0.529  -0.352  0.00  0.00    +0.030 C 
ATOM      2  C   LIG    1        2.271  -0.032   0.950  0.00  0.00    +0.210 C 
ATOM      3  O   LIG    1        1.032  -0.711   1.170  0.00  0.00    -0.360 OA
ATOM      4  C   LIG    1        0.088  -0.566   0.107  0.00  0.00    +0.230 C 
ATOM      5  C   LIG    1       -0.286   0.914  -0.038  0.00  0.00    +0.260 C 
ATOM      6  N   LIG    1        0.955   1.697  -0.154  0.00  0.00    -0.610 N 
ATOM      7  C   LIG    1        1.121   2.590  -1.149  0.00  0.00    +0.490 C 
ATOM      8  O   LIG    1        2.183   3.162  -1.280  0.00  0.00    -0.500 OA
ATOM      9  C   LIG    1        2.009   1.475   0.849  0.00  0.00    +0.200 C 
ENDROOT
BRANCH   9  10
ATOM     10  C   LIG    1        3.290   2.193   0.418  0.00  0.00    +0.470 C 
ATOM     11  F   LIG    1        4.332   1.847   1.284  0.00  0.00    -0.180 F 
ATOM     12  F   LIG    1        3.086   3.576   0.461  0.00  0.00    -0.160 F 
ATOM     13  F   LIG    1        3.622   1.811  -0.886  0.00  0.00    -0.160 F 
ENDBRANCH   9  10
BRANCH   7  14
ATOM     14  C   LIG    1       -0.012   2.878  -2.100  0.00  0.00    +0.360 C 
BRANCH  14  15
ATOM     15  N   LIG    1        0.418   3.876  -3.083  0.00  0.00    -0.560 N 
ATOM     16  C   LIG    1        0.281   5.205  -2.928  0.00  0.00    +0.580 C 
ATOM     17  C   LIG    1        0.831   5.878  -4.123  0.00  0.00    -0.140 A 
ATOM     18  C   LIG    1        0.962   7.201  -4.515  0.00  0.00    +0.100 A 
ATOM     19  C   LIG    1        1.537   7.501  -5.740  0.00  0.00    +0.050 A 
ATOM     20  C   LIG    1        1.980   6.491  -6.573  0.00  0.00    +0.050 A 
ATOM     21  C   LIG    1        1.854   5.163  -6.194  0.00  0.00    +0.100 A 
ATOM     22  C   LIG    1        1.282   4.848  -4.973  0.00  0.00    -0.140 A 
ATOM     23  O   LIG    1       -0.211   5.760  -1.966  0.00  0.00    -0.460 OA
ATOM     24  C   LIG    1        0.996   3.583  -4.262  0.00  0.00    +0.580 C 
ATOM     25  O   LIG    1        1.241   2.468  -4.674  0.00  0.00    -0.460 OA
ENDBRANCH  14  15
ENDBRANCH   7  14
TORSDOF 3
