REMARK  Name = ZINCqH0000036YzJ.0
REMARK                            x       y       z     vdW  Elec       q    Type
REMARK                         _______ _______ _______ _____ _____    ______ ____
ROOT
ATOM      1  C   LIG    1        3.625  -1.723   0.241  0.00  0.00    -0.150 A 
ATOM      2  C   LIG    1        2.707  -2.661  -0.239  0.00  0.00    +0.130 A 
ATOM      3  C   LIG    1        3.052  -3.992  -0.297  0.00  0.00    -0.020 A 
ATOM      4  C   LIG    1        4.314  -4.404   0.121  0.00  0.00    +0.190 A 
ATOM      5  C   LIG    1        5.231  -3.472   0.600  0.00  0.00    -0.040 A 
ATOM      6  C   LIG    1        4.894  -2.139   0.655  0.00  0.00    +0.180 A 
ENDROOT
BRANCH   1  17
ATOM      7  C   LIG    1        1.702  -1.360  -2.115  0.00  0.00    +0.060 C 
ATOM      8  C   LIG    1        1.094  -0.743  -0.854  0.00  0.00    +0.220 C 
ATOM      9  C   LIG    1       -0.073   0.186  -1.224  0.00  0.00    +0.120 C 
ATOM     10  C   LIG    1        0.349   1.548  -0.721  0.00  0.00    -0.130 A 
ATOM     11  C   LIG    1       -0.292   2.771  -0.769  0.00  0.00    +0.050 A 
ATOM     12  C   LIG    1        0.311   3.892  -0.229  0.00  0.00    +0.000 A 
ATOM     13  C   LIG    1        1.558   3.787   0.360  0.00  0.00    +0.040 A 
ATOM     14  C   LIG    1        2.201   2.569   0.410  0.00  0.00    +0.010 A 
ATOM     15  C   LIG    1        1.599   1.432  -0.133  0.00  0.00    +0.140 A 
ATOM     16  N   LIG    1        2.074   0.118  -0.186  0.00  0.00    -0.540 N 
ATOM     17  C   LIG    1        3.258  -0.296   0.305  0.00  0.00    +0.570 C 
ATOM     18  O   LIG    1        4.025   0.508   0.801  0.00  0.00    -0.500 OA
ENDBRANCH   1  17
BRANCH   4  19
ATOM     19  N   LIG    1        4.660  -5.750   0.060  0.00  0.00    -0.480 N 
ATOM     20  C   LIG    1        3.657  -6.589   0.764  0.00  0.00    +0.190 C 
ATOM     21  C   LIG    1        3.891  -7.999   0.165  0.00  0.00    +0.040 C 
ATOM     22  C   LIG    1        4.204  -7.695  -1.319  0.00  0.00    +0.020 C 
ATOM     23  C   LIG    1        4.677  -6.230  -1.339  0.00  0.00    +0.180 C 
ENDBRANCH   4  19
BRANCH   5  24
ATOM     24  N   LIG    1        6.572  -3.915   1.044  0.00  0.00    +0.030 N 
ATOM     25  O   LIG    1        6.841  -5.102   1.077  0.00  0.00    -0.090 OA
ATOM     26  O   LIG    1        7.406  -3.092   1.376  0.00  0.00    -0.190 OA
ENDBRANCH   5  24
TORSDOF 3
