REMARK  Name = ZINCvU0000000E5J.0
REMARK                            x       y       z     vdW  Elec       q    Type
REMARK                         _______ _______ _______ _____ _____    ______ ____
ROOT
ATOM      1  C   LIG    1       -0.019   1.503   0.050  0.00  0.00    -0.220 A 
ATOM      2  C   LIG    1        1.046   2.307  -0.162  0.00  0.00    +0.270 A 
ATOM      3  N   LIG    1        0.612   3.593  -0.124  0.00  0.00    -0.310 N 
ATOM      4  N   LIG    1       -0.768   3.578   0.120  0.00  0.00    -0.260 NA
ATOM      5  C   LIG    1       -1.152   2.322   0.220  0.00  0.00    +0.150 A 
ENDROOT
BRANCH   1  10
ATOM      6  O   LIG    1        2.893  -1.981  -0.360  0.00  0.00    -0.510 OA
ATOM      7  C   LIG    1        1.779  -1.513  -0.467  0.00  0.00    +0.520 C 
ATOM      8  C   LIG    1        0.778  -2.053  -1.468  0.00  0.00    +0.160 C 
ATOM      9  S   LIG    1       -0.468  -0.704  -1.540  0.00  0.00    -0.220 S 
ATOM     10  C   LIG    1        0.001  -0.003   0.092  0.00  0.00    +0.380 C 
ATOM     11  N   LIG    1        1.370  -0.499   0.291  0.00  0.00    -0.600 N 
BRANCH  11  12
ATOM     12  C   LIG    1        2.255   0.107   1.290  0.00  0.00    +0.350 C 
BRANCH  12  13
ATOM     13  C   LIG    1        2.084  -0.602   2.608  0.00  0.00    -0.120 A 
ATOM     14  C   LIG    1        1.143  -0.154   3.517  0.00  0.00    +0.060 A 
ATOM     15  C   LIG    1        0.983  -0.806   4.724  0.00  0.00    -0.020 A 
ATOM     16  C   LIG    1        1.772  -1.902   5.029  0.00  0.00    +0.110 A 
ATOM     17  C   LIG    1        2.718  -2.347   4.121  0.00  0.00    -0.020 A 
ATOM     18  F   LIG    1        1.619  -2.538   6.211  0.00  0.00    -0.140 F 
ATOM     19  C   LIG    1        2.873  -1.696   2.912  0.00  0.00    +0.080 A 
ENDBRANCH  12  13
ENDBRANCH  11  12
ENDBRANCH   1  10
BRANCH   3  20
ATOM     20  C   LIG    1        1.404   4.736  -0.298  0.00  0.00    +0.150 A 
ATOM     21  C   LIG    1        2.767   4.608  -0.529  0.00  0.00    -0.010 A 
ATOM     22  C   LIG    1        3.545   5.736  -0.705  0.00  0.00    +0.050 A 
ATOM     23  C   LIG    1        2.969   6.991  -0.641  0.00  0.00    +0.010 A 
ATOM     24  C   LIG    1        1.613   7.122  -0.407  0.00  0.00    +0.040 A 
ATOM     25  C   LIG    1        0.829   5.998  -0.235  0.00  0.00    +0.020 A 
ENDBRANCH   3  20
BRANCH   5  26
ATOM     26  C   LIG    1       -2.537   1.853   0.471  0.00  0.00    -0.020 A 
ATOM     27  C   LIG    1       -3.609   2.447  -0.193  0.00  0.00    +0.050 A 
ATOM     28  C   LIG    1       -4.894   2.003   0.041  0.00  0.00    +0.010 A 
ATOM     29  C   LIG    1       -5.121   0.977   0.941  0.00  0.00    +0.020 A 
ATOM     30  C   LIG    1       -4.062   0.387   1.607  0.00  0.00    +0.010 A 
ATOM     31  C   LIG    1       -2.772   0.820   1.377  0.00  0.00    +0.020 A 
ENDBRANCH   5  26
TORSDOF 5
