REMARK  Name = ZINCrm00001RJwKh.0
REMARK                            x       y       z     vdW  Elec       q    Type
REMARK                         _______ _______ _______ _____ _____    ______ ____
ROOT
ATOM      1  N   LIG    1        4.694   0.131  -2.901  0.00  0.00    -0.380 N 
ATOM      2  C   LIG    1        3.749  -0.717  -3.637  0.00  0.00    +0.270 C 
ATOM      3  C   LIG    1        4.094  -0.696  -5.128  0.00  0.00    +0.060 C 
ATOM      4  C   LIG    1        5.518  -1.226  -5.324  0.00  0.00    +0.050 C 
ATOM      5  C   LIG    1        6.486  -0.380  -4.493  0.00  0.00    +0.270 C 
ATOM      6  C   LIG    1        6.052  -0.412  -3.026  0.00  0.00    +0.270 C 
ATOM      7  H   LIG    1        4.672   1.065  -3.280  0.00  0.00    +0.410 HD
ENDROOT
BRANCH   5   8
ATOM      8  N   LIG    1        6.468   1.003  -4.977  0.00  0.00    -0.740 N 
ATOM      9  H   LIG    1        5.894   1.659  -4.551  0.00  0.00    +0.390 HD
ATOM     10  C   LIG    1        7.249   1.363  -6.015  0.00  0.00    +0.530 C 
ATOM     11  O   LIG    1        7.966   0.543  -6.548  0.00  0.00    -0.480 OA
BRANCH  10  12
ATOM     12  C   LIG    1        7.230   2.785  -6.514  0.00  0.00    +0.000 C 
ATOM     13  C   LIG    1        8.200   2.927  -7.691  0.00  0.00    +0.070 C 
ATOM     14  C   LIG    1        8.115   4.355  -8.239  0.00  0.00    +0.060 C 
ATOM     15  C   LIG    1        6.670   4.657  -8.639  0.00  0.00    +0.260 C 
ATOM     16  N   LIG    1        5.797   4.530  -7.466  0.00  0.00    -0.500 N 
ATOM     17  H   LIG    1        4.853   4.780  -7.721  0.00  0.00    +0.440 HD
ATOM     18  H   LIG    1        6.122   5.147  -6.737  0.00  0.00    +0.430 HD
ATOM     19  C   LIG    1        5.817   3.146  -6.977  0.00  0.00    +0.270 C 
ENDBRANCH  10  12
ENDBRANCH   5   8
BRANCH   1  20
ATOM     20  C   LIG    1        4.312   0.169  -1.483  0.00  0.00    +0.240 C 
BRANCH  20  21
ATOM     21  C   LIG    1        5.202   1.170  -0.742  0.00  0.00    +0.220 C 
BRANCH  21  22
ATOM     22  O   LIG    1        5.029   2.471  -1.307  0.00  0.00    -0.550 OA
ATOM     23  H   LIG    1        4.122   2.804  -1.257  0.00  0.00    +0.390 HD
ENDBRANCH  21  22
BRANCH  21  24
ATOM     24  C   LIG    1        4.814   1.200   0.738  0.00  0.00    +0.090 C 
BRANCH  24  28
ATOM     25  C   LIG    1        9.051   1.800   3.330  0.00  0.00    +0.120 C 
ATOM     26  C   LIG    1        7.796   2.378   2.730  0.00  0.00    -0.110 A 
ATOM     27  C   LIG    1        6.920   1.561   2.040  0.00  0.00    +0.040 A 
ATOM     28  C   LIG    1        5.768   2.091   1.489  0.00  0.00    -0.110 A 
ATOM     29  C   LIG    1        5.492   3.439   1.627  0.00  0.00    +0.050 A 
ATOM     30  C   LIG    1        6.369   4.258   2.312  0.00  0.00    -0.010 A 
ATOM     31  C   LIG    1        7.520   3.728   2.868  0.00  0.00    +0.110 A 
ATOM     32  F   LIG    1        8.376   4.527   3.542  0.00  0.00    -0.130 F 
ENDBRANCH  24  28
ENDBRANCH  21  24
ENDBRANCH  20  21
ENDBRANCH   1  20
TORSDOF 7
