REMARK  Name = ZINCrm00001RJwKh.1
REMARK                            x       y       z     vdW  Elec       q    Type
REMARK                         _______ _______ _______ _____ _____    ______ ____
ROOT
ATOM      1  N   LIG    1       -3.355  -2.257  -2.806  0.00  0.00    -0.370 N 
ATOM      2  C   LIG    1       -2.293  -3.076  -3.402  0.00  0.00    +0.250 C 
ATOM      3  C   LIG    1       -2.629  -3.366  -4.866  0.00  0.00    +0.070 C 
ATOM      4  C   LIG    1       -3.959  -4.121  -4.939  0.00  0.00    +0.040 C 
ATOM      5  C   LIG    1       -5.045  -3.291  -4.248  0.00  0.00    +0.240 C 
ATOM      6  C   LIG    1       -4.618  -3.004  -2.807  0.00  0.00    +0.260 C 
ATOM      7  H   LIG    1       -3.466  -1.410  -3.342  0.00  0.00    +0.430 HD
ENDROOT
BRANCH   5   8
ATOM      8  N   LIG    1       -6.305  -4.037  -4.247  0.00  0.00    -0.720 N 
ATOM      9  H   LIG    1       -6.550  -4.573  -3.476  0.00  0.00    +0.410 HD
ATOM     10  C   LIG    1       -7.123  -3.980  -5.316  0.00  0.00    +0.530 C 
ATOM     11  O   LIG    1       -6.817  -3.310  -6.279  0.00  0.00    -0.510 OA
BRANCH  10  12
ATOM     12  C   LIG    1       -8.420  -4.748  -5.314  0.00  0.00    +0.000 C 
ATOM     13  C   LIG    1       -9.298  -4.266  -4.156  0.00  0.00    +0.060 C 
ATOM     14  C   LIG    1      -10.643  -4.997  -4.210  0.00  0.00    +0.060 C 
ATOM     15  C   LIG    1      -11.296  -4.753  -5.572  0.00  0.00    +0.260 C 
ATOM     16  N   LIG    1      -10.419  -5.258  -6.636  0.00  0.00    -0.500 N 
ATOM     17  H   LIG    1      -10.232  -6.237  -6.479  0.00  0.00    +0.430 HD
ATOM     18  H   LIG    1      -10.876  -5.145  -7.529  0.00  0.00    +0.440 HD
ATOM     19  C   LIG    1       -9.155  -4.513  -6.636  0.00  0.00    +0.290 C 
ENDBRANCH  10  12
ENDBRANCH   5   8
BRANCH   1  20
ATOM     20  C   LIG    1       -2.991  -1.915  -1.424  0.00  0.00    +0.230 C 
BRANCH  20  21
ATOM     21  C   LIG    1       -1.745  -1.028  -1.429  0.00  0.00    +0.220 C 
BRANCH  21  22
ATOM     22  O   LIG    1       -2.051   0.218  -2.059  0.00  0.00    -0.550 OA
ATOM     23  H   LIG    1       -2.755   0.717  -1.622  0.00  0.00    +0.390 HD
ENDBRANCH  21  22
BRANCH  21  24
ATOM     24  C   LIG    1       -1.293  -0.775   0.010  0.00  0.00    +0.080 C 
BRANCH  24  28
ATOM     25  C   LIG    1        3.711  -0.712  -0.037  0.00  0.00    +0.120 C 
ATOM     26  C   LIG    1        2.396   0.025  -0.021  0.00  0.00    -0.110 A 
ATOM     27  C   LIG    1        1.208  -0.680  -0.013  0.00  0.00    +0.040 A 
ATOM     28  C   LIG    1        0.002  -0.004   0.002  0.00  0.00    -0.110 A 
ATOM     29  C   LIG    1       -0.017   1.378   0.010  0.00  0.00    +0.050 A 
ATOM     30  C   LIG    1        1.171   2.086   0.002  0.00  0.00    -0.010 A 
ATOM     31  C   LIG    1        2.379   1.410  -0.014  0.00  0.00    +0.110 A 
ATOM     32  F   LIG    1        3.540   2.101  -0.021  0.00  0.00    -0.130 F 
ENDBRANCH  24  28
ENDBRANCH  21  24
ENDBRANCH  20  21
ENDBRANCH   1  20
TORSDOF 7
