REMARK  Name = ZINCBI0000000hgH.0
REMARK                            x       y       z     vdW  Elec       q    Type
REMARK                         _______ _______ _______ _____ _____    ______ ____
ROOT
ATOM      1  C   LIG    1        3.498   1.890  -1.034  0.00  0.00    +0.190 A 
ATOM      2  C   LIG    1        3.910   2.678   0.029  0.00  0.00    +0.020 A 
ATOM      3  C   LIG    1        5.167   3.255   0.016  0.00  0.00    +0.050 A 
ATOM      4  C   LIG    1        6.016   3.047  -1.055  0.00  0.00    +0.010 A 
ATOM      5  C   LIG    1        5.614   2.263  -2.120  0.00  0.00    +0.000 A 
ATOM      6  C   LIG    1        4.357   1.676  -2.113  0.00  0.00    +0.020 A 
ENDROOT
BRANCH   6   7
ATOM      7  N   LIG    1        3.950   0.877  -3.186  0.00  0.00    -0.490 N 
ATOM      8  C   LIG    1        4.793  -0.322  -3.300  0.00  0.00    +0.220 C 
ATOM      9  C   LIG    1        4.279  -1.197  -4.445  0.00  0.00    +0.270 C 
ATOM     10  N   LIG    1        4.314  -0.432  -5.699  0.00  0.00    -0.390 N 
ATOM     11  C   LIG    1        3.448   0.748  -5.579  0.00  0.00    +0.280 C 
ATOM     12  H   LIG    1        5.260  -0.137  -5.886  0.00  0.00    +0.420 HD
ATOM     13  C   LIG    1        3.955   1.639  -4.443  0.00  0.00    +0.230 C 
BRANCH  10  14
ATOM     14  C   LIG    1        3.837  -1.278  -6.801  0.00  0.00    +0.260 C 
BRANCH  14  15
ATOM     15  C   LIG    1        4.661  -2.567  -6.848  0.00  0.00    +0.100 C 
BRANCH  15  16
ATOM     16  C   LIG    1        4.172  -3.435  -7.979  0.00  0.00    -0.060 A 
ATOM     17  C   LIG    1        3.170  -4.370  -7.773  0.00  0.00    -0.030 A 
ATOM     18  C   LIG    1        2.744  -5.146  -8.835  0.00  0.00    +0.270 A 
ATOM     19  N   LIG    1        3.287  -5.010 -10.029  0.00  0.00    -0.470 NA
ATOM     20  C   LIG    1        4.245  -4.134 -10.260  0.00  0.00    +0.270 A 
ATOM     21  C   LIG    1        4.718  -3.321  -9.248  0.00  0.00    -0.030 A 
ENDBRANCH  15  16
ENDBRANCH  14  15
ENDBRANCH  10  14
ENDBRANCH   6   7
BRANCH   1  24
ATOM     22  O   LIG    1        2.183   1.266   1.195  0.00  0.00    -0.500 OA
ATOM     23  C   LIG    1        1.603   1.066   0.149  0.00  0.00    +0.520 C 
ATOM     24  N   LIG    1        2.225   1.304  -1.023  0.00  0.00    -0.660 N 
ATOM     25  H   LIG    1        1.792   1.069  -1.859  0.00  0.00    +0.420 HD
BRANCH  23  26
ATOM     26  C   LIG    1        0.186   0.553   0.159  0.00  0.00    -0.010 C 
ATOM     27  C   LIG    1       -0.732   1.562  -0.540  0.00  0.00    +0.050 C 
ATOM     28  C   LIG    1       -2.122   0.936  -0.681  0.00  0.00    +0.080 C 
ATOM     29  C   LIG    1       -2.558   0.359   0.635  0.00  0.00    +0.510 C 
ATOM     30  N   LIG    1       -1.719   0.096   1.638  0.00  0.00    -0.600 N 
ATOM     31  O   LIG    1       -3.736   0.119   0.794  0.00  0.00    -0.540 OA
ATOM     32  C   LIG    1       -0.285   0.376   1.603  0.00  0.00    +0.300 C 
BRANCH  30  33
ATOM     33  C   LIG    1       -2.269  -0.513   2.851  0.00  0.00    +0.340 C 
BRANCH  33  34
ATOM     34  C   LIG    1       -2.217  -2.014   2.728  0.00  0.00    -0.110 A 
ATOM     35  C   LIG    1       -3.287  -2.700   2.184  0.00  0.00    +0.040 A 
ATOM     36  C   LIG    1       -3.238  -4.076   2.067  0.00  0.00    +0.000 A 
ATOM     37  C   LIG    1       -2.122  -4.768   2.502  0.00  0.00    +0.010 A 
ATOM     38  C   LIG    1       -1.055  -4.082   3.051  0.00  0.00    +0.000 A 
ATOM     39  C   LIG    1       -1.102  -2.705   3.164  0.00  0.00    +0.010 A 
ENDBRANCH  33  34
ENDBRANCH  30  33
ENDBRANCH  23  26
ENDBRANCH   1  24
TORSDOF 8
