REMARK  Name = ZINCvU0000000Iwj.0
REMARK                            x       y       z     vdW  Elec       q    Type
REMARK                         _______ _______ _______ _____ _____    ______ ____
ROOT
ATOM      1  C   LIG    1        8.304  -1.066  -0.320  0.00  0.00    +0.540 C 
ATOM      2  N   LIG    1        8.879  -2.248  -0.022  0.00  0.00    -0.660 N 
ATOM      3  H   LIG    1        8.326  -3.014   0.201  0.00  0.00    +0.420 HD
ATOM      4  O   LIG    1        8.989  -0.135  -0.690  0.00  0.00    -0.500 OA
ENDROOT
BRANCH   2   5
ATOM      5  C   LIG    1       10.274  -2.372  -0.036  0.00  0.00    +0.200 A 
ATOM      6  C   LIG    1       11.073  -1.243   0.045  0.00  0.00    +0.010 A 
ATOM      7  C   LIG    1       12.451  -1.367   0.032  0.00  0.00    +0.070 A 
ATOM      8  C   LIG    1       13.035  -2.616  -0.063  0.00  0.00    -0.020 A 
ATOM      9  C   LIG    1       12.247  -3.749  -0.144  0.00  0.00    +0.100 A 
ATOM     10  C   LIG    1       10.864  -3.634  -0.125  0.00  0.00    -0.180 A 
BRANCH  10  11
ATOM     11  S   LIG    1        9.856  -5.076  -0.221  0.00  0.00    -0.000 S 
BRANCH  11  12
ATOM     12  C   LIG    1        9.330  -5.303   1.446  0.00  0.00    -0.110 A 
ATOM     13  C   LIG    1        9.680  -4.375   2.419  0.00  0.00    -0.010 A 
ATOM     14  C   LIG    1        9.262  -4.553   3.723  0.00  0.00    +0.030 A 
ATOM     15  C   LIG    1        8.504  -5.659   4.062  0.00  0.00    +0.010 A 
ATOM     16  C   LIG    1        8.158  -6.588   3.097  0.00  0.00    +0.030 A 
ATOM     17  C   LIG    1        8.568  -6.413   1.790  0.00  0.00    +0.030 A 
ENDBRANCH  11  12
ENDBRANCH  10  11
ENDBRANCH   2   5
BRANCH   1  18
ATOM     18  C   LIG    1        6.812  -0.900  -0.193  0.00  0.00    +0.110 C 
BRANCH  18  19
ATOM     19  S   LIG    1        6.350   0.786  -0.660  0.00  0.00    +0.090 S 
BRANCH  19  22
ATOM     20  C   LIG    1        4.001   3.071  -1.101  0.00  0.00    +0.360 C 
ATOM     21  N   LIG    1        3.710   1.712  -0.638  0.00  0.00    -0.450 N 
ATOM     22  C   LIG    1        4.606   0.702  -0.426  0.00  0.00    +0.140 A 
ATOM     23  N   LIG    1        3.924  -0.345  -0.021  0.00  0.00    -0.290 NA
ATOM     24  N   LIG    1        2.672  -0.060   0.040  0.00  0.00    -0.250 NA
ATOM     25  C   LIG    1        2.478   1.187  -0.323  0.00  0.00    +0.220 A 
BRANCH  25  26
ATOM     26  C   LIG    1        1.181   1.892  -0.387  0.00  0.00    -0.060 A 
ATOM     27  C   LIG    1        1.046   3.164   0.170  0.00  0.00    +0.060 A 
ATOM     28  C   LIG    1       -0.168   3.817   0.107  0.00  0.00    +0.010 A 
ATOM     29  C   LIG    1       -1.252   3.214  -0.506  0.00  0.00    +0.070 A 
ATOM     30  C   LIG    1       -1.126   1.955  -1.065  0.00  0.00    +0.000 A 
ATOM     31  C   LIG    1        0.082   1.287  -1.005  0.00  0.00    +0.140 A 
ATOM     32  F   LIG    1        0.203   0.055  -1.547  0.00  0.00    -0.120 F 
ENDBRANCH  25  26
ENDBRANCH  19  22
ENDBRANCH  18  19
ENDBRANCH   1  18
TORSDOF 7
