REMARK  Name = ZINCvU0000000Hl0.0
REMARK                            x       y       z     vdW  Elec       q    Type
REMARK                         _______ _______ _______ _____ _____    ______ ____
ROOT
ATOM      1  C   LIG    1        6.388   5.548  -2.878  0.00  0.00    +0.530 C 
ATOM      2  O   LIG    1        7.069   6.001  -1.980  0.00  0.00    -0.480 OA
ENDROOT
BRANCH   1   3
ATOM      3  C   LIG    1        6.831   5.683  -4.281  0.00  0.00    -0.060 A 
ATOM      4  C   LIG    1        7.628   4.706  -4.877  0.00  0.00    -0.070 A 
ATOM      5  C   LIG    1        8.026   3.522  -4.036  0.00  0.00    +0.080 C 
ATOM      6  C   LIG    1        8.511   2.374  -4.920  0.00  0.00    +0.030 C 
ATOM      7  C   LIG    1        9.571   2.921  -5.883  0.00  0.00    +0.030 C 
ATOM      8  C   LIG    1        8.881   3.828  -6.899  0.00  0.00    +0.110 C 
ATOM      9  C   LIG    1        8.027   4.857  -6.199  0.00  0.00    +0.170 A 
ATOM     10  N   LIG    1        7.667   5.915  -6.899  0.00  0.00    -0.460 NA
ATOM     11  C   LIG    1        6.909   6.888  -6.397  0.00  0.00    +0.140 A 
ATOM     12  C   LIG    1        6.544   8.003  -7.173  0.00  0.00    +0.060 A 
ATOM     13  C   LIG    1        5.769   8.980  -6.629  0.00  0.00    +0.040 A 
ATOM     14  C   LIG    1        5.327   8.896  -5.311  0.00  0.00    +0.030 A 
ATOM     15  C   LIG    1        5.660   7.830  -4.529  0.00  0.00    +0.010 A 
ATOM     16  C   LIG    1        6.453   6.805  -5.058  0.00  0.00    -0.070 A 
ENDBRANCH   1   3
BRANCH   1  17
ATOM     17  O   LIG    1        5.229   4.923  -2.595  0.00  0.00    -0.330 OA
BRANCH  17  18
ATOM     18  C   LIG    1        4.856   4.827  -1.194  0.00  0.00    +0.310 C 
BRANCH  18  19
ATOM     19  C   LIG    1        3.541   4.102  -1.073  0.00  0.00    +0.460 C 
ATOM     20  O   LIG    1        2.975   3.707  -2.065  0.00  0.00    -0.480 OA
BRANCH  19  21
ATOM     21  O   LIG    1        2.998   3.896   0.137  0.00  0.00    -0.340 OA
BRANCH  21  28
ATOM     22  C   LIG    1        0.921   3.664   1.388  0.00  0.00    +0.000 C 
ATOM     23  C   LIG    1       -0.415   2.921   1.432  0.00  0.00    +0.030 C 
ATOM     24  C   LIG    1       -0.159   1.417   1.547  0.00  0.00    +0.020 C 
ATOM     25  C   LIG    1        0.649   0.943   0.338  0.00  0.00    -0.010 C 
ATOM     26  C   LIG    1        1.986   1.687   0.294  0.00  0.00    +0.010 C 
ATOM     27  C   LIG    1       -0.136   1.230  -0.944  0.00  0.00    +0.020 C 
ATOM     28  C   LIG    1        1.729   3.191   0.178  0.00  0.00    +0.190 C 
BRANCH  22  30
ATOM     29  C   LIG    1       -0.209   5.444   0.048  0.00  0.00    +0.010 C 
ATOM     30  C   LIG    1        0.665   5.168   1.273  0.00  0.00    -0.020 C 
ATOM     31  C   LIG    1       -0.051   5.662   2.532  0.00  0.00    +0.030 C 
ENDBRANCH  22  30
ENDBRANCH  21  28
ENDBRANCH  19  21
ENDBRANCH  18  19
ENDBRANCH  17  18
ENDBRANCH   1  17
TORSDOF 7
