REMARK  Name = ZINCvU0000000EZA.0
REMARK                            x       y       z     vdW  Elec       q    Type
REMARK                         _______ _______ _______ _____ _____    ______ ____
ROOT
ATOM      1  C   LIG    1       -1.872  -5.843   1.140  0.00  0.00    +0.200 A 
ATOM      2  N   LIG    1       -2.875  -5.995   0.311  0.00  0.00    -0.310 NA
ATOM      3  N   LIG    1       -3.550  -7.173   0.656  0.00  0.00    -0.320 NA
ATOM      4  C   LIG    1       -2.943  -7.700   1.692  0.00  0.00    +0.410 A 
ATOM      5  N   LIG    1       -1.889  -6.892   2.020  0.00  0.00    -0.420 N 
ENDROOT
BRANCH   4   6
ATOM      6  N   LIG    1       -3.307  -8.873   2.341  0.00  0.00    -0.460 N 
ATOM      7  C   LIG    1       -3.261 -10.018   1.424  0.00  0.00    +0.210 C 
ATOM      8  C   LIG    1       -3.524 -11.309   2.203  0.00  0.00    +0.030 C 
ATOM      9  C   LIG    1       -4.898 -11.223   2.874  0.00  0.00    +0.010 C 
ATOM     10  C   LIG    1       -4.935  -9.994   3.787  0.00  0.00    +0.030 C 
ATOM     11  C   LIG    1       -4.631  -8.742   2.962  0.00  0.00    +0.210 C 
ENDBRANCH   4   6
BRANCH   5  12
ATOM     12  C   LIG    1       -0.984  -7.102   3.071  0.00  0.00    +0.110 A 
ATOM     13  C   LIG    1       -0.118  -8.186   3.037  0.00  0.00    +0.050 A 
ATOM     14  C   LIG    1        0.775  -8.387   4.072  0.00  0.00    +0.020 A 
ATOM     15  C   LIG    1        0.799  -7.517   5.146  0.00  0.00    +0.030 A 
ATOM     16  C   LIG    1       -0.067  -6.439   5.185  0.00  0.00    +0.020 A 
ATOM     17  C   LIG    1       -0.958  -6.230   4.151  0.00  0.00    +0.030 A 
ENDBRANCH   5  12
BRANCH   1  18
ATOM     18  S   LIG    1       -0.710  -4.518   1.130  0.00  0.00    +0.080 S 
BRANCH  18  20
ATOM     19  C   LIG    1       -1.098  -4.294  -1.569  0.00  0.00    +0.110 C 
ATOM     20  C   LIG    1       -1.262  -3.503  -0.269  0.00  0.00    +0.140 C 
BRANCH  20  21
ATOM     21  C   LIG    1       -0.430  -2.248  -0.337  0.00  0.00    +0.170 A 
ATOM     22  N   LIG    1        0.866  -2.176  -0.218  0.00  0.00    -0.250 NA
ATOM     23  N   LIG    1        1.240  -0.950  -0.333  0.00  0.00    -0.270 NA
ATOM     24  C   LIG    1        0.186  -0.191  -0.521  0.00  0.00    +0.220 A 
ATOM     25  O   LIG    1       -0.892  -1.000  -0.531  0.00  0.00    -0.210 OA
BRANCH  24  26
ATOM     26  C   LIG    1        0.182   1.277  -0.697  0.00  0.00    -0.030 A 
ATOM     27  C   LIG    1       -1.020   1.955  -0.902  0.00  0.00    +0.050 A 
ATOM     28  C   LIG    1       -1.017   3.326  -1.059  0.00  0.00    +0.010 A 
ATOM     29  C   LIG    1        0.175   4.026  -1.025  0.00  0.00    +0.040 A 
ATOM     30  C   LIG    1        1.371   3.359  -0.828  0.00  0.00    +0.020 A 
ATOM     31  C   LIG    1        1.382   1.990  -0.663  0.00  0.00    +0.080 A 
ENDBRANCH  24  26
ENDBRANCH  20  21
ENDBRANCH  18  20
ENDBRANCH   1  18
TORSDOF 6
