REMARK  Name = ZINCvU00000004YJ.0
REMARK                            x       y       z     vdW  Elec       q    Type
REMARK                         _______ _______ _______ _____ _____    ______ ____
ROOT
ATOM      1  C   LIG    1       -3.300   2.159  -5.297  0.00  0.00    +0.180 C 
ATOM      2  C   LIG    1       -3.196   2.548  -3.995  0.00  0.00    -0.130 C 
ENDROOT
BRANCH   1   8
ATOM      3  C   LIG    1       -3.792   3.146  -7.530  0.00  0.00    +0.150 A 
ATOM      4  C   LIG    1       -4.647   3.824  -8.383  0.00  0.00    -0.080 A 
ATOM      5  C   LIG    1       -5.883   4.247  -7.934  0.00  0.00    +0.070 A 
ATOM      6  C   LIG    1       -6.282   3.993  -6.631  0.00  0.00    -0.030 A 
ATOM      7  C   LIG    1       -5.449   3.315  -5.769  0.00  0.00    +0.090 A 
ATOM      8  C   LIG    1       -4.193   2.881  -6.209  0.00  0.00    -0.120 A 
BRANCH   3  10
ATOM      9  C   LIG    1       -2.236   3.041  -9.322  0.00  0.00    +0.250 C 
ATOM     10  O   LIG    1       -2.575   2.735  -7.968  0.00  0.00    -0.310 OA
ENDBRANCH   3  10
ENDBRANCH   1   8
BRANCH   2  11
ATOM     11  C   LIG    1       -3.866   3.788  -3.537  0.00  0.00    -0.040 A 
ATOM     12  C   LIG    1       -3.441   5.029  -4.012  0.00  0.00    +0.020 A 
ATOM     13  C   LIG    1       -4.071   6.180  -3.584  0.00  0.00    +0.000 A 
ATOM     14  C   LIG    1       -5.116   6.105  -2.680  0.00  0.00    +0.010 A 
ATOM     15  C   LIG    1       -5.538   4.877  -2.202  0.00  0.00    +0.000 A 
ATOM     16  C   LIG    1       -4.919   3.719  -2.626  0.00  0.00    +0.020 A 
ENDBRANCH   2  11
BRANCH   2  17
ATOM     17  C   LIG    1       -2.421   1.739  -3.046  0.00  0.00    +0.510 C 
ATOM     18  O   LIG    1       -1.871   0.722  -3.422  0.00  0.00    -0.510 OA
BRANCH  17  19
ATOM     19  O   LIG    1       -2.318   2.124  -1.758  0.00  0.00    -0.330 OA
BRANCH  19  20
ATOM     20  C   LIG    1       -1.536   1.276  -0.877  0.00  0.00    +0.240 C 
BRANCH  20  21
ATOM     21  C   LIG    1       -1.533   1.861   0.512  0.00  0.00    +0.400 C 
ATOM     22  O   LIG    1       -2.132   2.892   0.737  0.00  0.00    -0.420 OA
BRANCH  21  23
ATOM     23  C   LIG    1       -0.804   1.182   1.595  0.00  0.00    -0.170 A 
ATOM     24  C   LIG    1       -0.207  -0.061   1.369  0.00  0.00    +0.060 A 
ATOM     25  C   LIG    1        0.478  -0.689   2.388  0.00  0.00    -0.110 A 
ATOM     26  C   LIG    1        0.566  -0.096   3.635  0.00  0.00    -0.050 A 
ATOM     27  C   LIG    1       -0.026   1.133   3.868  0.00  0.00    +0.000 A 
ATOM     28  C   LIG    1        1.311  -0.792   4.745  0.00  0.00    +0.100 C 
ATOM     29  C   LIG    1        1.127  -2.027   2.144  0.00  0.00    +0.090 C 
ATOM     30  C   LIG    1       -0.711   1.775   2.858  0.00  0.00    -0.020 A 
ATOM     31  C   LIG    1       -1.356   3.113   3.115  0.00  0.00    +0.100 C 
ENDBRANCH  21  23
ENDBRANCH  20  21
ENDBRANCH  19  20
ENDBRANCH  17  19
ENDBRANCH   2  17
TORSDOF 8
