REMARK  Name = ZINCrD000000AsXZ.0
REMARK                            x       y       z     vdW  Elec       q    Type
REMARK                         _______ _______ _______ _____ _____    ______ ____
ROOT
ATOM      1  O   LIG    1       -6.247  -5.251  -2.523  0.00  0.00    -0.520 OA
ATOM      2  C   LIG    1       -5.080  -5.577  -2.576  0.00  0.00    +0.530 C 
ATOM      3  N   LIG    1       -4.632  -6.603  -1.827  0.00  0.00    -0.610 N 
ATOM      4  C   LIG    1       -3.222  -7.013  -1.886  0.00  0.00    +0.270 C 
ATOM      5  C   LIG    1       -2.648  -6.986  -0.459  0.00  0.00    +0.260 C 
ATOM      6  N   LIG    1       -3.563  -7.719   0.427  0.00  0.00    -0.610 N 
ATOM      7  C   LIG    1       -4.974  -7.313   0.482  0.00  0.00    +0.290 C 
ATOM      8  C   LIG    1       -3.115  -8.746   1.177  0.00  0.00    +0.600 C 
ATOM      9  O   LIG    1       -3.864  -9.300   1.960  0.00  0.00    -0.520 OA
ATOM     10  C   LIG    1       -5.547  -7.337  -0.940  0.00  0.00    +0.290 C 
ENDROOT
BRANCH   8  11
ATOM     11  C   LIG    1       -1.725  -9.195   1.049  0.00  0.00    -0.270 A 
ATOM     12  C   LIG    1       -1.320 -10.495   0.930  0.00  0.00    +0.090 A 
ATOM     13  C   LIG    1        0.043 -10.632   0.825  0.00  0.00    +0.010 A 
ATOM     14  C   LIG    1        0.733  -9.485   0.857  0.00  0.00    -0.070 A 
ATOM     15  S   LIG    1       -0.313  -8.148   1.018  0.00  0.00    +0.210 S 
ENDBRANCH   8  11
BRANCH   2  16
ATOM     16  C   LIG    1       -4.131  -4.834  -3.481  0.00  0.00    +0.100 C 
BRANCH  16  17
ATOM     17  S   LIG    1       -5.027  -3.521  -4.348  0.00  0.00    +0.030 S 
BRANCH  17  18
ATOM     18  C   LIG    1       -3.715  -2.837  -5.306  0.00  0.00    +0.130 A 
ATOM     19  N   LIG    1       -2.507  -3.356  -5.206  0.00  0.00    -0.490 NA
ATOM     20  C   LIG    1       -1.483  -2.868  -5.915  0.00  0.00    +0.140 A 
ATOM     21  C   LIG    1       -0.197  -3.424  -5.805  0.00  0.00    +0.030 A 
ATOM     22  C   LIG    1        0.828  -2.908  -6.537  0.00  0.00    +0.040 A 
ATOM     23  C   LIG    1        0.624  -1.833  -7.399  0.00  0.00    +0.010 A 
ATOM     24  C   LIG    1       -0.608  -1.268  -7.531  0.00  0.00    +0.040 A 
ATOM     25  C   LIG    1       -1.687  -1.774  -6.792  0.00  0.00    -0.110 A 
ATOM     26  C   LIG    1       -2.976  -1.212  -6.899  0.00  0.00    +0.110 A 
ATOM     27  C   LIG    1       -3.981  -1.754  -6.156  0.00  0.00    -0.010 A 
ENDBRANCH  17  18
ENDBRANCH  16  17
ENDBRANCH   2  16
TORSDOF 4
