REMARK  Name = ZINCbw0000000rdc.0
REMARK                            x       y       z     vdW  Elec       q    Type
REMARK                         _______ _______ _______ _____ _____    ______ ____
ROOT
ATOM      1  C   LIG    1       -0.013   1.076   0.008  0.00  0.00    +0.000 A 
ATOM      2  C   LIG    1       -1.222   1.748   0.017  0.00  0.00    +0.020 A 
ATOM      3  C   LIG    1       -1.247   3.127   0.031  0.00  0.00    +0.020 A 
ATOM      4  C   LIG    1       -0.050   3.845   0.023  0.00  0.00    -0.010 A 
ATOM      5  C   LIG    1        1.166   3.160   0.008  0.00  0.00    -0.020 A 
ATOM      6  C   LIG    1        1.178   1.781   0.000  0.00  0.00    +0.010 A 
ENDROOT
BRANCH   4   7
ATOM      7  C   LIG    1       -0.070   5.323   0.031  0.00  0.00    +0.040 A 
ATOM      8  C   LIG    1       -1.182   6.110   0.046  0.00  0.00    -0.030 A 
ATOM      9  C   LIG    1       -0.750   7.446   0.048  0.00  0.00    -0.060 A 
ATOM     10  C   LIG    1        0.601   7.440   0.035  0.00  0.00    +0.170 A 
ATOM     11  N   LIG    1        1.027   6.145   0.030  0.00  0.00    -0.550 N 
ATOM     12  H   LIG    1        1.953   5.854   0.025  0.00  0.00    +0.410 HD
ENDBRANCH   4   7
TORSDOF 1
