REMARK  Name = ZINCqH0000007ijQ.0
REMARK                            x       y       z     vdW  Elec       q    Type
REMARK                         _______ _______ _______ _____ _____    ______ ____
ROOT
ATOM      1  N   LIG    1       -5.715  10.412  -1.472  0.00  0.00    -0.660 N 
ATOM      2  H   LIG    1       -5.657  10.458  -2.439  0.00  0.00    +0.420 HD
ATOM      3  C   LIG    1       -5.144   9.386  -0.810  0.00  0.00    +0.510 C 
ATOM      4  O   LIG    1       -5.128   9.381   0.403  0.00  0.00    -0.530 OA
ENDROOT
BRANCH   1   8
ATOM      5  C   LIG    1       -7.727  13.397   0.642  0.00  0.00    +0.150 A 
ATOM      6  C   LIG    1       -7.587  12.131   1.190  0.00  0.00    -0.090 A 
ATOM      7  C   LIG    1       -6.925  11.142   0.488  0.00  0.00    +0.110 A 
ATOM      8  C   LIG    1       -6.391  11.416  -0.762  0.00  0.00    +0.080 A 
ATOM      9  C   LIG    1       -6.532  12.687  -1.314  0.00  0.00    +0.140 A 
ATOM     10  C   LIG    1       -7.200  13.675  -0.611  0.00  0.00    -0.080 A 
BRANCH   5  12
ATOM     11  C   LIG    1       -8.901  14.012   2.617  0.00  0.00    +0.250 C 
ATOM     12  O   LIG    1       -8.383  14.367   1.333  0.00  0.00    -0.320 OA
ENDBRANCH   5  12
BRANCH   9  13
ATOM     13  O   LIG    1       -6.014  12.957  -2.542  0.00  0.00    -0.320 OA
ATOM     14  C   LIG    1       -6.196  14.282  -3.046  0.00  0.00    +0.250 C 
ENDBRANCH   9  13
ENDBRANCH   1   8
BRANCH   3  15
ATOM     15  C   LIG    1       -4.527   8.245  -1.577  0.00  0.00    +0.080 C 
BRANCH  15  16
ATOM     16  C   LIG    1       -3.954   7.221  -0.595  0.00  0.00    +0.070 C 
BRANCH  16  17
ATOM     17  C   LIG    1       -3.336   6.081  -1.362  0.00  0.00    +0.400 C 
ATOM     18  O   LIG    1       -3.353   6.086  -2.574  0.00  0.00    -0.450 OA
BRANCH  17  19
ATOM     19  C   LIG    1       -2.714   4.960  -0.639  0.00  0.00    -0.170 A 
ATOM     20  C   LIG    1       -2.693   4.949   0.759  0.00  0.00    +0.070 A 
ATOM     21  C   LIG    1       -2.108   3.895   1.425  0.00  0.00    +0.010 A 
ATOM     22  C   LIG    1       -1.540   2.845   0.720  0.00  0.00    -0.060 A 
ATOM     23  C   LIG    1       -0.845   1.593   1.221  0.00  0.00    +0.080 C 
ATOM     24  C   LIG    1       -0.064   1.054   0.003  0.00  0.00    +0.030 C 
ATOM     25  C   LIG    1       -0.879   1.600  -1.188  0.00  0.00    +0.080 C 
ATOM     26  C   LIG    1       -1.557   2.849  -0.665  0.00  0.00    -0.110 A 
ATOM     27  C   LIG    1       -2.140   3.899  -1.346  0.00  0.00    +0.080 A 
ENDBRANCH  17  19
ENDBRANCH  16  17
ENDBRANCH  15  16
ENDBRANCH   3  15
TORSDOF 7
