REMARK  Name = ZINCc70000002Cjw.0
REMARK                            x       y       z     vdW  Elec       q    Type
REMARK                         _______ _______ _______ _____ _____    ______ ____
ROOT
ATOM      1  C   LIG    1        0.002  -0.004   0.002  0.00  0.00    +0.120 C 
ATOM      2  C   LIG    1       -0.019   1.527   0.010  0.00  0.00    +0.080 C 
ATOM      3  C   LIG    1        1.422   2.047  -0.001  0.00  0.00    +0.060 C 
ATOM      4  C   LIG    1        2.175   1.471   1.200  0.00  0.00    +0.250 C 
ATOM      5  N   LIG    1        2.183   0.005   1.120  0.00  0.00    -0.500 N 
ATOM      6  H   LIG    1        2.594  -0.280   0.244  0.00  0.00    +0.430 HD
ATOM      7  H   LIG    1        2.725  -0.369   1.883  0.00  0.00    +0.430 HD
ATOM      8  C   LIG    1        0.809  -0.504   1.202  0.00  0.00    +0.270 C 
ENDROOT
BRANCH   1  14
ATOM      9  N   LIG    1       -3.888  -2.891  -0.403  0.00  0.00    -0.840 NA
ATOM     10  H   LIG    1       -4.832  -2.881  -0.183  0.00  0.00    +0.340 HD
ATOM     11  C   LIG    1       -3.139  -1.860  -0.112  0.00  0.00    +0.450 A 
ATOM     12  N   LIG    1       -3.544  -0.703   0.499  0.00  0.00    -0.530 NA
ATOM     13  N   LIG    1       -2.406   0.111   0.604  0.00  0.00    -0.270 NA
ATOM     14  C   LIG    1       -1.409  -0.527   0.090  0.00  0.00    +0.040 A 
ATOM     15  O   LIG    1       -1.820  -1.729  -0.361  0.00  0.00    -0.300 OA
ENDBRANCH   1  14
TORSDOF 1
