REMARK  Name = ZINCkj000005k1dd.1
REMARK                            x       y       z     vdW  Elec       q    Type
REMARK                         _______ _______ _______ _____ _____    ______ ____
ROOT
ATOM      1  N   LIG    1        5.416   2.675  -2.111  0.00  0.00    -0.370 N 
ATOM      2  C   LIG    1        4.665   2.186  -3.273  0.00  0.00    +0.260 C 
ATOM      3  C   LIG    1        3.248   2.764  -3.249  0.00  0.00    +0.070 C 
ATOM      4  C   LIG    1        2.545   2.324  -1.962  0.00  0.00    +0.040 C 
ATOM      5  C   LIG    1        3.376   2.775  -0.758  0.00  0.00    -0.010 C 
ATOM      6  C   LIG    1        4.788   2.197  -0.874  0.00  0.00    +0.280 C 
ATOM      7  H   LIG    1        5.421   3.684  -2.117  0.00  0.00    +0.430 HD
ENDROOT
BRANCH   1   8
ATOM      8  C   LIG    1        6.798   2.181  -2.180  0.00  0.00    +0.270 C 
BRANCH   8  10
ATOM      9  C   LIG    1        7.366   4.352  -3.278  0.00  0.00    +0.130 C 
ATOM     10  C   LIG    1        7.514   2.831  -3.365  0.00  0.00    +0.080 C 
BRANCH  10  11
ATOM     11  C   LIG    1        8.998   2.461  -3.330  0.00  0.00    +0.440 C 
ATOM     12  F   LIG    1        9.565   2.917  -2.135  0.00  0.00    -0.170 F 
ATOM     13  F   LIG    1        9.653   3.056  -4.413  0.00  0.00    -0.150 F 
ATOM     14  F   LIG    1        9.134   1.071  -3.409  0.00  0.00    -0.170 F 
ENDBRANCH  10  11
BRANCH  10  15
ATOM     15  O   LIG    1        6.936   2.365  -4.586  0.00  0.00    -0.510 OA
ATOM     16  H   LIG    1        6.994   1.408  -4.708  0.00  0.00    +0.400 HD
ENDBRANCH  10  15
ENDBRANCH   8  10
ENDBRANCH   1   8
BRANCH   5  17
ATOM     17  C   LIG    1        2.722   2.273   0.531  0.00  0.00    +0.360 C 
BRANCH  17  18
ATOM     18  N   LIG    1        1.419   2.920   0.702  0.00  0.00    -0.300 N 
ATOM     19  C   LIG    1        0.236   2.286   0.872  0.00  0.00    +0.140 A 
ATOM     20  C   LIG    1       -0.700   3.258   0.984  0.00  0.00    +0.160 A 
ATOM     21  N   LIG    1       -0.051   4.423   0.885  0.00  0.00    -0.260 NA
ATOM     22  N   LIG    1        1.203   4.188   0.716  0.00  0.00    -0.090 NA
ENDBRANCH  17  18
ENDBRANCH   5  17
TORSDOF 6
