REMARK  Name = ZINCkj000005k1dd.0
REMARK                            x       y       z     vdW  Elec       q    Type
REMARK                         _______ _______ _______ _____ _____    ______ ____
ROOT
ATOM      1  N   LIG    1        0.850   0.799   2.774  0.00  0.00    -0.390 N 
ATOM      2  C   LIG    1        1.703   0.396   1.650  0.00  0.00    +0.240 C 
ATOM      3  C   LIG    1        1.327  -1.017   1.200  0.00  0.00    +0.080 C 
ATOM      4  C   LIG    1        1.526  -1.988   2.368  0.00  0.00    +0.050 C 
ATOM      5  C   LIG    1        0.688  -1.516   3.560  0.00  0.00    -0.010 C 
ATOM      6  C   LIG    1        1.087  -0.084   3.922  0.00  0.00    +0.280 C 
ATOM      7  H   LIG    1        1.065   1.751   3.033  0.00  0.00    +0.420 HD
ENDROOT
BRANCH   1   8
ATOM      8  C   LIG    1       -0.561   0.710   2.373  0.00  0.00    +0.280 C 
BRANCH   8  10
ATOM      9  C   LIG    1       -2.390   1.995   1.258  0.00  0.00    +0.150 C 
ATOM     10  C   LIG    1       -0.874   1.812   1.360  0.00  0.00    +0.090 C 
BRANCH  10  11
ATOM     11  C   LIG    1       -0.232   3.123   1.818  0.00  0.00    +0.410 C 
ATOM     12  F   LIG    1       -0.651   4.165   0.983  0.00  0.00    -0.140 F 
ATOM     13  F   LIG    1        1.161   3.007   1.756  0.00  0.00    -0.180 F 
ATOM     14  F   LIG    1       -0.619   3.397   3.135  0.00  0.00    -0.160 F 
ENDBRANCH  10  11
BRANCH  10  15
ATOM     15  O   LIG    1       -0.351   1.447   0.081  0.00  0.00    -0.510 OA
ATOM     16  H   LIG    1        0.549   1.761  -0.080  0.00  0.00    +0.390 HD
ENDBRANCH  10  15
ENDBRANCH   8  10
ENDBRANCH   1   8
BRANCH   5  17
ATOM     17  C   LIG    1        0.939  -2.435   4.757  0.00  0.00    +0.360 C 
BRANCH  17  18
ATOM     18  N   LIG    1        0.446  -3.780   4.452  0.00  0.00    -0.300 N 
ATOM     19  C   LIG    1        1.168  -4.923   4.519  0.00  0.00    +0.150 A 
ATOM     20  C   LIG    1        0.328  -5.921   4.157  0.00  0.00    +0.160 A 
ATOM     21  N   LIG    1       -0.851  -5.347   3.890  0.00  0.00    -0.260 NA
ATOM     22  N   LIG    1       -0.749  -4.079   4.080  0.00  0.00    -0.090 NA
ENDBRANCH  17  18
ENDBRANCH   5  17
TORSDOF 6
