REMARK  Name = ZINCrH000004nxs1.0
REMARK                            x       y       z     vdW  Elec       q    Type
REMARK                         _______ _______ _______ _____ _____    ______ ____
ROOT
ATOM      1  C   LIG    1        1.321  -4.647  -0.102  0.00  0.00    +0.210 A 
ATOM      2  N   LIG    1        0.059  -4.285  -0.119  0.00  0.00    -0.240 NA
ATOM      3  N   LIG    1       -0.030  -3.003  -0.088  0.00  0.00    -0.290 NA
ATOM      4  C   LIG    1        1.169  -2.468  -0.049  0.00  0.00    +0.170 A 
ATOM      5  N   LIG    1        2.071  -3.495  -0.062  0.00  0.00    -0.300 N 
ENDROOT
BRANCH   1  11
ATOM      6  C   LIG    1        1.368  -6.941  -1.083  0.00  0.00    +0.180 A 
ATOM      7  C   LIG    1        1.858  -8.236  -1.098  0.00  0.00    -0.070 A 
ATOM      8  C   LIG    1        2.808  -8.628  -0.173  0.00  0.00    +0.070 A 
ATOM      9  C   LIG    1        3.275  -7.733   0.773  0.00  0.00    -0.020 A 
ATOM     10  C   LIG    1        2.801  -6.437   0.797  0.00  0.00    +0.070 A 
ATOM     11  C   LIG    1        1.838  -6.031  -0.127  0.00  0.00    -0.070 A 
BRANCH   6  13
ATOM     12  C   LIG    1        0.002  -7.536  -2.934  0.00  0.00    +0.240 C 
ATOM     13  O   LIG    1        0.434  -6.555  -1.990  0.00  0.00    -0.300 OA
ENDBRANCH   6  13
ENDBRANCH   1  11
BRANCH   5  14
ATOM     14  N   LIG    1        3.434  -3.397  -0.037  0.00  0.00    -0.580 N 
ATOM     15  H   LIG    1        3.856  -4.085  -0.642  0.00  0.00    +0.380 HD
ATOM     16  H   LIG    1        3.785  -3.479   0.905  0.00  0.00    +0.370 HD
ENDBRANCH   5  14
BRANCH   4  17
ATOM     17  S   LIG    1        1.545  -0.748   0.004  0.00  0.00    +0.120 S 
BRANCH  17  18
ATOM     18  C   LIG    1       -0.129  -0.060  -0.014  0.00  0.00    +0.100 C 
BRANCH  18  19
ATOM     19  C   LIG    1       -0.054   1.445   0.027  0.00  0.00    +0.540 C 
ATOM     20  N   LIG    1       -1.186   2.176   0.016  0.00  0.00    -0.660 N 
ATOM     21  H   LIG    1       -2.047   1.737  -0.074  0.00  0.00    +0.420 HD
ATOM     22  O   LIG    1        1.025   1.998   0.064  0.00  0.00    -0.500 OA
BRANCH  20  23
ATOM     23  C   LIG    1       -1.121   3.570   0.136  0.00  0.00    +0.160 A 
ATOM     24  C   LIG    1        0.025   4.248  -0.256  0.00  0.00    +0.060 A 
ATOM     25  C   LIG    1        0.085   5.624  -0.143  0.00  0.00    +0.070 A 
ATOM     26  C   LIG    1       -0.991   6.325   0.371  0.00  0.00    -0.040 A 
ATOM     27  C   LIG    1       -2.132   5.651   0.769  0.00  0.00    +0.070 A 
ATOM     28 CL   LIG    1       -0.909   8.053   0.518  0.00  0.00    -0.050 Cl
ATOM     29  C   LIG    1       -2.200   4.276   0.652  0.00  0.00    -0.060 A 
ATOM     30 CL   LIG    1       -3.633   3.431   1.151  0.00  0.00    -0.050 Cl
ENDBRANCH  20  23
ENDBRANCH  18  19
ENDBRANCH  17  18
ENDBRANCH   4  17
TORSDOF 7
