REMARK  Name = ZINCrD0000075jpv.0
REMARK                            x       y       z     vdW  Elec       q    Type
REMARK                         _______ _______ _______ _____ _____    ______ ____
ROOT
ATOM      1  C   LIG    1       -4.296   2.980   1.638  0.00  0.00    +0.580 C 
ATOM      2  N   LIG    1       -4.484   4.208   1.115  0.00  0.00    -0.660 N 
ATOM      3  H   LIG    1       -3.737   4.822   1.037  0.00  0.00    +0.410 HD
ATOM      4  O   LIG    1       -5.248   2.247   1.825  0.00  0.00    -0.510 OA
ENDROOT
BRANCH   1  13
ATOM      5  C   LIG    1       -2.403   2.761   3.270  0.00  0.00    +0.440 A 
ATOM      6  N   LIG    1       -1.181   2.351   3.571  0.00  0.00    -0.540 NA
ATOM      7  C   LIG    1       -0.425   1.717   2.696  0.00  0.00    +0.350 A 
ATOM      8  C   LIG    1       -0.878   1.450   1.415  0.00  0.00    -0.210 A 
ATOM      9  C   LIG    1       -0.211   0.749   0.252  0.00  0.00    +0.090 C 
ATOM     10  C   LIG    1       -1.032   1.153  -0.992  0.00  0.00    +0.040 C 
ATOM     11  C   LIG    1       -2.420   1.459  -0.388  0.00  0.00    +0.080 C 
ATOM     12  C   LIG    1       -2.148   1.856   1.044  0.00  0.00    +0.030 A 
ATOM     13  C   LIG    1       -2.937   2.527   1.984  0.00  0.00    -0.250 A 
BRANCH   5  14
ATOM     14  N   LIG    1       -3.160   3.422   4.220  0.00  0.00    -0.840 N 
ATOM     15  H   LIG    1       -4.056   3.723   4.002  0.00  0.00    +0.410 HD
ATOM     16  H   LIG    1       -2.796   3.584   5.104  0.00  0.00    +0.410 HD
ENDBRANCH   5  14
ENDBRANCH   1  13
BRANCH   2  17
ATOM     17  C   LIG    1       -5.759   4.598   0.684  0.00  0.00    +0.140 A 
ATOM     18  C   LIG    1       -6.622   3.653   0.132  0.00  0.00    +0.050 A 
ATOM     19  C   LIG    1       -7.880   4.022  -0.291  0.00  0.00    +0.040 A 
ATOM     20  C   LIG    1       -8.289   5.344  -0.178  0.00  0.00    +0.040 A 
ATOM     21  C   LIG    1       -7.422   6.304   0.372  0.00  0.00    +0.070 A 
ATOM     22  N   LIG    1       -8.084   7.490   0.355  0.00  0.00    -0.480 NA
ATOM     23  C   LIG    1       -9.268   7.324  -0.156  0.00  0.00    +0.500 A 
ATOM     24  N   LIG    1       -9.449   6.021  -0.503  0.00  0.00    -0.500 N 
ATOM     25  C   LIG    1       -6.151   5.918   0.803  0.00  0.00    +0.050 A 
BRANCH  24  26
ATOM     26  C   LIG    1      -10.652   5.443  -1.108  0.00  0.00    +0.350 C 
BRANCH  26  27
ATOM     27  C   LIG    1      -11.542   4.854  -0.011  0.00  0.00    +0.440 C 
ATOM     28  F   LIG    1      -10.839   3.857   0.674  0.00  0.00    -0.170 F 
ATOM     29  F   LIG    1      -12.690   4.301  -0.589  0.00  0.00    -0.170 F 
ATOM     30  F   LIG    1      -11.910   5.864   0.883  0.00  0.00    -0.180 F 
ENDBRANCH  26  27
ENDBRANCH  24  26
ENDBRANCH   2  17
TORSDOF 5
