REMARK  Name = ZINCrH00000tj1hs.0
REMARK                            x       y       z     vdW  Elec       q    Type
REMARK                         _______ _______ _______ _____ _____    ______ ____
ROOT
ATOM      1  C   LIG    1        0.002  -0.004   0.002  0.00  0.00    +0.260 C 
ATOM      2  C   LIG    1        0.675  -0.524  -1.303  0.00  0.00    +0.160 C 
ATOM      3  S   LIG    1        0.086  -2.267  -1.320  0.00  0.00    -0.230 S 
ATOM      4  C   LIG    1       -1.330  -2.003  -0.192  0.00  0.00    +0.210 C 
ATOM      5  C   LIG    1       -2.648  -2.381  -0.891  0.00  0.00    +0.090 C 
ATOM      6  C   LIG    1       -3.599  -1.292  -0.337  0.00  0.00    +0.090 C 
ATOM      7  C   LIG    1       -2.685  -0.141   0.021  0.00  0.00    +0.540 C 
ATOM      8  O   LIG    1       -3.059   0.974   0.317  0.00  0.00    -0.460 OA
ATOM      9  N   LIG    1       -1.379  -0.532  -0.011  0.00  0.00    -0.620 N 
ENDROOT
BRANCH   4  10
ATOM     10  C   LIG    1       -1.155  -2.731   1.116  0.00  0.00    -0.070 A 
ATOM     11  C   LIG    1       -1.602  -2.158   2.292  0.00  0.00    +0.040 A 
ATOM     12  C   LIG    1       -1.447  -2.827   3.491  0.00  0.00    +0.050 A 
ATOM     13  C   LIG    1       -0.833  -4.067   3.516  0.00  0.00    -0.080 A 
ATOM     14  C   LIG    1       -0.380  -4.638   2.340  0.00  0.00    +0.050 A 
ATOM     15 BR   LIG    1       -0.613  -4.980   5.157  0.00  0.00    -0.040 Br
ATOM     16  C   LIG    1       -0.541  -3.970   1.141  0.00  0.00    +0.060 A 
ENDBRANCH   4  10
BRANCH   1  18
ATOM     17  O   LIG    1       -1.077   2.095   0.018  0.00  0.00    -0.480 OA
ATOM     18  C   LIG    1       -0.018   1.503   0.010  0.00  0.00    +0.510 C 
ATOM     19  N   LIG    1        1.139   2.192   0.003  0.00  0.00    -0.720 N 
ATOM     20  H   LIG    1        1.986   1.719  -0.008  0.00  0.00    +0.400 HD
BRANCH  19  21
ATOM     21  C   LIG    1        1.120   3.657   0.011  0.00  0.00    +0.330 C 
BRANCH  21  22
ATOM     22  C   LIG    1        2.534   4.179   0.000  0.00  0.00    -0.150 A 
ATOM     23  C   LIG    1        3.119   4.612   1.174  0.00  0.00    +0.070 A 
ATOM     24  C   LIG    1        4.419   5.085   1.166  0.00  0.00    +0.000 A 
ATOM     25  C   LIG    1        5.129   5.136  -0.019  0.00  0.00    +0.060 A 
ATOM     26  C   LIG    1        4.543   4.709  -1.196  0.00  0.00    -0.020 A 
ATOM     27  C   LIG    1        3.244   4.230  -1.187  0.00  0.00    +0.120 A 
ATOM     28  F   LIG    1        2.671   3.811  -2.337  0.00  0.00    -0.130 F 
ENDBRANCH  21  22
ENDBRANCH  19  21
ENDBRANCH   1  18
TORSDOF 4
