REMARK  Name = ZINCqH000003301V.0
REMARK                            x       y       z     vdW  Elec       q    Type
REMARK                         _______ _______ _______ _____ _____    ______ ____
ROOT
ATOM      1  N   LIG    1       -1.182   1.867   0.018  0.00  0.00    -0.680 NA
ATOM      2  C   LIG    1       -2.325   1.187   0.019  0.00  0.00    +0.500 A 
ATOM      3  C   LIG    1       -2.462  -0.218   0.013  0.00  0.00    -0.100 A 
ATOM      4  C   LIG    1       -3.779  -0.513   0.018  0.00  0.00    +0.330 A 
ATOM      5  N   LIG    1       -4.494   0.649   0.028  0.00  0.00    -0.390 N 
ATOM      6  N   LIG    1       -3.591   1.721   0.034  0.00  0.00    -0.480 N 
ATOM      7  H   LIG    1       -3.818   2.664   0.044  0.00  0.00    +0.450 HD
ENDROOT
BRANCH   1   9
ATOM      8  N   LIG    1        1.143   1.904   0.001  0.00  0.00    -0.600 N 
ATOM      9  C   LIG    1       -0.014   1.214   0.009  0.00  0.00    +0.690 C 
ATOM     10  O   LIG    1        0.002  -0.004   0.002  0.00  0.00    -0.620 OA
BRANCH   8  11
ATOM     11  C   LIG    1        1.124   3.369   0.009  0.00  0.00    +0.280 C 
BRANCH  11  13
ATOM     12  C   LIG    1        1.110   5.401   1.463  0.00  0.00    +0.010 C 
ATOM     13  C   LIG    1        1.130   3.871   1.455  0.00  0.00    -0.010 C 
ENDBRANCH  11  13
ENDBRANCH   8  11
BRANCH   8  14
ATOM     14  C   LIG    1        2.422   1.189  -0.015  0.00  0.00    +0.340 C 
BRANCH  14  15
ATOM     15  C   LIG    1        2.847   0.951  -1.441  0.00  0.00    -0.100 A 
ATOM     16  C   LIG    1        2.462  -0.205  -2.093  0.00  0.00    +0.040 A 
ATOM     17  C   LIG    1        2.848  -0.421  -3.403  0.00  0.00    -0.010 A 
ATOM     18  C   LIG    1        3.627   0.515  -4.057  0.00  0.00    +0.000 A 
ATOM     19  C   LIG    1        4.016   1.669  -3.403  0.00  0.00    -0.010 A 
ATOM     20  C   LIG    1        3.626   1.887  -2.095  0.00  0.00    +0.010 A 
ENDBRANCH  14  15
ENDBRANCH   8  14
ENDBRANCH   1   9
BRANCH   5  21
ATOM     21  C   LIG    1       -5.955   0.758   0.036  0.00  0.00    +0.410 C 
BRANCH  21  22
ATOM     22  C   LIG    1       -6.472   0.679  -1.377  0.00  0.00    -0.080 A 
ATOM     23  C   LIG    1       -6.634   1.827  -2.139  0.00  0.00    -0.020 A 
ATOM     24  C   LIG    1       -7.107   1.716  -3.432  0.00  0.00    +0.260 A 
ATOM     25  N   LIG    1       -7.412   0.537  -3.940  0.00  0.00    -0.480 NA
ATOM     26  C   LIG    1       -7.276  -0.574  -3.244  0.00  0.00    +0.260 A 
ATOM     27  C   LIG    1       -6.804  -0.541  -1.945  0.00  0.00    -0.010 A 
ENDBRANCH  21  22
ENDBRANCH   5  21
TORSDOF 7
