REMARK  Name = ZINCrD00000fNvdp.0
REMARK                            x       y       z     vdW  Elec       q    Type
REMARK                         _______ _______ _______ _____ _____    ______ ____
ROOT
ATOM      1  C   LIG    1        2.281   1.547   2.366  0.00  0.00    +0.320 A 
ATOM      2  N   LIG    1        3.029   0.723   3.071  0.00  0.00    -0.520 NA
ATOM      3  C   LIG    1        3.408  -0.300   2.312  0.00  0.00    +0.230 A 
ATOM      4  N   LIG    1        2.908  -0.155   1.111  0.00  0.00    -0.300 NA
ATOM      5  N   LIG    1        2.166   1.038   1.118  0.00  0.00    -0.350 N 
ENDROOT
BRANCH   1   7
ATOM      6  C   LIG    1        1.865   3.217   4.174  0.00  0.00    +0.090 A 
ATOM      7  C   LIG    1        1.672   2.805   2.854  0.00  0.00    +0.120 A 
ATOM      8  N   LIG    1        0.932   3.552   2.041  0.00  0.00    -0.220 NA
ATOM      9  N   LIG    1        0.392   4.646   2.429  0.00  0.00    -0.230 NA
ATOM     10  C   LIG    1        0.528   5.116   3.663  0.00  0.00    +0.090 A 
ATOM     11  C   LIG    1       -0.146   6.418   4.007  0.00  0.00    +0.120 C 
ATOM     12  C   LIG    1       -0.256   6.580   5.522  0.00  0.00    +0.030 C 
ATOM     13  C   LIG    1        1.127   6.345   6.139  0.00  0.00    +0.030 C 
ATOM     14  C   LIG    1        1.474   4.863   6.000  0.00  0.00    +0.100 C 
ATOM     15  C   LIG    1        1.276   4.409   4.581  0.00  0.00    -0.070 A 
ENDBRANCH   1   7
BRANCH   3  16
ATOM     16  C   LIG    1        4.277  -1.446   2.762  0.00  0.00    +0.160 C 
BRANCH  16  17
ATOM     17  C   LIG    1        5.747  -1.100   2.513  0.00  0.00    -0.010 C 
ATOM     18  C   LIG    1        6.238  -1.474   1.105  0.00  0.00    +0.010 C 
ATOM     19  C   LIG    1        7.548  -1.932   1.769  0.00  0.00    +0.010 C 
ATOM     20  C   LIG    1        6.728  -2.155   3.050  0.00  0.00    +0.020 C 
ENDBRANCH  16  17
ENDBRANCH   3  16
BRANCH   5  21
ATOM     21  C   LIG    1        1.422   1.617  -0.003  0.00  0.00    +0.350 C 
BRANCH  21  22
ATOM     22  C   LIG    1       -0.013   1.086   0.008  0.00  0.00    -0.020 C 
ATOM     23  C   LIG    1       -0.733   1.582   1.266  0.00  0.00    +0.000 C 
ATOM     24  C   LIG    1       -2.191   1.109   1.226  0.00  0.00    +0.200 C 
ATOM     25  O   LIG    1       -2.816   1.591   0.035  0.00  0.00    -0.380 OA
ATOM     26  C   LIG    1       -2.212   1.122  -1.172  0.00  0.00    +0.210 C 
ATOM     27  C   LIG    1       -0.757   1.595  -1.230  0.00  0.00    +0.010 C 
ENDBRANCH  21  22
ENDBRANCH   5  21
TORSDOF 5
