REMARK  Name = ZINCpk00000e9DYC.0
REMARK                            x       y       z     vdW  Elec       q    Type
REMARK                         _______ _______ _______ _____ _____    ______ ____
ROOT
ATOM      1  N   LIG    1       -0.966   2.933  -1.173  0.00  0.00    -0.530 NA
ATOM      2  C   LIG    1       -0.727   1.506  -1.429  0.00  0.00    +0.170 C 
ATOM      3  C   LIG    1       -0.034   0.882  -0.214  0.00  0.00    +0.310 C 
ATOM      4  N   LIG    1       -0.833   1.173   0.986  0.00  0.00    -1.010 NA
ATOM      5  C   LIG    1       -1.233   2.567   1.233  0.00  0.00    +0.300 C 
ATOM      6  C   LIG    1       -1.879   3.125  -0.039  0.00  0.00    +0.190 C 
ENDROOT
BRANCH   4   7
ATOM      7  S   LIG    1       -1.276  -0.037   2.026  0.00  0.00    +2.780 S 
ATOM      8  O   LIG    1       -1.249  -1.243   1.275  0.00  0.00    -0.970 OA
ATOM      9  O   LIG    1       -2.432   0.426   2.711  0.00  0.00    -0.970 OA
BRANCH   7  10
ATOM     10  N   LIG    1       -0.080  -0.168   3.164  0.00  0.00    -1.000 NA
ATOM     11  C   LIG    1        1.018  -1.074   2.913  0.00  0.00    +0.290 C 
ATOM     12  C   LIG    1        0.675  -2.478   3.453  0.00  0.00    +0.010 C 
ATOM     13  C   LIG    1        0.690  -2.478   4.923  0.00  0.00    +0.000 C 
ATOM     14  C   LIG    1       -0.349  -1.561   5.562  0.00  0.00    +0.010 C 
ATOM     15  C   LIG    1        0.206  -0.161   5.650  0.00  0.00    +0.020 C 
ATOM     16  C   LIG    1       -0.182   0.641   4.394  0.00  0.00    +0.270 C 
ENDBRANCH   7  10
ENDBRANCH   4   7
BRANCH   1  17
ATOM     17  C   LIG    1       -1.472   3.606  -2.377  0.00  0.00    +0.270 C 
ATOM     18  C   LIG    1       -1.740   5.079  -2.063  0.00  0.00    +0.080 C 
BRANCH  17  22
ATOM     19  C   LIG    1        0.528   3.222  -5.334  0.00  0.00    +0.170 A 
ATOM     20  N   LIG    1        1.405   3.563  -4.438  0.00  0.00    -0.380 NA
ATOM     21  O   LIG    1        0.866   3.731  -3.365  0.00  0.00    +0.100 OA
ATOM     22  C   LIG    1       -0.447   3.506  -3.477  0.00  0.00    +0.190 A 
ATOM     23  N   LIG    1       -0.671   3.177  -4.726  0.00  0.00    -0.480 NA
BRANCH  19  25
ATOM     24  C   LIG    1        1.109   1.436  -6.953  0.00  0.00    +0.040 C 
ATOM     25  C   LIG    1        0.804   2.926  -6.785  0.00  0.00    +0.160 C 
ENDBRANCH  19  25
ENDBRANCH  17  22
ENDBRANCH   1  17
TORSDOF 5
