REMARK  Name = ZINCrH000004qWTy.1
REMARK                            x       y       z     vdW  Elec       q    Type
REMARK                         _______ _______ _______ _____ _____    ______ ____
ROOT
ATOM      1  C   LIG    1       -1.796  -0.345   0.156  0.00  0.00    +0.590 C 
ATOM      2  N   LIG    1       -0.665   0.335  -0.122  0.00  0.00    -0.670 N 
ATOM      3  H   LIG    1        0.149  -0.146  -0.338  0.00  0.00    +0.410 HD
ATOM      4  O   LIG    1       -2.836   0.257   0.343  0.00  0.00    -0.490 OA
ENDROOT
BRANCH   1   9
ATOM      5  C   LIG    1       -2.313  -3.952   0.467  0.00  0.00    +0.100 A 
ATOM      6  N   LIG    1       -1.028  -3.854   0.189  0.00  0.00    -0.230 NA
ATOM      7  N   LIG    1       -0.685  -2.624   0.048  0.00  0.00    -0.370 N 
ATOM      8  H   LIG    1        0.211  -2.316  -0.159  0.00  0.00    +0.450 HD
ATOM      9  C   LIG    1       -1.771  -1.814   0.233  0.00  0.00    -0.040 A 
ATOM     10  C   LIG    1       -2.838  -2.646   0.511  0.00  0.00    +0.050 A 
BRANCH   5  15
ATOM     11  C   LIG    1       -6.091  -7.111   1.442  0.00  0.00    +0.180 C 
ATOM     12  C   LIG    1       -4.714  -6.591   1.122  0.00  0.00    +0.000 A 
ATOM     13  C   LIG    1       -3.614  -7.345   0.930  0.00  0.00    -0.060 A 
ATOM     14  C   LIG    1       -2.551  -6.462   0.651  0.00  0.00    -0.010 A 
ATOM     15  C   LIG    1       -3.065  -5.205   0.696  0.00  0.00    +0.050 A 
ATOM     16  O   LIG    1       -4.378  -5.298   0.979  0.00  0.00    -0.160 OA
ENDBRANCH   5  15
ENDBRANCH   1   9
BRANCH   2  17
ATOM     17  C   LIG    1       -0.667   1.735  -0.099  0.00  0.00    +0.120 A 
ATOM     18  C   LIG    1        0.142   2.445  -0.976  0.00  0.00    +0.010 A 
ATOM     19  C   LIG    1        0.138   3.825  -0.957  0.00  0.00    +0.050 A 
ATOM     20  C   LIG    1       -0.669   4.504  -0.052  0.00  0.00    +0.160 A 
ATOM     21  C   LIG    1       -1.474   3.794   0.829  0.00  0.00    +0.000 A 
ATOM     22  C   LIG    1       -1.473   2.414   0.806  0.00  0.00    +0.050 A 
BRANCH  20  23
ATOM     23  N   LIG    1       -0.670   5.904  -0.029  0.00  0.00    -0.640 N 
ATOM     24  H   LIG    1       -1.485   6.385   0.186  0.00  0.00    +0.420 HD
BRANCH  23  25
ATOM     25  C   LIG    1        0.491   6.603  -0.313  0.00  0.00    +0.560 A 
ATOM     26  N   LIG    1        1.622   5.934  -0.488  0.00  0.00    -0.560 NA
ATOM     27  C   LIG    1        2.748   6.570  -0.765  0.00  0.00    +0.360 A 
ATOM     28  C   LIG    1        2.737   7.953  -0.861  0.00  0.00    -0.130 A 
ATOM     29  C   LIG    1        1.538   8.621  -0.667  0.00  0.00    +0.360 A 
ATOM     30  N   LIG    1        0.447   7.924  -0.398  0.00  0.00    -0.560 NA
ENDBRANCH  23  25
ENDBRANCH  20  23
ENDBRANCH   2  17
TORSDOF 5
