REMARK  Name = ZINCrH000004qWTy.0
REMARK                            x       y       z     vdW  Elec       q    Type
REMARK                         _______ _______ _______ _____ _____    ______ ____
ROOT
ATOM      1  C   LIG    1       -1.715   4.110  -0.082  0.00  0.00    +0.610 C 
ATOM      2  N   LIG    1       -3.032   3.869   0.074  0.00  0.00    -0.660 N 
ATOM      3  H   LIG    1       -3.357   2.956   0.108  0.00  0.00    +0.420 HD
ATOM      4  O   LIG    1       -1.317   5.251  -0.212  0.00  0.00    -0.510 OA
ENDROOT
BRANCH   1   7
ATOM      5  C   LIG    1        1.108   1.797  -0.198  0.00  0.00    +0.090 A 
ATOM      6  C   LIG    1        0.644   3.085  -0.249  0.00  0.00    +0.030 A 
ATOM      7  C   LIG    1       -0.755   2.987  -0.095  0.00  0.00    -0.010 A 
ATOM      8  N   LIG    1       -1.049   1.708   0.029  0.00  0.00    -0.240 NA
ATOM      9  N   LIG    1        0.018   0.994  -0.023  0.00  0.00    -0.360 N 
ATOM     10  H   LIG    1        0.044   0.027   0.049  0.00  0.00    +0.450 HD
BRANCH   5  15
ATOM     11  C   LIG    1        6.092   1.953  -0.735  0.00  0.00    +0.180 C 
ATOM     12  C   LIG    1        4.693   1.424  -0.547  0.00  0.00    +0.010 A 
ATOM     13  C   LIG    1        4.356   0.127  -0.411  0.00  0.00    -0.050 A 
ATOM     14  C   LIG    1        2.956   0.077  -0.260  0.00  0.00    -0.030 A 
ATOM     15  C   LIG    1        2.511   1.363  -0.312  0.00  0.00    +0.040 A 
ATOM     16  O   LIG    1        3.576   2.168  -0.492  0.00  0.00    -0.160 OA
ENDBRANCH   5  15
ENDBRANCH   1   7
BRANCH   2  17
ATOM     17  C   LIG    1       -3.930   4.938   0.187  0.00  0.00    +0.120 A 
ATOM     18  C   LIG    1       -5.038   4.829   1.018  0.00  0.00    +0.010 A 
ATOM     19  C   LIG    1       -5.921   5.884   1.133  0.00  0.00    +0.040 A 
ATOM     20  C   LIG    1       -5.708   7.050   0.409  0.00  0.00    +0.150 A 
ATOM     21  C   LIG    1       -4.603   7.157  -0.426  0.00  0.00    +0.000 A 
ATOM     22  C   LIG    1       -3.717   6.104  -0.536  0.00  0.00    +0.040 A 
BRANCH  20  23
ATOM     23  N   LIG    1       -6.606   8.117   0.522  0.00  0.00    -0.640 N 
ATOM     24  H   LIG    1       -6.287   9.030   0.446  0.00  0.00    +0.420 HD
BRANCH  23  25
ATOM     25  C   LIG    1       -7.951   7.871   0.741  0.00  0.00    +0.560 A 
ATOM     26  N   LIG    1       -8.389   6.620   0.731  0.00  0.00    -0.550 NA
ATOM     27  C   LIG    1       -9.667   6.350   0.942  0.00  0.00    +0.360 A 
ATOM     28  C   LIG    1      -10.551   7.394   1.164  0.00  0.00    -0.130 A 
ATOM     29  C   LIG    1      -10.060   8.690   1.163  0.00  0.00    +0.360 A 
ATOM     30  N   LIG    1       -8.770   8.891   0.951  0.00  0.00    -0.560 NA
ENDBRANCH  23  25
ENDBRANCH  20  23
ENDBRANCH   2  17
TORSDOF 5
