REMARK  Name = ZINCrH000004k0aS.0
REMARK                            x       y       z     vdW  Elec       q    Type
REMARK                         _______ _______ _______ _____ _____    ______ ____
ROOT
ATOM      1  C   LIG    1        7.493   2.549  -0.055  0.00  0.00    +0.290 C 
ATOM      2  N   LIG    1        8.353   1.374  -0.220  0.00  0.00    -0.610 N 
ATOM      3  C   LIG    1        7.805   0.146  -0.305  0.00  0.00    +0.560 C 
ATOM      4  O   LIG    1        8.521  -0.836  -0.356  0.00  0.00    -0.520 OA
ENDROOT
BRANCH   3   5
ATOM      5  C   LIG    1        6.337  -0.008  -0.336  0.00  0.00    -0.140 A 
ATOM      6  C   LIG    1        5.536   0.747   0.524  0.00  0.00    +0.070 A 
ATOM      7  C   LIG    1        4.167   0.602   0.492  0.00  0.00    +0.010 A 
ATOM      8  C   LIG    1        3.582  -0.296  -0.394  0.00  0.00    +0.190 A 
ATOM      9  C   LIG    1        4.376  -1.053  -1.248  0.00  0.00    -0.010 A 
ATOM     10  C   LIG    1        5.746  -0.908  -1.225  0.00  0.00    +0.100 A 
BRANCH   8  11
ATOM     11  N   LIG    1        2.191  -0.441  -0.424  0.00  0.00    -0.330 N 
ATOM     12  C   LIG    1        1.491  -1.275  -1.235  0.00  0.00    +0.230 A 
ATOM     13  C   LIG    1        0.178  -1.115  -0.951  0.00  0.00    -0.090 A 
ATOM     14  C   LIG    1        0.069  -0.156   0.062  0.00  0.00    +0.250 A 
ATOM     15  N   LIG    1        1.272   0.248   0.379  0.00  0.00    -0.290 NA
ENDBRANCH   8  11
ENDBRANCH   3   5
BRANCH   2  16
ATOM     16  C   LIG    1        9.807   1.535  -0.292  0.00  0.00    +0.360 C 
BRANCH  16  17
ATOM     17  C   LIG    1       10.214   1.788  -1.722  0.00  0.00    -0.110 A 
ATOM     18  C   LIG    1        9.249   1.961  -2.694  0.00  0.00    +0.030 A 
ATOM     19  C   LIG    1        9.622   2.193  -4.006  0.00  0.00    -0.020 A 
ATOM     20  C   LIG    1       10.960   2.252  -4.348  0.00  0.00    +0.020 A 
ATOM     21  C   LIG    1       11.930   2.079  -3.380  0.00  0.00    -0.040 A 
ATOM     22  C   LIG    1       11.560   1.852  -2.061  0.00  0.00    +0.110 A 
BRANCH  22  23
ATOM     23  N   LIG    1       12.538   1.682  -1.078  0.00  0.00    -0.470 N 
ATOM     24  C   LIG    1       13.900   1.759  -1.665  0.00  0.00    +0.180 C 
ATOM     25  C   LIG    1       14.795   2.081  -0.442  0.00  0.00    +0.030 C 
ATOM     26  C   LIG    1       13.914   3.043   0.388  0.00  0.00    +0.020 C 
ATOM     27  C   LIG    1       12.471   2.763  -0.071  0.00  0.00    +0.180 C 
ENDBRANCH  22  23
ENDBRANCH  16  17
ENDBRANCH   2  16
TORSDOF 5
