REMARK  Name = ZINCqH0000008p3E.0
REMARK                            x       y       z     vdW  Elec       q    Type
REMARK                         _______ _______ _______ _____ _____    ______ ____
ROOT
ATOM      1  C   LIG    1       -4.477  -0.704   4.974  0.00  0.00    +0.130 C 
ATOM      2  C   LIG    1       -3.842   0.626   5.387  0.00  0.00    +0.060 C 
ENDROOT
BRANCH   1   3
ATOM      3  N   LIG    1       -4.447  -0.828   3.511  0.00  0.00    -0.520 NA
ATOM      4  C   LIG    1       -5.122  -2.057   3.073  0.00  0.00    +0.180 C 
ATOM      5  C   LIG    1       -5.000  -2.189   1.553  0.00  0.00    +0.190 C 
ATOM      6  N   LIG    1       -5.595  -1.008   0.912  0.00  0.00    -0.540 NA
ATOM      7  C   LIG    1       -4.919   0.221   1.350  0.00  0.00    +0.190 C 
ATOM      8  C   LIG    1       -5.041   0.353   2.870  0.00  0.00    +0.190 C 
BRANCH   6   9
ATOM      9  C   LIG    1       -5.565  -1.132  -0.552  0.00  0.00    +0.270 C 
BRANCH   9  10
ATOM     10  C   LIG    1       -6.393  -0.033  -1.166  0.00  0.00    -0.160 A 
ATOM     11  C   LIG    1       -5.936   1.170  -1.516  0.00  0.00    +0.020 A 
ATOM     12  C   LIG    1       -6.882   2.016  -2.068  0.00  0.00    +0.030 A 
ATOM     13  C   LIG    1       -8.110   1.500  -2.162  0.00  0.00    -0.150 A 
ATOM     14 CL   LIG    1       -9.494   2.323  -2.811  0.00  0.00    -0.010 Cl
ATOM     15  S   LIG    1       -8.111  -0.140  -1.528  0.00  0.00    +0.170 S 
ENDBRANCH   9  10
ENDBRANCH   6   9
ENDBRANCH   1   3
BRANCH   1  18
ATOM     16  N   LIG    1       -4.013  -2.273   6.830  0.00  0.00    -0.730 N 
ATOM     17  H   LIG    1       -4.733  -1.851   7.325  0.00  0.00    +0.400 HD
ATOM     18  C   LIG    1       -3.704  -1.841   5.591  0.00  0.00    +0.520 C 
ATOM     19  O   LIG    1       -2.804  -2.369   4.972  0.00  0.00    -0.510 OA
BRANCH  16  21
ATOM     20  C   LIG    1       -3.864  -4.710   6.974  0.00  0.00    +0.030 C 
ATOM     21  C   LIG    1       -3.262  -3.379   7.429  0.00  0.00    +0.280 C 
BRANCH  21  22
ATOM     22  C   LIG    1       -3.337  -3.281   8.931  0.00  0.00    -0.090 A 
ATOM     23  C   LIG    1       -4.520  -2.908   9.542  0.00  0.00    +0.000 A 
ATOM     24  C   LIG    1       -4.589  -2.822  10.920  0.00  0.00    +0.000 A 
ATOM     25  C   LIG    1       -3.473  -3.100  11.687  0.00  0.00    +0.000 A 
ATOM     26  C   LIG    1       -2.289  -3.468  11.076  0.00  0.00    +0.020 A 
ATOM     27  C   LIG    1       -2.220  -3.558   9.698  0.00  0.00    +0.010 A 
ENDBRANCH  21  22
ENDBRANCH  16  21
ENDBRANCH   1  18
TORSDOF 6
