REMARK  Name = ZINCpe000000SHlC.0
REMARK                            x       y       z     vdW  Elec       q    Type
REMARK                         _______ _______ _______ _____ _____    ______ ____
ROOT
ATOM      1  N   LIG    1       -2.601   3.978   0.036  0.00  0.00    -0.560 N 
ATOM      2  C   LIG    1       -3.316   4.216   1.150  0.00  0.00    +0.590 C 
ATOM      3  C   LIG    1       -4.665   4.675   0.754  0.00  0.00    -0.130 A 
ATOM      4  C   LIG    1       -5.799   5.057   1.451  0.00  0.00    +0.170 A 
ATOM      5  C   LIG    1       -6.935   5.444   0.755  0.00  0.00    +0.080 A 
ATOM      6  C   LIG    1       -6.941   5.452  -0.626  0.00  0.00    +0.130 A 
ATOM      7  C   LIG    1       -5.813   5.072  -1.337  0.00  0.00    +0.020 A 
ATOM      8  C   LIG    1       -4.671   4.682  -0.655  0.00  0.00    -0.080 A 
ATOM      9  O   LIG    1       -2.921   4.077   2.290  0.00  0.00    -0.440 OA
ATOM     10  C   LIG    1       -3.325   4.233  -1.068  0.00  0.00    +0.570 C 
ATOM     11  O   LIG    1       -2.938   4.112  -2.213  0.00  0.00    -0.400 OA
ENDROOT
BRANCH   7  12
ATOM     12  N   LIG    1       -5.828   5.082  -2.817  0.00  0.00    +0.010 N 
ATOM     13  O   LIG    1       -4.835   4.747  -3.438  0.00  0.00    -0.100 OA
ATOM     14  O   LIG    1       -6.833   5.426  -3.413  0.00  0.00    -0.160 OA
ENDBRANCH   7  12
BRANCH   1  15
ATOM     15  C   LIG    1       -1.213   3.508   0.027  0.00  0.00    +0.380 C 
BRANCH  15  21
ATOM     16  N   LIG    1        1.178  -0.662  -0.013  0.00  0.00    -0.730 N 
ATOM     17  H   LIG    1        2.012  -0.166  -0.018  0.00  0.00    +0.400 HD
ATOM     18  C   LIG    1        0.002  -0.004   0.002  0.00  0.00    +0.700 C 
ATOM     19  N   LIG    1       -0.016   1.344   0.009  0.00  0.00    -0.690 N 
ATOM     20  H   LIG    1        0.817   1.840   0.004  0.00  0.00    +0.410 HD
ATOM     21  C   LIG    1       -1.192   2.002   0.019  0.00  0.00    +0.500 C 
ATOM     22  O   LIG    1       -2.234   1.381   0.020  0.00  0.00    -0.450 OA
ATOM     23  O   LIG    1       -1.042  -0.626   0.009  0.00  0.00    -0.520 OA
BRANCH  16  25
ATOM     24  C   LIG    1        0.472  -2.640  -1.266  0.00  0.00    +0.040 C 
ATOM     25  C   LIG    1        1.198  -2.127  -0.021  0.00  0.00    +0.180 C 
ATOM     26  C   LIG    1        0.496  -2.653   1.232  0.00  0.00    +0.030 C 
ATOM     27  C   LIG    1        2.647  -2.617  -0.037  0.00  0.00    +0.040 C 
ENDBRANCH  16  25
ENDBRANCH  15  21
ENDBRANCH   1  15
TORSDOF 4
