REMARK  Name = ZINCpk00000eawKf.0
REMARK                            x       y       z     vdW  Elec       q    Type
REMARK                         _______ _______ _______ _____ _____    ______ ____
ROOT
ATOM      1  C   LIG    1       -1.256   3.451   0.131  0.00  0.00    +0.630 A 
ATOM      2  N   LIG    1       -2.416   4.096   0.235  0.00  0.00    -0.610 NA
ATOM      3  C   LIG    1       -2.435   5.413   0.346  0.00  0.00    +0.430 A 
ATOM      4  N   LIG    1       -1.303   6.095   0.345  0.00  0.00    -0.620 NA
ATOM      5  C   LIG    1       -0.139   5.458   0.237  0.00  0.00    +0.630 A 
ATOM      6  N   LIG    1       -0.117   4.134   0.130  0.00  0.00    -0.630 NA
ENDROOT
BRANCH   5   7
ATOM      7  N   LIG    1        1.042   6.172   0.235  0.00  0.00    -0.800 N 
ATOM      8  H   LIG    1        1.024   7.138   0.314  0.00  0.00    +0.420 HD
ATOM      9  H   LIG    1        1.889   5.707   0.156  0.00  0.00    +0.420 HD
ENDBRANCH   5   7
BRANCH   1  10
ATOM     10  N   LIG    1       -1.238   2.075   0.019  0.00  0.00    -0.610 N 
ATOM     11  H   LIG    1       -2.071   1.584  -0.066  0.00  0.00    +0.430 HD
BRANCH  10  17
ATOM     12  C   LIG    1        0.086   0.139  -0.582  0.00  0.00    +0.100 A 
ATOM     13  C   LIG    1        1.296  -0.533  -0.574  0.00  0.00    -0.060 A 
ATOM     14  C   LIG    1        2.399   0.034   0.037  0.00  0.00    +0.030 A 
ATOM     15  C   LIG    1        2.298   1.273   0.643  0.00  0.00    +0.000 A 
ATOM     16  C   LIG    1        1.093   1.951   0.639  0.00  0.00    +0.070 A 
ATOM     17  C   LIG    1       -0.018   1.388   0.028  0.00  0.00    +0.130 A 
BRANCH  12  19
ATOM     18  C   LIG    1       -0.820  -1.700  -1.788  0.00  0.00    +0.250 C 
ATOM     19  O   LIG    1       -1.000  -0.418  -1.183  0.00  0.00    -0.320 OA
ENDBRANCH  12  19
ENDBRANCH  10  17
ENDBRANCH   1  10
BRANCH   3  20
ATOM     20  C   LIG    1       -3.750   6.138   0.469  0.00  0.00    +0.360 C 
BRANCH  20  21
ATOM     21  O   LIG    1       -4.239   6.481  -0.854  0.00  0.00    -0.350 OA
BRANCH  21  22
ATOM     22  C   LIG    1       -5.409   7.136  -0.920  0.00  0.00    +0.450 C 
ATOM     23  O   LIG    1       -6.004   7.413   0.094  0.00  0.00    -0.480 OA
BRANCH  22  24
ATOM     24  C   LIG    1       -5.980   7.524  -2.260  0.00  0.00    +0.220 C 
ATOM     25  C   LIG    1       -5.058   8.557  -2.942  0.00  0.00    +0.040 C 
ATOM     26  C   LIG    1       -6.081   9.528  -3.597  0.00  0.00    +0.020 C 
ATOM     27  C   LIG    1       -7.229   9.492  -2.557  0.00  0.00    +0.210 C 
ATOM     28  O   LIG    1       -7.263   8.137  -2.082  0.00  0.00    -0.350 OA
ENDBRANCH  22  24
ENDBRANCH  21  22
ENDBRANCH  20  21
ENDBRANCH   3  20
TORSDOF 8
