REMARK  Name = ZINCrH00000No56B.0
REMARK                            x       y       z     vdW  Elec       q    Type
REMARK                         _______ _______ _______ _____ _____    ______ ____
ROOT
ATOM      1  N   LIG    1       -2.124   4.950   1.378  0.00  0.00    -0.520 NA
ENDROOT
BRANCH   1   2
ATOM      2  C   LIG    1       -1.978   4.665  -0.056  0.00  0.00    +0.260 C 
BRANCH   2   4
ATOM      3  C   LIG    1       -1.772   2.125  -0.140  0.00  0.00    +0.120 A 
ATOM      4  C   LIG    1       -1.238   3.365  -0.238  0.00  0.00    -0.240 A 
ATOM      5  C   LIG    1        0.119   3.226  -0.543  0.00  0.00    +0.230 A 
ATOM      6  N   LIG    1        0.392   1.949  -0.621  0.00  0.00    -0.300 NA
ATOM      7  N   LIG    1       -0.785   1.234  -0.366  0.00  0.00    -0.370 N 
BRANCH   3   9
ATOM      8  C   LIG    1       -3.390   1.672   1.684  0.00  0.00    +0.040 C 
ATOM      9  C   LIG    1       -3.210   1.799   0.170  0.00  0.00    +0.100 C 
ENDBRANCH   3   9
BRANCH   7  10
ATOM     10  C   LIG    1       -0.921  -0.225  -0.354  0.00  0.00    +0.310 C 
ATOM     11  C   LIG    1       -0.655  -0.750   1.058  0.00  0.00    +0.030 C 
ENDBRANCH   7  10
ENDBRANCH   2   4
ENDBRANCH   1   2
BRANCH   1  12
ATOM     12  C   LIG    1       -0.817   5.201   2.000  0.00  0.00    +0.240 C 
BRANCH  12  13
ATOM     13  C   LIG    1       -0.088   6.303   1.229  0.00  0.00    +0.110 C 
ATOM     14  O   LIG    1       -0.762   7.559   1.418  0.00  0.00    -0.340 OA
ATOM     15  C   LIG    1        0.257   8.584   1.429  0.00  0.00    +0.210 C 
ATOM     16  C   LIG    1        1.415   7.939   2.232  0.00  0.00    +0.000 C 
ATOM     17  C   LIG    1        1.345   6.462   1.772  0.00  0.00    +0.160 C 
ATOM     18  F   LIG    1        2.281   6.216   0.762  0.00  0.00    -0.200 F 
ENDBRANCH  12  13
ENDBRANCH   1  12
BRANCH   1  19
ATOM     19  C   LIG    1       -3.038   6.077   1.601  0.00  0.00    +0.270 C 
BRANCH  19  20
ATOM     20  C   LIG    1       -3.262   6.258   3.080  0.00  0.00    +0.140 A 
ATOM     21  N   LIG    1       -2.423   6.996   3.781  0.00  0.00    -0.430 NA
ATOM     22  C   LIG    1       -2.579   7.183   5.078  0.00  0.00    +0.160 A 
ATOM     23  C   LIG    1       -3.638   6.604   5.754  0.00  0.00    +0.020 A 
ATOM     24  C   LIG    1       -4.541   5.821   5.052  0.00  0.00    +0.060 A 
ATOM     25 CL   LIG    1       -1.441   8.165   5.946  0.00  0.00    -0.020 Cl
ATOM     26  C   LIG    1       -4.348   5.652   3.687  0.00  0.00    +0.070 A 
ATOM     27  F   LIG    1       -5.206   4.902   2.962  0.00  0.00    -0.120 F 
ENDBRANCH  19  20
ENDBRANCH   1  19
TORSDOF 8
