REMARK  Name = ZINCrD00000F5LiH.0
REMARK                            x       y       z     vdW  Elec       q    Type
REMARK                         _______ _______ _______ _____ _____    ______ ____
ROOT
ATOM      1  C   LIG    1       -4.788   0.264  -2.976  0.00  0.00    +0.190 C 
ATOM      2  C   LIG    1       -5.162   1.682  -3.413  0.00  0.00    +0.040 C 
ENDROOT
BRANCH   1   5
ATOM      3  N   LIG    1       -3.062   0.942  -1.339  0.00  0.00    -0.720 N 
ATOM      4  H   LIG    1       -2.589   1.378  -2.065  0.00  0.00    +0.400 HD
ATOM      5  C   LIG    1       -4.223   0.302  -1.579  0.00  0.00    +0.520 C 
ATOM      6  O   LIG    1       -4.814  -0.244  -0.671  0.00  0.00    -0.520 OA
BRANCH   3   7
ATOM      7  C   LIG    1       -2.513   0.978   0.019  0.00  0.00    +0.330 C 
BRANCH   7  13
ATOM      8  C   LIG    1       -1.236   3.137   0.030  0.00  0.00    +0.150 A 
ATOM      9  C   LIG    1       -0.043   3.844   0.023  0.00  0.00    -0.080 A 
ATOM     10  C   LIG    1        1.161   3.165   0.008  0.00  0.00    +0.060 A 
ATOM     11  C   LIG    1        1.176   1.783   0.000  0.00  0.00    -0.030 A 
ATOM     12  C   LIG    1       -0.013   1.076   0.008  0.00  0.00    +0.070 A 
ATOM     13  C   LIG    1       -1.218   1.750   0.017  0.00  0.00    -0.150 A 
BRANCH   8  15
ATOM     14  C   LIG    1       -2.364   5.230   0.054  0.00  0.00    +0.250 C 
ATOM     15  O   LIG    1       -2.421   3.802   0.046  0.00  0.00    -0.310 OA
ENDBRANCH   8  15
ENDBRANCH   7  13
ENDBRANCH   3   7
ENDBRANCH   1   5
BRANCH   1  16
ATOM     16  O   LIG    1       -5.952  -0.563  -2.997  0.00  0.00    -0.210 OA
BRANCH  16  17
ATOM     17  N   LIG    1       -6.239  -1.123  -4.266  0.00  0.00    -0.340 NA
ATOM     18  C   LIG    1       -7.268  -1.892  -4.417  0.00  0.00    +0.290 C 
BRANCH  18  19
ATOM     19  C   LIG    1       -7.566  -2.474  -5.739  0.00  0.00    -0.090 A 
ATOM     20  C   LIG    1       -6.742  -2.192  -6.831  0.00  0.00    +0.100 A 
ATOM     21  C   LIG    1       -7.021  -2.742  -8.063  0.00  0.00    -0.060 A 
ATOM     22  C   LIG    1       -8.127  -3.567  -8.223  0.00  0.00    +0.120 A 
ATOM     23  C   LIG    1       -8.953  -3.846  -7.141  0.00  0.00    +0.000 A 
ATOM     24  C   LIG    1       -8.678  -3.305  -5.904  0.00  0.00    +0.090 A 
BRANCH  22  25
ATOM     25  O   LIG    1       -8.403  -4.103  -9.440  0.00  0.00    -0.320 OA
BRANCH  25  26
ATOM     26  C   LIG    1       -7.513  -3.775 -10.509  0.00  0.00    +0.600 C 
ATOM     27  F   LIG    1       -6.222  -4.209 -10.191  0.00  0.00    -0.200 F 
ATOM     28  F   LIG    1       -7.505  -2.389 -10.701  0.00  0.00    -0.200 F 
ENDBRANCH  25  26
ENDBRANCH  22  25
ENDBRANCH  18  19
ENDBRANCH  16  17
ENDBRANCH   1  16
TORSDOF 9
