REMARK  Name = ZINCtj00000nxB4b.0
REMARK                            x       y       z     vdW  Elec       q    Type
REMARK                         _______ _______ _______ _____ _____    ______ ____
ROOT
ATOM      1  C   LIG    1        1.492  -1.288   0.203  0.00  0.00    +0.190 C 
ATOM      2  C   LIG    1        2.573  -0.246   0.072  0.00  0.00    +0.150 A 
ATOM      3  C   LIG    1        3.919  -0.471   0.009  0.00  0.00    -0.120 A 
ATOM      4  N   LIG    1        4.543   0.714  -0.106  0.00  0.00    -0.200 NA
ATOM      5  N   LIG    1        3.672   1.661  -0.123  0.00  0.00    -0.050 NA
ATOM      6  N   LIG    1        2.396   1.092  -0.007  0.00  0.00    -0.310 N 
ENDROOT
BRANCH   6   7
ATOM      7  C   LIG    1        1.176   1.775   0.018  0.00  0.00    +0.130 A 
ATOM      8  C   LIG    1        0.136   1.371  -0.791  0.00  0.00    +0.050 A 
ATOM      9  C   LIG    1       -1.079   2.050  -0.776  0.00  0.00    +0.050 A 
ATOM     10  C   LIG    1       -1.279   3.119   0.042  0.00  0.00    +0.090 A 
ATOM     11  C   LIG    1       -0.244   3.565   0.883  0.00  0.00    +0.140 A 
ATOM     12  N   LIG    1       -0.417   4.617   1.689  0.00  0.00    -0.460 NA
ATOM     13  C   LIG    1        0.544   5.039   2.476  0.00  0.00    +0.310 A 
ATOM     14  C   LIG    1        1.788   4.415   2.511  0.00  0.00    -0.010 A 
ATOM     15  C   LIG    1        2.031   3.333   1.712  0.00  0.00    +0.080 A 
ATOM     16  C   LIG    1        0.999   2.885   0.870  0.00  0.00    -0.090 A 
ENDBRANCH   6   7
BRANCH   3  17
ATOM     17  C   LIG    1        4.575  -1.791   0.059  0.00  0.00    +0.620 C 
ATOM     18  N   LIG    1        5.918  -1.878  -0.013  0.00  0.00    -0.730 N 
ATOM     19  H   LIG    1        6.453  -1.073  -0.098  0.00  0.00    +0.400 HD
ATOM     20  O   LIG    1        3.905  -2.800   0.165  0.00  0.00    -0.510 OA
BRANCH  18  21
ATOM     21  C   LIG    1        6.571  -3.189   0.037  0.00  0.00    +0.280 C 
BRANCH  21  22
ATOM     22  C   LIG    1        8.086  -3.009  -0.063  0.00  0.00    +0.120 C 
ATOM     23  C   LIG    1        8.426  -2.207  -1.321  0.00  0.00    +0.230 C 
ATOM     24  N   LIG    1        9.282  -3.002  -2.206  0.00  0.00    -0.370 N 
ATOM     25  C   LIG    1       10.545  -3.331  -1.542  0.00  0.00    +0.250 C 
ATOM     26  C   LIG    1       10.276  -4.169  -0.290  0.00  0.00    +0.080 C 
ATOM     27  C   LIG    1        8.591  -4.220  -2.634  0.00  0.00    +0.260 C 
ATOM     28  C   LIG    1        8.258  -5.088  -1.419  0.00  0.00    +0.080 C 
ATOM     29  H   LIG    1        9.494  -2.451  -3.024  0.00  0.00    +0.430 HD
ATOM     30  C   LIG    1        8.763  -4.383  -0.153  0.00  0.00    +0.050 C 
BRANCH  22  31
ATOM     31  O   LIG    1        8.563  -2.313   1.091  0.00  0.00    -0.530 OA
ATOM     32  H   LIG    1        8.179  -1.433   1.206  0.00  0.00    +0.390 HD
ENDBRANCH  22  31
ENDBRANCH  21  22
ENDBRANCH  18  21
ENDBRANCH   3  17
TORSDOF 5
