REMARK  Name = ZINCpk00000eb0GF.0
REMARK                            x       y       z     vdW  Elec       q    Type
REMARK                         _______ _______ _______ _____ _____    ______ ____
ROOT
ATOM      1  C   LIG    1        2.174   1.209  -0.981  0.00  0.00    +0.190 C 
ENDROOT
BRANCH   1   2
ATOM      2  N   LIG    1        1.385   1.967  -0.001  0.00  0.00    -0.520 NA
ATOM      3  C   LIG    1       -0.018   1.516   0.010  0.00  0.00    +0.350 C 
ATOM      4  C   LIG    1        0.002  -0.004   0.002  0.00  0.00    +0.160 A 
ATOM      5  N   LIG    1       -0.442  -0.788  -0.936  0.00  0.00    -0.470 NA
ATOM      6  C   LIG    1       -0.239  -2.066  -0.571  0.00  0.00    +0.140 A 
ATOM      7  C   LIG    1        0.354  -2.065   0.642  0.00  0.00    +0.120 A 
ATOM      8  N   LIG    1        0.500  -0.759   0.998  0.00  0.00    -0.450 N 
ATOM      9  C   LIG    1        1.088  -0.222   2.241  0.00  0.00    +0.310 C 
ATOM     10  C   LIG    1        2.354   0.552   1.840  0.00  0.00    -0.050 C 
ATOM     11  C   LIG    1        2.001   1.920   1.309  0.00  0.00    +0.220 C 
BRANCH  10  12
ATOM     12  C   LIG    1        3.259   0.706   3.065  0.00  0.00    +0.200 C 
BRANCH  12  13
ATOM     13  O   LIG    1        3.716  -0.582   3.484  0.00  0.00    -0.570 OA
ATOM     14  H   LIG    1        4.296  -0.560   4.258  0.00  0.00    +0.390 HD
ENDBRANCH  12  13
ENDBRANCH  10  12
ENDBRANCH   1   2
BRANCH   1  15
ATOM     15  C   LIG    1        1.677   1.530  -2.392  0.00  0.00    +0.070 C 
BRANCH  15  16
ATOM     16  C   LIG    1        2.499   0.741  -3.414  0.00  0.00    -0.340 C 
BRANCH  16  17
ATOM     17  S   LIG    1        1.911   1.121  -5.087  0.00  0.00    +2.500 S 
ATOM     18  O   LIG    1        2.221   2.464  -5.431  0.00  0.00    -0.940 OA
ATOM     19  O   LIG    1        0.605   0.596  -5.288  0.00  0.00    -0.930 OA
BRANCH  17  24
ATOM     20  C   LIG    1        5.420  -2.193  -8.707  0.00  0.00    +0.090 C 
ATOM     21  C   LIG    1        4.544  -1.365  -7.803  0.00  0.00    -0.030 A 
ATOM     22  C   LIG    1        3.360  -1.889  -7.319  0.00  0.00    -0.010 A 
ATOM     23  C   LIG    1        2.556  -1.130  -6.489  0.00  0.00    +0.120 A 
ATOM     24  C   LIG    1        2.936   0.153  -6.144  0.00  0.00    -0.670 A 
ATOM     25  C   LIG    1        4.117   0.680  -6.633  0.00  0.00    +0.120 A 
ATOM     26  C   LIG    1        4.923  -0.081  -7.458  0.00  0.00    -0.010 A 
ENDBRANCH  17  24
ENDBRANCH  16  17
ENDBRANCH  15  16
ENDBRANCH   1  15
TORSDOF 7
