REMARK  Name = ZINCpe00000VVGTO.0
REMARK                            x       y       z     vdW  Elec       q    Type
REMARK                         _______ _______ _______ _____ _____    ______ ____
ROOT
ATOM      1  C   LIG    1       -3.785   0.119   5.524  0.00  0.00    +0.510 C 
ATOM      2  N   LIG    1       -2.536   0.462   5.151  0.00  0.00    -0.700 N 
ATOM      3  H   LIG    1       -2.083   1.199   5.590  0.00  0.00    +0.410 HD
ATOM      4  O   LIG    1       -4.351  -0.803   4.975  0.00  0.00    -0.510 OA
ENDROOT
BRANCH   1   6
ATOM      5  N   LIG    1       -5.759   0.607   6.912  0.00  0.00    -0.520 N 
ATOM      6  C   LIG    1       -4.472   0.875   6.614  0.00  0.00    +0.510 C 
ATOM      7  O   LIG    1       -3.872   1.730   7.231  0.00  0.00    -0.500 OA
ATOM      8  C   LIG    1       -6.477  -0.442   6.182  0.00  0.00    +0.310 C 
BRANCH   5  13
ATOM      9  C   LIG    1       -8.416   1.896   9.114  0.00  0.00    +0.030 A 
ATOM     10  C   LIG    1       -7.682   2.770   9.919  0.00  0.00    +0.020 A 
ATOM     11  C   LIG    1       -6.324   2.916   9.719  0.00  0.00    +0.030 A 
ATOM     12  C   LIG    1       -5.685   2.196   8.727  0.00  0.00    +0.030 A 
ATOM     13  C   LIG    1       -6.408   1.328   7.917  0.00  0.00    +0.140 A 
ATOM     14  C   LIG    1       -7.773   1.174   8.110  0.00  0.00    +0.000 A 
BRANCH   9  16
ATOM     15  C   LIG    1      -10.979   1.616   9.489  0.00  0.00    +0.060 C 
ATOM     16  C   LIG    1       -9.825   1.742   9.320  0.00  0.00    -0.150 C 
ENDBRANCH   9  16
ENDBRANCH   5  13
ENDBRANCH   1   6
BRANCH   2  17
ATOM     17  C   LIG    1       -1.862  -0.280   4.082  0.00  0.00    +0.290 C 
BRANCH  17  18
ATOM     18  C   LIG    1       -0.467   0.307   3.856  0.00  0.00    +0.180 C 
BRANCH  18  19
ATOM     19  N   LIG    1        0.209  -0.436   2.784  0.00  0.00    -0.530 NA
ATOM     20  C   LIG    1       -0.463  -0.228   1.494  0.00  0.00    +0.160 C 
ATOM     21  C   LIG    1        0.236  -1.065   0.419  0.00  0.00    +0.160 C 
ATOM     22  O   LIG    1        1.620  -0.711   0.371  0.00  0.00    -0.380 OA
ATOM     23  C   LIG    1        2.307  -0.901   1.612  0.00  0.00    +0.200 C 
ATOM     24  C   LIG    1        2.257  -2.380   2.001  0.00  0.00    +0.020 C 
ATOM     25  C   LIG    1       -0.409  -0.793  -0.941  0.00  0.00    +0.050 C 
ATOM     26  C   LIG    1        1.629  -0.062   2.698  0.00  0.00    +0.160 C 
ENDBRANCH  18  19
ENDBRANCH  17  18
ENDBRANCH   2  17
TORSDOF 6
