REMARK  Name = ZINCpe00000VVH1u.0
REMARK                            x       y       z     vdW  Elec       q    Type
REMARK                         _______ _______ _______ _____ _____    ______ ____
ROOT
ATOM      1  C   LIG    1       -4.586   8.324   0.046  0.00  0.00    +0.560 C 
ATOM      2  N   LIG    1       -4.797   7.671  -1.089  0.00  0.00    -0.640 NA
ATOM      3  C   LIG    1       -4.619   6.350  -1.150  0.00  0.00    +0.520 C 
ATOM      4  C   LIG    1       -4.158   5.599   0.066  0.00  0.00    +0.220 C 
ATOM      5  N   LIG    1       -4.542   6.320   1.284  0.00  0.00    -0.430 NA
ATOM      6  H   LIG    1       -4.116   5.905   2.099  0.00  0.00    +0.370 HD
ATOM      7  C   LIG    1       -2.635   5.394   0.031  0.00  0.00    +0.070 C 
ATOM      8  C   LIG    1       -2.475   3.889   0.015  0.00  0.00    +0.070 C 
ATOM      9  N   LIG    1       -3.638   3.333   0.044  0.00  0.00    -0.170 NA
ATOM     10  N   LIG    1       -4.700   4.237   0.075  0.00  0.00    -0.600 N 
ATOM     11  H   LIG    1       -5.642   4.003   0.099  0.00  0.00    +0.450 HD
ATOM     12  O   LIG    1       -4.830   5.755  -2.189  0.00  0.00    -0.460 OA
ATOM     13  N   LIG    1       -4.192   7.642   1.165  0.00  0.00    -0.570 N 
ATOM     14  H   LIG    1       -3.679   8.084   1.860  0.00  0.00    +0.420 HD
ENDROOT
BRANCH   8  15
ATOM     15  C   LIG    1       -1.188   3.170  -0.022  0.00  0.00    -0.050 A 
ATOM     16  C   LIG    1        0.012   3.882  -0.050  0.00  0.00    +0.060 A 
ATOM     17  C   LIG    1        1.213   3.203  -0.085  0.00  0.00    +0.010 A 
ATOM     18  C   LIG    1        1.230   1.819  -0.090  0.00  0.00    +0.060 A 
ATOM     19  C   LIG    1        0.045   1.106  -0.062  0.00  0.00    -0.010 A 
ATOM     20  C   LIG    1       -1.165   1.771  -0.033  0.00  0.00    +0.130 A 
ATOM     21  F   LIG    1       -2.322   1.074  -0.011  0.00  0.00    -0.120 F 
ENDBRANCH   8  15
BRANCH   1  27
ATOM     22  C   LIG    1       -5.056  10.504  -1.072  0.00  0.00    +0.300 A 
ATOM     23  C   LIG    1       -5.239  11.880  -1.004  0.00  0.00    -0.090 A 
ATOM     24  C   LIG    1       -5.134  12.532   0.207  0.00  0.00    +0.100 A 
ATOM     25  C   LIG    1       -4.852  11.824   1.365  0.00  0.00    -0.060 A 
ATOM     26  C   LIG    1       -4.673  10.460   1.321  0.00  0.00    +0.090 A 
ATOM     27  C   LIG    1       -4.776   9.782   0.101  0.00  0.00    -0.190 A 
BRANCH  22  28
ATOM     28  N   LIG    1       -5.155   9.846  -2.290  0.00  0.00    -0.840 N 
ATOM     29  H   LIG    1       -5.271  10.354  -3.108  0.00  0.00    +0.390 HD
ATOM     30  H   LIG    1       -5.108   8.878  -2.323  0.00  0.00    +0.430 HD
ENDBRANCH  22  28
ENDBRANCH   1  27
TORSDOF 3
