REMARK  Name = ZINCrD000000CEan.0
REMARK                            x       y       z     vdW  Elec       q    Type
REMARK                         _______ _______ _______ _____ _____    ______ ____
ROOT
ATOM      1  O   LIG    1       -5.500  -0.485   1.190  0.00  0.00    -0.500 OA
ATOM      2  C   LIG    1       -4.945  -0.579   2.267  0.00  0.00    +0.550 C 
ATOM      3  N   LIG    1       -5.339  -1.521   3.148  0.00  0.00    -0.600 N 
ATOM      4  C   LIG    1       -4.683  -1.642   4.457  0.00  0.00    +0.250 C 
ATOM      5  C   LIG    1       -4.210  -3.082   4.645  0.00  0.00    +0.010 C 
ATOM      6  C   LIG    1       -5.391  -4.035   4.443  0.00  0.00    +0.020 C 
ATOM      7  C   LIG    1       -5.932  -3.884   3.019  0.00  0.00    +0.020 C 
ATOM      8  C   LIG    1       -6.427  -2.449   2.814  0.00  0.00    +0.270 C 
ENDROOT
BRANCH   8   9
ATOM      9  C   LIG    1       -6.834  -2.256   1.376  0.00  0.00    -0.050 A 
ATOM     10  C   LIG    1       -6.005  -2.693   0.360  0.00  0.00    +0.040 A 
ATOM     11  C   LIG    1       -6.378  -2.521  -0.959  0.00  0.00    -0.020 A 
ATOM     12  C   LIG    1       -7.580  -1.900  -1.264  0.00  0.00    +0.100 A 
ATOM     13  C   LIG    1       -8.408  -1.457  -0.242  0.00  0.00    -0.020 A 
ATOM     14  C   LIG    1       -8.033  -1.636   1.075  0.00  0.00    +0.020 A 
BRANCH  12  15
ATOM     15  O   LIG    1       -7.947  -1.726  -2.561  0.00  0.00    -0.500 OA
ATOM     16  H   LIG    1       -7.646  -0.891  -2.946  0.00  0.00    +0.390 HD
ENDBRANCH  12  15
ENDBRANCH   8   9
BRANCH   2  17
ATOM     17  C   LIG    1       -3.838   0.338   2.611  0.00  0.00    -0.130 A 
ATOM     18  C   LIG    1       -3.587   0.664   3.945  0.00  0.00    +0.050 A 
ATOM     19  C   LIG    1       -2.553   1.521   4.259  0.00  0.00    +0.000 A 
ATOM     20  C   LIG    1       -1.762   2.054   3.256  0.00  0.00    +0.050 A 
ATOM     21  C   LIG    1       -2.010   1.740   1.932  0.00  0.00    -0.120 A 
ATOM     22  C   LIG    1       -3.041   0.884   1.604  0.00  0.00    +0.100 A 
BRANCH  21  23
ATOM     23  C   LIG    1       -1.147   2.329   0.846  0.00  0.00    +0.380 C 
BRANCH  23  24
ATOM     24  N   LIG    1       -1.729   3.595   0.393  0.00  0.00    -0.380 N 
ATOM     25  C   LIG    1       -1.118   4.791   0.347  0.00  0.00    +0.470 A 
ATOM     26  N   LIG    1       -1.973   5.667  -0.115  0.00  0.00    -0.550 NA
ATOM     27  C   LIG    1       -3.135   5.069  -0.375  0.00  0.00    +0.420 A 
ATOM     28  N   LIG    1       -3.034   3.799  -0.085  0.00  0.00    -0.310 NA
ENDBRANCH  23  24
ENDBRANCH  21  23
ENDBRANCH   2  17
TORSDOF 5
