REMARK  Name = ZINCkj000005eE9L.0
REMARK                            x       y       z     vdW  Elec       q    Type
REMARK                         _______ _______ _______ _____ _____    ______ ____
ROOT
ATOM      1  C   LIG    1        1.030   2.049  -2.516  0.00  0.00    +0.350 C 
ENDROOT
BRANCH   1   2
ATOM      2  C   LIG    1        1.739   2.390  -1.231  0.00  0.00    -0.180 A 
ATOM      3  C   LIG    1        2.918   3.110  -1.263  0.00  0.00    +0.100 A 
ATOM      4  C   LIG    1        3.571   3.427  -0.086  0.00  0.00    -0.050 A 
ATOM      5  C   LIG    1        3.045   3.023   1.131  0.00  0.00    +0.150 A 
ATOM      6  C   LIG    1        1.857   2.303   1.168  0.00  0.00    +0.040 A 
ATOM      7  C   LIG    1        1.206   1.982  -0.017  0.00  0.00    +0.140 A 
BRANCH   6   8
ATOM      8  O   LIG    1        1.334   1.909   2.362  0.00  0.00    -0.320 OA
ATOM      9  C   LIG    1        1.761   0.644   2.871  0.00  0.00    +0.240 C 
ENDBRANCH   6   8
BRANCH   5  10
ATOM     10  O   LIG    1        3.689   3.334   2.288  0.00  0.00    -0.300 OA
ATOM     11  C   LIG    1        4.902   4.081   2.175  0.00  0.00    +0.250 C 
ENDBRANCH   5  10
BRANCH   7  12
ATOM     12  O   LIG    1        0.045   1.274   0.014  0.00  0.00    -0.330 OA
ATOM     13  C   LIG    1       -1.159   2.013   0.230  0.00  0.00    +0.230 C 
ENDBRANCH   7  12
ENDBRANCH   1   2
BRANCH   1  14
ATOM     14  N   LIG    1       -0.076   2.985  -2.728  0.00  0.00    -0.690 NA
ATOM     15  H   LIG    1       -0.248   3.687  -2.081  0.00  0.00    +0.430 HD
BRANCH  14  16
ATOM     16  C   LIG    1       -0.871   2.869  -3.844  0.00  0.00    +0.730 C 
BRANCH  16  17
ATOM     17  N   LIG    1       -0.640   1.926  -4.713  0.00  0.00    -0.770 NA
ATOM     18  H   LIG    1        0.093   1.306  -4.573  0.00  0.00    +0.440 HD
ATOM     19  H   LIG    1       -1.200   1.844  -5.501  0.00  0.00    +0.440 HD
ENDBRANCH  16  17
BRANCH  16  20
ATOM     20  N   LIG    1       -1.909   3.748  -4.043  0.00  0.00    -0.690 NA
ATOM     21  H   LIG    1       -2.080   4.450  -3.396  0.00  0.00    +0.430 HD
BRANCH  20  22
ATOM     22  C   LIG    1       -2.756   3.625  -5.232  0.00  0.00    +0.320 C 
BRANCH  22  24
ATOM     23  C   LIG    1       -3.937   5.514  -6.231  0.00  0.00    +0.110 C 
ATOM     24  C   LIG    1       -3.811   4.701  -5.212  0.00  0.00    -0.080 C 
ENDBRANCH  22  24
ENDBRANCH  20  22
ENDBRANCH  16  20
ENDBRANCH  14  16
ENDBRANCH   1  14
TORSDOF 10
