REMARK  Name = ZINCpe00000gNaRz.0
REMARK                            x       y       z     vdW  Elec       q    Type
REMARK                         _______ _______ _______ _____ _____    ______ ____
ROOT
ATOM      1  O   LIG    1        8.240  -0.439   1.230  0.00  0.00    -0.520 OA
ATOM      2  C   LIG    1        7.347  -1.223   1.471  0.00  0.00    +0.520 C 
ATOM      3  N   LIG    1        6.215  -1.200   0.740  0.00  0.00    -0.610 N 
ATOM      4  C   LIG    1        6.042  -0.232  -0.354  0.00  0.00    +0.300 C 
ATOM      5  C   LIG    1        4.704   0.488  -0.159  0.00  0.00    +0.200 C 
ATOM      6  N   LIG    1        3.629  -0.506  -0.035  0.00  0.00    -0.480 N 
ATOM      7  C   LIG    1        3.817  -1.347   1.155  0.00  0.00    +0.190 C 
ATOM      8  C   LIG    1        5.119  -2.142   1.014  0.00  0.00    +0.300 C 
ENDROOT
BRANCH   6   9
ATOM      9  C   LIG    1        2.386   0.106  -0.020  0.00  0.00    +0.350 A 
ATOM     10  N   LIG    1        2.062   0.956   0.949  0.00  0.00    -0.530 NA
ATOM     11  C   LIG    1        0.881   1.539   0.967  0.00  0.00    +0.520 A 
ATOM     12  N   LIG    1       -0.022   1.308   0.035  0.00  0.00    -0.510 NA
ATOM     13  C   LIG    1        0.225   0.472  -0.964  0.00  0.00    +0.350 A 
ATOM     14  C   LIG    1        1.451  -0.162  -1.024  0.00  0.00    -0.120 A 
ATOM     15 CL   LIG    1        1.820  -1.265  -2.313  0.00  0.00    -0.020 Cl
ENDBRANCH   6   9
BRANCH   2  16
ATOM     16  C   LIG    1        7.502  -2.224   2.587  0.00  0.00    +0.310 C 
BRANCH  16  17
ATOM     17  N   LIG    1        8.810  -2.046   3.223  0.00  0.00    -1.100 NA
ATOM     18  H   LIG    1        9.497  -1.523   2.781  0.00  0.00    +0.430 HD
BRANCH  17  19
ATOM     19  S   LIG    1        9.115  -2.738   4.696  0.00  0.00    +2.730 S 
ATOM     20  O   LIG    1        8.013  -2.408   5.530  0.00  0.00    -0.950 OA
ATOM     21  O   LIG    1       10.460  -2.415   5.021  0.00  0.00    -0.940 OA
BRANCH  19  22
ATOM     22  C   LIG    1        9.063  -4.485   4.472  0.00  0.00    -0.800 A 
ATOM     23  C   LIG    1       10.108  -5.251   4.152  0.00  0.00    +0.180 A 
ATOM     24  C   LIG    1        9.826  -6.601   4.030  0.00  0.00    -0.010 A 
ATOM     25  C   LIG    1        8.553  -6.931   4.251  0.00  0.00    +0.010 A 
ATOM     26  S   LIG    1        7.628  -5.488   4.644  0.00  0.00    +0.210 S 
ENDBRANCH  19  22
ENDBRANCH  17  19
ENDBRANCH  16  17
ENDBRANCH   2  16
TORSDOF 5
