REMARK  Name = ZINCvU00000003ZN.0
REMARK                            x       y       z     vdW  Elec       q    Type
REMARK                         _______ _______ _______ _____ _____    ______ ____
ROOT
ATOM      1  O   LIG    1       -1.260  -0.276  -3.237  0.00  0.00    -0.490 OA
ATOM      2  C   LIG    1       -1.971   0.578  -3.734  0.00  0.00    +0.560 A 
ATOM      3  C   LIG    1       -1.862   0.926  -5.157  0.00  0.00    -0.190 A 
ATOM      4  C   LIG    1       -0.946   0.298  -6.000  0.00  0.00    +0.100 A 
ATOM      5  C   LIG    1       -0.884   0.661  -7.327  0.00  0.00    -0.010 A 
ATOM      6  C   LIG    1       -1.726   1.645  -7.831  0.00  0.00    +0.070 A 
ATOM      7  C   LIG    1       -2.638   2.277  -7.017  0.00  0.00    +0.030 A 
ATOM      8  C   LIG    1       -2.720   1.928  -5.667  0.00  0.00    +0.160 A 
ATOM      9  N   LIG    1       -3.603   2.525  -4.833  0.00  0.00    -0.530 NA
ATOM     10  C   LIG    1       -3.684   2.193  -3.568  0.00  0.00    +0.370 A 
ATOM     11  N   LIG    1       -2.890   1.241  -2.995  0.00  0.00    -0.520 N 
ENDROOT
BRANCH  10  12
ATOM     12  S   LIG    1       -4.869   3.018  -2.557  0.00  0.00    +0.030 S 
BRANCH  12  13
ATOM     13  C   LIG    1       -5.610   4.126  -3.782  0.00  0.00    +0.270 C 
BRANCH  13  14
ATOM     14  C   LIG    1       -6.683   4.955  -3.124  0.00  0.00    +0.200 A 
ATOM     15  N   LIG    1       -6.501   6.115  -2.558  0.00  0.00    -0.450 NA
ATOM     16  C   LIG    1       -7.676   6.555  -2.083  0.00  0.00    +0.180 A 
ATOM     17  C   LIG    1       -8.613   5.617  -2.376  0.00  0.00    +0.010 A 
ATOM     18  O   LIG    1       -7.977   4.622  -3.033  0.00  0.00    -0.190 OA
BRANCH  17  19
ATOM     19  C   LIG    1      -10.052   5.675  -2.045  0.00  0.00    -0.010 A 
ATOM     20  C   LIG    1      -10.569   6.775  -1.358  0.00  0.00    +0.050 A 
ATOM     21  C   LIG    1      -11.915   6.826  -1.057  0.00  0.00    +0.040 A 
ATOM     22  C   LIG    1      -12.750   5.787  -1.425  0.00  0.00    +0.040 A 
ATOM     23  C   LIG    1      -12.242   4.689  -2.101  0.00  0.00    -0.030 A 
ATOM     24 CL   LIG    1      -13.298   3.389  -2.558  0.00  0.00    -0.060 Cl
ATOM     25  C   LIG    1      -10.899   4.628  -2.413  0.00  0.00    +0.050 A 
ENDBRANCH  17  19
ENDBRANCH  13  14
ENDBRANCH  12  13
ENDBRANCH  10  12
BRANCH  11  26
ATOM     26  C   LIG    1       -3.039   0.931  -1.571  0.00  0.00    +0.300 C 
BRANCH  26  27
ATOM     27  C   LIG    1       -2.107   1.829  -0.754  0.00  0.00    +0.150 C 
ATOM     28  C   LIG    1       -2.249   1.504   0.749  0.00  0.00    +0.020 C 
ATOM     29  C   LIG    1       -0.780   1.606   1.249  0.00  0.00    +0.020 C 
ATOM     30  C   LIG    1       -0.013   1.086   0.008  0.00  0.00    +0.200 C 
ATOM     31  O   LIG    1       -0.746   1.581  -1.124  0.00  0.00    -0.360 OA
ENDBRANCH  26  27
ENDBRANCH  11  26
TORSDOF 6
