REMARK  Name = ZINCrH000004ow03.0
REMARK                            x       y       z     vdW  Elec       q    Type
REMARK                         _______ _______ _______ _____ _____    ______ ____
ROOT
ATOM      1  N   LIG    1       -0.698   1.558   1.213  0.00  0.00    -0.600 N 
ATOM      2  C   LIG    1        0.002   1.786   2.342  0.00  0.00    +0.540 C 
ATOM      3  O   LIG    1       -0.565   2.177   3.340  0.00  0.00    -0.510 OA
ATOM      4  C   LIG    1       -0.013   1.086   0.008  0.00  0.00    +0.300 C 
ENDROOT
BRANCH   1   6
ATOM      5  C   LIG    1       -2.483   2.839   0.137  0.00  0.00    +0.070 C 
ATOM      6  C   LIG    1       -2.146   1.783   1.192  0.00  0.00    +0.350 C 
BRANCH   6   7
ATOM      7  C   LIG    1       -2.849   0.494   0.855  0.00  0.00    +0.080 A 
ATOM      8  N   LIG    1       -3.883   0.056   1.469  0.00  0.00    -0.450 NA
ATOM      9  C   LIG    1       -4.409  -1.114   1.059  0.00  0.00    +0.080 A 
ATOM     10  C   LIG    1       -5.528  -1.818   1.548  0.00  0.00    +0.080 A 
ATOM     11  C   LIG    1       -5.898  -3.002   0.985  0.00  0.00    +0.030 A 
ATOM     12  C   LIG    1       -5.184  -3.537  -0.078  0.00  0.00    +0.040 A 
ATOM     13  C   LIG    1       -4.086  -2.871  -0.576  0.00  0.00    +0.060 A 
ATOM     14  C   LIG    1       -3.693  -1.659  -0.013  0.00  0.00    -0.190 A 
ATOM     15  S   LIG    1       -2.372  -0.561  -0.399  0.00  0.00    +0.110 S 
ENDBRANCH   6   7
ENDBRANCH   1   6
BRANCH   2  16
ATOM     16  C   LIG    1        1.491   1.555   2.364  0.00  0.00    +0.120 C 
BRANCH  16  17
ATOM     17  S   LIG    1        2.139   1.947   4.008  0.00  0.00    +0.110 S 
BRANCH  17  18
ATOM     18  C   LIG    1        3.847   1.598   3.755  0.00  0.00    +0.190 A 
ATOM     19  N   LIG    1        4.401   1.168   2.642  0.00  0.00    -0.340 NA
ATOM     20  N   LIG    1        5.667   1.019   2.798  0.00  0.00    -0.030 NA
ATOM     21  N   LIG    1        6.010   1.327   4.002  0.00  0.00    -0.070 NA
ATOM     22  N   LIG    1        4.837   1.716   4.672  0.00  0.00    -0.350 N 
BRANCH  22  23
ATOM     23  C   LIG    1        4.712   2.156   6.064  0.00  0.00    +0.260 C 
ATOM     24  C   LIG    1        5.611   3.385   6.312  0.00  0.00    +0.040 C 
ATOM     25  C   LIG    1        6.152   3.174   7.749  0.00  0.00    +0.040 C 
ATOM     26  C   LIG    1        6.388   1.644   7.805  0.00  0.00    +0.030 C 
ATOM     27  C   LIG    1        5.205   1.050   7.013  0.00  0.00    +0.040 C 
ENDBRANCH  22  23
ENDBRANCH  17  18
ENDBRANCH  16  17
ENDBRANCH   2  16
TORSDOF 6
