REMARK  Name = ZINCtV000002Oz5h.0
REMARK                            x       y       z     vdW  Elec       q    Type
REMARK                         _______ _______ _______ _____ _____    ______ ____
ROOT
ATOM      1  C   LIG    1       -2.725   3.695   0.020  0.00  0.00    -0.280 A 
ATOM      2  C   LIG    1       -1.375   3.407   0.004  0.00  0.00    +0.300 A 
ATOM      3  N   LIG    1       -1.238   2.070  -0.013  0.00  0.00    -0.300 N 
ATOM      4  N   LIG    1       -2.499   1.467  -0.013  0.00  0.00    -0.270 NA
ATOM      5  C   LIG    1       -3.423   2.404   0.012  0.00  0.00    +0.220 A 
ENDROOT
BRANCH   3   6
ATOM      6  C   LIG    1       -0.016   1.385  -0.033  0.00  0.00    +0.140 A 
ATOM      7  C   LIG    1        1.178   2.093  -0.043  0.00  0.00    -0.010 A 
ATOM      8  C   LIG    1        2.381   1.415  -0.069  0.00  0.00    +0.050 A 
ATOM      9  C   LIG    1        2.397   0.032  -0.085  0.00  0.00    +0.010 A 
ATOM     10  C   LIG    1        1.209  -0.676  -0.075  0.00  0.00    +0.050 A 
ATOM     11  C   LIG    1        0.003  -0.003  -0.050  0.00  0.00    +0.030 A 
ENDBRANCH   3   6
BRANCH   5  12
ATOM     12  C   LIG    1       -4.885   2.195   0.025  0.00  0.00    -0.150 A 
ATOM     13  C   LIG    1       -5.535   1.200  -0.612  0.00  0.00    +0.040 A 
ATOM     14  C   LIG    1       -6.905   1.212  -0.453  0.00  0.00    -0.010 A 
ATOM     15  C   LIG    1       -7.378   2.205   0.306  0.00  0.00    -0.060 A 
ATOM     16  S   LIG    1       -6.047   3.202   0.878  0.00  0.00    +0.240 S 
ENDBRANCH   5  12
BRANCH   1  18
ATOM     17  O   LIG    1       -4.553   5.141   0.054  0.00  0.00    -0.500 OA
ATOM     18  C   LIG    1       -3.342   5.031   0.041  0.00  0.00    +0.590 C 
ATOM     19  N   LIG    1       -2.564   6.132   0.046  0.00  0.00    -0.660 N 
ATOM     20  H   LIG    1       -1.601   6.045   0.117  0.00  0.00    +0.410 HD
BRANCH  19  21
ATOM     21  C   LIG    1       -3.146   7.397  -0.051  0.00  0.00    +0.160 A 
ATOM     22  C   LIG    1       -4.379   7.551  -0.646  0.00  0.00    +0.020 A 
ATOM     23  C   LIG    1       -4.971   8.808  -0.741  0.00  0.00    +0.040 A 
ATOM     24  C   LIG    1       -4.345   9.918  -0.263  0.00  0.00    +0.000 A 
ATOM     25  C   LIG    1       -3.083   9.804   0.346  0.00  0.00    -0.030 A 
ATOM     26  C   LIG    1       -2.413  10.933   0.849  0.00  0.00    +0.030 A 
ATOM     27  C   LIG    1       -1.192  10.787   1.433  0.00  0.00    +0.000 A 
ATOM     28  C   LIG    1       -0.594   9.534   1.539  0.00  0.00    +0.010 A 
ATOM     29  C   LIG    1       -1.214   8.418   1.063  0.00  0.00    +0.010 A 
ATOM     30  C   LIG    1       -2.473   8.530   0.455  0.00  0.00    -0.070 A 
ENDBRANCH  19  21
ENDBRANCH   1  18
TORSDOF 4
