REMARK  Name = ZINCpe00000MJIXj.0
REMARK                            x       y       z     vdW  Elec       q    Type
REMARK                         _______ _______ _______ _____ _____    ______ ____
ROOT
ATOM      1  C   LIG    1       -0.014   1.212   0.009  0.00  0.00    +0.560 C 
ATOM      2  N   LIG    1       -1.191   1.870   0.018  0.00  0.00    -0.720 N 
ATOM      3  H   LIG    1       -1.204   2.840   0.023  0.00  0.00    +0.410 HD
ATOM      4  O   LIG    1        0.002  -0.004   0.002  0.00  0.00    -0.530 OA
ENDROOT
BRANCH   1  12
ATOM      5  O   LIG    1        7.093   1.483   0.231  0.00  0.00    -0.500 OA
ATOM      6  C   LIG    1        6.010   2.028   0.268  0.00  0.00    +0.490 C 
ATOM      7  C   LIG    1        5.907   3.480   0.659  0.00  0.00    +0.310 C 
ATOM      8  O   LIG    1        4.803   4.084  -0.021  0.00  0.00    -0.300 OA
ATOM      9  C   LIG    1        3.632   3.396  -0.014  0.00  0.00    +0.110 A 
ATOM     10  C   LIG    1        2.420   4.071   0.001  0.00  0.00    +0.040 A 
ATOM     11  C   LIG    1        1.236   3.364   0.008  0.00  0.00    +0.070 A 
ATOM     12  C   LIG    1        1.254   1.967   0.001  0.00  0.00    -0.130 A 
ATOM     13  C   LIG    1        2.475   1.286  -0.009  0.00  0.00    +0.090 A 
ATOM     14  C   LIG    1        3.656   2.000  -0.023  0.00  0.00    +0.090 A 
ATOM     15  N   LIG    1        4.892   1.336  -0.040  0.00  0.00    -0.660 N 
ATOM     16  H   LIG    1        4.942   0.395  -0.270  0.00  0.00    +0.420 HD
ENDBRANCH   1  12
BRANCH   2  17
ATOM     17  C   LIG    1       -2.449   1.120   0.020  0.00  0.00    +0.300 C 
BRANCH  17  18
ATOM     18  C   LIG    1       -3.626   2.098   0.031  0.00  0.00    +0.160 C 
ATOM     19  C   LIG    1       -4.941   1.316   0.038  0.00  0.00    +0.160 C 
ATOM     20  N   LIG    1       -6.066   2.259   0.126  0.00  0.00    -0.530 NA
ATOM     21  C   LIG    1       -5.962   3.081   1.340  0.00  0.00    +0.150 C 
ATOM     22  C   LIG    1       -4.636   3.846   1.320  0.00  0.00    +0.220 C 
ATOM     23  O   LIG    1       -3.556   2.916   1.202  0.00  0.00    -0.380 OA
BRANCH  20  24
ATOM     24  C   LIG    1       -7.352   1.550   0.079  0.00  0.00    +0.220 C 
BRANCH  24  25
ATOM     25  C   LIG    1       -7.414   0.529   1.217  0.00  0.00    -0.040 C 
BRANCH  25  26
ATOM     26  C   LIG    1       -8.753  -0.209   1.168  0.00  0.00    +0.230 C 
ATOM     27  F   LIG    1       -8.810  -1.142   2.208  0.00  0.00    -0.220 F 
ENDBRANCH  25  26
ENDBRANCH  24  25
ENDBRANCH  20  24
ENDBRANCH  17  18
ENDBRANCH   2  17
TORSDOF 6
