REMARK  Name = ZINCrD000000CNYs.0
REMARK                            x       y       z     vdW  Elec       q    Type
REMARK                         _______ _______ _______ _____ _____    ______ ____
ROOT
ATOM      1  C   LIG    1        3.082   0.727   3.438  0.00  0.00    +0.230 C 
ENDROOT
BRANCH   1   2
ATOM      2  C   LIG    1        1.969   1.088   2.488  0.00  0.00    +0.540 C 
ATOM      3  N   LIG    1        2.219   1.201   1.169  0.00  0.00    -0.640 N 
ATOM      4  C   LIG    1        3.400   0.964   0.316  0.00  0.00    +0.280 C 
ATOM      5  C   LIG    1        2.397   0.757  -0.834  0.00  0.00    +0.040 C 
ATOM      6  C   LIG    1        1.421   1.610  -0.004  0.00  0.00    +0.250 C 
ATOM      7  O   LIG    1        0.848   1.276   2.912  0.00  0.00    -0.510 OA
BRANCH   6   8
ATOM      8  C   LIG    1       -0.012   1.073   0.007  0.00  0.00    +0.000 C 
ATOM      9  C   LIG    1       -0.601   1.163  -1.402  0.00  0.00    +0.050 C 
ATOM     10  C   LIG    1       -2.033   0.626  -1.391  0.00  0.00    +0.030 C 
ATOM     11  C   LIG    1       -2.027  -0.834  -0.933  0.00  0.00    +0.290 C 
ATOM     12  C   LIG    1       -1.438  -0.923   0.476  0.00  0.00    +0.020 C 
ATOM     13  F   LIG    1       -3.337  -1.325  -0.923  0.00  0.00    -0.200 F 
ATOM     14  F   LIG    1       -1.250  -1.595  -1.813  0.00  0.00    -0.200 F 
ATOM     15  C   LIG    1       -0.006  -0.387   0.465  0.00  0.00    +0.040 C 
ENDBRANCH   6   8
ENDBRANCH   1   2
BRANCH   1  16
ATOM     16  O   LIG    1        2.571   0.669   4.771  0.00  0.00    -0.290 OA
BRANCH  16  23
ATOM     17  O   LIG    1        6.509  -1.307  10.852  0.00  0.00    -0.530 OA
ATOM     18  C   LIG    1        5.712  -1.046   9.976  0.00  0.00    +0.520 C 
ATOM     19  C   LIG    1        4.239  -1.211  10.237  0.00  0.00    +0.080 C 
ATOM     20  C   LIG    1        3.455  -0.120   9.507  0.00  0.00    +0.110 C 
ATOM     21  C   LIG    1        3.918  -0.040   8.075  0.00  0.00    -0.080 A 
ATOM     22  C   LIG    1        3.024   0.286   7.075  0.00  0.00    +0.030 A 
ATOM     23  C   LIG    1        3.453   0.354   5.757  0.00  0.00    +0.110 A 
ATOM     24  C   LIG    1        4.782   0.106   5.445  0.00  0.00    -0.050 A 
ATOM     25  C   LIG    1        5.678  -0.215   6.446  0.00  0.00    +0.020 A 
ATOM     26  C   LIG    1        5.249  -0.288   7.764  0.00  0.00    +0.120 A 
ATOM     27  N   LIG    1        6.155  -0.612   8.781  0.00  0.00    -0.660 N 
ATOM     28  H   LIG    1        7.108  -0.522   8.624  0.00  0.00    +0.410 HD
ENDBRANCH  16  23
ENDBRANCH   1  16
TORSDOF 4
