REMARK  Name = ZINCpk00000y6xM5.0
REMARK                            x       y       z     vdW  Elec       q    Type
REMARK                         _______ _______ _______ _____ _____    ______ ____
ROOT
ATOM      1  C   LIG    1        1.493   1.534   2.418  0.00  0.00    +0.220 C 
ATOM      2  C   LIG    1        2.115   1.098   1.091  0.00  0.00    +0.330 C 
ATOM      3  O   LIG    1        1.325   1.579  -0.002  0.00  0.00    -0.380 OA
ATOM      4  C   LIG    1       -0.013   1.086   0.008  0.00  0.00    +0.130 C 
ATOM      5  C   LIG    1       -0.798   1.591  -1.203  0.00  0.00    +0.250 C 
ATOM      6  O   LIG    1       -2.154   1.151  -1.079  0.00  0.00    -0.370 OA
ATOM      7  C   LIG    1       -2.801   1.570   0.123  0.00  0.00    +0.260 C 
ATOM      8  O   LIG    1       -2.064   1.115   1.263  0.00  0.00    -0.360 OA
ATOM      9  C   LIG    1       -2.883   3.098   0.149  0.00  0.00    +0.010 C 
ATOM     10  C   LIG    1       -4.215   0.988   0.168  0.00  0.00    +0.110 C 
ATOM     11  C   LIG    1       -0.715   1.580   1.279  0.00  0.00    +0.140 C 
ATOM     12  C   LIG    1        0.042   1.044   2.495  0.00  0.00    +0.200 C 
ENDROOT
BRANCH   1  15
ATOM     13  C   LIG    1        2.648   5.126   3.065  0.00  0.00    +0.100 C 
ATOM     14  C   LIG    1        2.621   3.623   2.969  0.00  0.00    +0.520 C 
ATOM     15  N   LIG    1        1.519   2.996   2.511  0.00  0.00    -0.720 N 
ATOM     16  H   LIG    1        0.743   3.513   2.243  0.00  0.00    +0.400 HD
ATOM     17  O   LIG    1        3.591   2.976   3.304  0.00  0.00    -0.520 OA
ENDBRANCH   1  15
BRANCH  12  18
ATOM     18  O   LIG    1        0.017  -0.385   2.484  0.00  0.00    -0.540 OA
ATOM     19  H   LIG    1        0.493  -0.792   3.221  0.00  0.00    +0.390 HD
ENDBRANCH  12  18
BRANCH   2  20
ATOM     20  O   LIG    1        3.437   1.631   0.991  0.00  0.00    -0.270 OA
BRANCH  20  21
ATOM     21  C   LIG    1        4.179   1.244  -0.080  0.00  0.00    +0.130 A 
ATOM     22  C   LIG    1        3.647   0.365  -1.013  0.00  0.00    -0.040 A 
ATOM     23  C   LIG    1        4.402  -0.024  -2.103  0.00  0.00    +0.070 A 
ATOM     24  C   LIG    1        5.690   0.456  -2.260  0.00  0.00    -0.070 A 
ATOM     25  C   LIG    1        6.224   1.328  -1.329  0.00  0.00    +0.070 A 
ATOM     26 CL   LIG    1        6.638  -0.039  -3.628  0.00  0.00    -0.070 Cl
ATOM     27  C   LIG    1        5.471   1.723  -0.240  0.00  0.00    +0.010 A 
ENDBRANCH  20  21
ENDBRANCH   2  20
TORSDOF 4
