REMARK  Name = ZINCpe000000XDXH.0
REMARK                            x       y       z     vdW  Elec       q    Type
REMARK                         _______ _______ _______ _____ _____    ______ ____
ROOT
ATOM      1  N   LIG    1       -2.934   5.725   0.313  0.00  0.00    -0.460 N 
ATOM      2  C   LIG    1       -3.219   5.306  -1.066  0.00  0.00    +0.210 C 
ATOM      3  C   LIG    1       -4.552   5.913  -1.516  0.00  0.00    +0.290 C 
ATOM      4  N   LIG    1       -4.498   7.368  -1.306  0.00  0.00    -0.620 N 
ATOM      5  C   LIG    1       -4.086   7.865   0.015  0.00  0.00    +0.300 C 
ATOM      6  C   LIG    1       -4.817   8.222  -2.298  0.00  0.00    +0.520 C 
ATOM      7  O   LIG    1       -4.767   9.419  -2.107  0.00  0.00    -0.520 OA
ATOM      8  C   LIG    1       -2.771   7.182   0.405  0.00  0.00    +0.220 C 
ENDROOT
BRANCH   1  14
ATOM      9  C   LIG    1        1.419   6.001   2.297  0.00  0.00    +0.140 C 
ATOM     10  C   LIG    1        0.270   5.184   1.764  0.00  0.00    +0.200 A 
ATOM     11  C   LIG    1        0.327   3.800   1.779  0.00  0.00    -0.110 A 
ATOM     12  C   LIG    1       -0.749   3.086   1.275  0.00  0.00    +0.210 A 
ATOM     13  N   LIG    1       -1.797   3.744   0.806  0.00  0.00    -0.530 NA
ATOM     14  C   LIG    1       -1.822   5.069   0.811  0.00  0.00    +0.500 A 
ATOM     15  N   LIG    1       -0.808   5.780   1.281  0.00  0.00    -0.560 NA
BRANCH  12  16
ATOM     16  C   LIG    1       -0.729   1.579   1.267  0.00  0.00    +0.050 C 
ATOM     17  C   LIG    1        0.011   1.072   2.506  0.00  0.00    +0.040 C 
ATOM     18  C   LIG    1       -0.013   1.086   0.008  0.00  0.00    +0.050 C 
ENDBRANCH  12  16
ENDBRANCH   1  14
BRANCH   6  19
ATOM     19  C   LIG    1       -5.236   7.691  -3.645  0.00  0.00    +0.220 C 
BRANCH  19  20
ATOM     20  N   LIG    1       -5.529   8.814  -4.545  0.00  0.00    -0.520 NA
ATOM     21  C   LIG    1       -6.710   9.561  -4.088  0.00  0.00    +0.150 C 
ATOM     22  C   LIG    1       -6.943  10.755  -5.018  0.00  0.00    +0.230 C 
ATOM     23  O   LIG    1       -7.086  10.285  -6.361  0.00  0.00    -0.390 OA
ATOM     24  C   LIG    1       -5.954   9.553  -6.839  0.00  0.00    +0.220 C 
ATOM     25  C   LIG    1       -5.711   8.348  -5.927  0.00  0.00    +0.160 C 
ENDBRANCH  19  20
ENDBRANCH   6  19
TORSDOF 4
