REMARK  Name = ZINCrH000004mA6f.0
REMARK                            x       y       z     vdW  Elec       q    Type
REMARK                         _______ _______ _______ _____ _____    ______ ____
ROOT
ATOM      1  C   LIG    1       -2.879  -2.536   4.976  0.00  0.00    +0.520 C 
ATOM      2  N   LIG    1       -2.247  -2.134   3.855  0.00  0.00    -0.680 N 
ATOM      3  H   LIG    1       -1.785  -2.782   3.300  0.00  0.00    +0.420 HD
ATOM      4  O   LIG    1       -3.529  -1.742   5.622  0.00  0.00    -0.510 OA
ENDROOT
BRANCH   2   5
ATOM      5  C   LIG    1       -2.257  -0.780   3.491  0.00  0.00    +0.140 A 
ATOM      6  C   LIG    1       -1.087  -0.116   3.325  0.00  0.00    +0.220 A 
ATOM      7  N   LIG    1       -1.084   1.202   2.971  0.00  0.00    -0.380 N 
ATOM      8  C   LIG    1       -2.265   1.875   2.779  0.00  0.00    +0.190 A 
ATOM      9  C   LIG    1       -3.490   1.200   2.947  0.00  0.00    +0.100 A 
ATOM     10  N   LIG    1       -1.950   3.117   2.448  0.00  0.00    -0.280 NA
ATOM     11  N   LIG    1       -0.669   3.245   2.433  0.00  0.00    -0.240 NA
ATOM     12  C   LIG    1       -0.097   2.109   2.737  0.00  0.00    +0.160 A 
ATOM     13  C   LIG    1       -3.484  -0.113   3.300  0.00  0.00    +0.070 A 
BRANCH  12  14
ATOM     14  C   LIG    1        1.386   1.852   2.821  0.00  0.00    +0.080 C 
ATOM     15  C   LIG    1        2.198   2.557   1.721  0.00  0.00    +0.050 C 
ATOM     16  C   LIG    1        3.252   2.856   2.800  0.00  0.00    +0.020 C 
ATOM     17  C   LIG    1        2.112   2.759   3.828  0.00  0.00    +0.040 C 
ENDBRANCH  12  14
ENDBRANCH   2   5
BRANCH   1  18
ATOM     18  C   LIG    1       -2.778  -3.971   5.425  0.00  0.00    +0.070 C 
BRANCH  18  19
ATOM     19  C   LIG    1       -3.581  -4.160   6.713  0.00  0.00    +0.110 C 
BRANCH  19  23
ATOM     20  C   LIG    1       -3.296  -8.231   7.985  0.00  0.00    +0.090 A 
ATOM     21  C   LIG    1       -4.316  -7.839   7.132  0.00  0.00    -0.040 A 
ATOM     22  C   LIG    1       -4.409  -6.521   6.727  0.00  0.00    +0.050 A 
ATOM     23  C   LIG    1       -3.480  -5.595   7.162  0.00  0.00    -0.100 A 
ATOM     24  C   LIG    1       -2.461  -5.981   8.014  0.00  0.00    +0.030 A 
ATOM     25  C   LIG    1       -2.366  -7.298   8.427  0.00  0.00    +0.070 A 
ATOM     26  F   LIG    1       -1.371  -7.676   9.258  0.00  0.00    -0.130 F 
BRANCH  20  28
ATOM     27  C   LIG    1       -4.197 -10.430   7.896  0.00  0.00    +0.260 C 
ATOM     28  O   LIG    1       -3.207  -9.525   8.390  0.00  0.00    -0.310 OA
ENDBRANCH  20  28
ENDBRANCH  19  23
ENDBRANCH  18  19
ENDBRANCH   1  18
TORSDOF 6
