REMARK  Name = ZINCrD00000F5LlK.0
REMARK                            x       y       z     vdW  Elec       q    Type
REMARK                         _______ _______ _______ _____ _____    ______ ____
ROOT
ATOM      1  N   LIG    1       -1.452   6.216   0.703  0.00  0.00    -0.720 N 
ATOM      2  H   LIG    1       -2.134   5.596   1.008  0.00  0.00    +0.400 HD
ATOM      3  C   LIG    1       -1.335   7.427   1.283  0.00  0.00    +0.570 C 
ATOM      4  O   LIG    1       -0.481   8.203   0.902  0.00  0.00    -0.520 OA
ENDROOT
BRANCH   3   5
ATOM      5  C   LIG    1       -2.245   7.811   2.383  0.00  0.00    -0.120 A 
ATOM      6  C   LIG    1       -3.227   6.923   2.825  0.00  0.00    +0.010 A 
ATOM      7  C   LIG    1       -4.075   7.286   3.850  0.00  0.00    +0.020 A 
ATOM      8  C   LIG    1       -3.961   8.530   4.449  0.00  0.00    -0.090 A 
ATOM      9  C   LIG    1       -4.914   8.890   5.559  0.00  0.00    +0.090 C 
ATOM     10  C   LIG    1       -4.342  10.023   6.411  0.00  0.00    +0.020 C 
ATOM     11  C   LIG    1       -3.919  11.173   5.487  0.00  0.00    +0.280 C 
ATOM     12  N   LIG    1       -2.845  10.677   4.616  0.00  0.00    -0.550 N 
ATOM     13  C   LIG    1       -1.743  11.421   4.395  0.00  0.00    +0.540 C 
ATOM     14  O   LIG    1       -0.811  10.956   3.766  0.00  0.00    -0.510 OA
ATOM     15  C   LIG    1       -2.985   9.417   4.018  0.00  0.00    +0.150 A 
ATOM     16  C   LIG    1       -2.124   9.060   2.990  0.00  0.00    +0.090 A 
BRANCH  13  17
ATOM     17  C   LIG    1       -1.667  12.795   4.915  0.00  0.00    -0.090 C 
ATOM     18  C   LIG    1       -0.540  13.491   4.792  0.00  0.00    +0.160 C 
ENDBRANCH  13  17
ENDBRANCH   3   5
BRANCH   1  19
ATOM     19  C   LIG    1       -0.550   5.835  -0.387  0.00  0.00    +0.430 C 
BRANCH  19  20
ATOM     20  C   LIG    1       -0.442   4.333  -0.448  0.00  0.00    -0.100 A 
ATOM     21  C   LIG    1        0.780   3.738  -0.701  0.00  0.00    +0.070 A 
ATOM     22  C   LIG    1        0.880   2.361  -0.757  0.00  0.00    -0.010 A 
ATOM     23  C   LIG    1       -0.244   1.577  -0.560  0.00  0.00    +0.110 A 
ATOM     24  C   LIG    1       -1.468   2.174  -0.312  0.00  0.00    -0.010 A 
ATOM     25  F   LIG    1       -0.147   0.231  -0.615  0.00  0.00    -0.140 F 
ATOM     26  C   LIG    1       -1.565   3.551  -0.250  0.00  0.00    +0.050 A 
ENDBRANCH  19  20
BRANCH  19  28
ATOM     27  C   LIG    1       -1.506   6.745  -2.680  0.00  0.00    +0.050 C 
ATOM     28  C   LIG    1       -1.082   6.341  -1.663  0.00  0.00    -0.210 C 
ENDBRANCH  19  28
ENDBRANCH   1  19
TORSDOF 5
