REMARK  Name = ZINCrD00000eJhYr.0
REMARK                            x       y       z     vdW  Elec       q    Type
REMARK                         _______ _______ _______ _____ _____    ______ ____
ROOT
ATOM      1  C   LIG    1       -1.433  -0.534   0.013  0.00  0.00    +0.280 C 
ENDROOT
BRANCH   1   2
ATOM      2  N   LIG    1       -1.414  -1.994   0.125  0.00  0.00    -0.730 N 
ATOM      3  H   LIG    1       -0.568  -2.465   0.179  0.00  0.00    +0.400 HD
ATOM      4  C   LIG    1       -2.572  -2.683   0.154  0.00  0.00    +0.590 C 
ATOM      5  O   LIG    1       -3.633  -2.092   0.087  0.00  0.00    -0.510 OA
BRANCH   4   6
ATOM      6  C   LIG    1       -2.553  -4.149   0.267  0.00  0.00    +0.010 A 
ATOM      7  C   LIG    1       -3.649  -4.950   0.305  0.00  0.00    +0.070 A 
ATOM      8  C   LIG    1       -3.202  -6.289   0.416  0.00  0.00    -0.130 A 
ATOM      9  C   LIG    1       -3.864  -7.520   0.497  0.00  0.00    +0.120 A 
ATOM     10  C   LIG    1       -3.143  -8.674   0.600  0.00  0.00    -0.040 A 
ATOM     11  C   LIG    1       -1.753  -8.640   0.625  0.00  0.00    +0.140 A 
ATOM     12  C   LIG    1       -1.078  -7.439   0.547  0.00  0.00    -0.030 A 
ATOM     13  F   LIG    1       -1.057  -9.793   0.727  0.00  0.00    -0.130 F 
ATOM     14  C   LIG    1       -1.793  -6.250   0.442  0.00  0.00    +0.140 A 
ATOM     15  N   LIG    1       -1.416  -4.931   0.344  0.00  0.00    -0.580 N 
ATOM     16  H   LIG    1       -0.503  -4.604   0.334  0.00  0.00    +0.420 HD
ENDBRANCH   4   6
ENDBRANCH   1   2
BRANCH   1  18
ATOM     17  C   LIG    1       -0.019   1.526   0.010  0.00  0.00    +0.050 C 
ATOM     18  C   LIG    1        0.002  -0.004   0.002  0.00  0.00    +0.230 C 
BRANCH  18  19
ATOM     19  N   LIG    1        0.711  -0.489   1.189  0.00  0.00    -0.730 N 
ATOM     20  H   LIG    1        0.213  -0.731   1.986  0.00  0.00    +0.400 HD
ATOM     21  C   LIG    1        2.054  -0.600   1.174  0.00  0.00    +0.590 C 
ATOM     22  O   LIG    1        2.678  -0.296   0.174  0.00  0.00    -0.510 OA
BRANCH  21  23
ATOM     23  C   LIG    1        2.762  -1.085   2.360  0.00  0.00    -0.010 A 
ATOM     24  C   LIG    1        4.122  -1.249   2.474  0.00  0.00    +0.100 A 
ATOM     25  C   LIG    1        4.385  -1.729   3.770  0.00  0.00    -0.220 A 
ATOM     26  C   LIG    1        3.178  -1.861   4.430  0.00  0.00    +0.080 A 
ATOM     27  C   LIG    1        3.319  -2.340   5.737  0.00  0.00    +0.020 A 
ATOM     28  C   LIG    1        4.564  -2.586   6.127  0.00  0.00    +0.000 A 
ATOM     29  S   LIG    1        5.697  -2.222   4.835  0.00  0.00    +0.140 S 
ATOM     30  N   LIG    1        2.178  -1.460   3.552  0.00  0.00    -0.540 N 
ATOM     31  H   LIG    1        1.227  -1.447   3.744  0.00  0.00    +0.420 HD
ENDBRANCH  21  23
ENDBRANCH  18  19
ENDBRANCH   1  18
TORSDOF 5
