REMARK  Name = ZINCqH0000004PfL.0
REMARK                            x       y       z     vdW  Elec       q    Type
REMARK                         _______ _______ _______ _____ _____    ______ ____
ROOT
ATOM      1  C   LIG    1       -0.724   1.029   2.416  0.00  0.00    +0.530 C 
ATOM      2  N   LIG    1       -0.746   1.583   1.187  0.00  0.00    -0.610 N 
ATOM      3  C   LIG    1       -0.013   1.086   0.008  0.00  0.00    +0.250 C 
ATOM      4  C   LIG    1       -0.806   1.621  -1.210  0.00  0.00    +0.040 C 
ATOM      5  C   LIG    1       -1.245   3.021  -0.705  0.00  0.00    +0.040 C 
ATOM      6  C   LIG    1       -1.506   2.781   0.797  0.00  0.00    +0.260 C 
ATOM      7  O   LIG    1       -1.369   1.525   3.315  0.00  0.00    -0.510 OA
ENDROOT
BRANCH   6   8
ATOM      8  C   LIG    1       -1.037   3.970   1.595  0.00  0.00    -0.040 A 
ATOM      9  C   LIG    1        0.309   4.131   1.866  0.00  0.00    -0.050 A 
ATOM     10  C   LIG    1        0.745   5.221   2.598  0.00  0.00    +0.050 A 
ATOM     11  C   LIG    1       -0.165   6.151   3.061  0.00  0.00    -0.080 A 
ATOM     12  C   LIG    1       -1.518   5.992   2.791  0.00  0.00    +0.220 A 
ATOM     13  C   LIG    1       -1.951   4.899   2.050  0.00  0.00    -0.060 A 
BRANCH  12  14
ATOM     14  N   LIG    1       -2.440   6.931   3.257  0.00  0.00    -0.640 N 
ATOM     15  C   LIG    1       -3.867   6.761   2.971  0.00  0.00    +0.270 C 
ATOM     16  C   LIG    1       -1.981   8.086   4.033  0.00  0.00    +0.280 C 
ENDBRANCH  12  14
ENDBRANCH   6   8
BRANCH   1  17
ATOM     17  C   LIG    1        0.102  -0.205   2.672  0.00  0.00    +0.140 C 
BRANCH  17  22
ATOM     18  C   LIG    1       -1.003  -1.496   4.674  0.00  0.00    +0.040 A 
ATOM     19  N   LIG    1       -0.747  -1.553   5.949  0.00  0.00    -0.360 NA
ATOM     20  O   LIG    1        0.199  -0.859   6.245  0.00  0.00    +0.100 OA
ATOM     21  C   LIG    1        0.709  -0.239   5.172  0.00  0.00    -0.010 A 
ATOM     22  C   LIG    1       -0.047  -0.618   4.114  0.00  0.00    -0.180 A 
BRANCH  18  24
ATOM     23  C   LIG    1       -1.585  -3.580   3.463  0.00  0.00    +0.040 C 
ATOM     24  C   LIG    1       -2.102  -2.221   3.941  0.00  0.00    +0.110 C 
ENDBRANCH  18  24
BRANCH  21  25
ATOM     25  C   LIG    1        1.890   0.698   5.148  0.00  0.00    +0.140 C 
ATOM     26  C   LIG    1        1.407   2.132   5.370  0.00  0.00    +0.050 C 
ENDBRANCH  21  25
ENDBRANCH  17  22
ENDBRANCH   1  17
TORSDOF 6
