REMARK  Name = ZINCkj000005lqX0.0
REMARK                            x       y       z     vdW  Elec       q    Type
REMARK                         _______ _______ _______ _____ _____    ______ ____
ROOT
ATOM      1  N   LIG    1       -3.321   0.867  -1.118  0.00  0.00    -0.720 N 
ATOM      2  H   LIG    1       -3.581   1.630  -0.578  0.00  0.00    +0.400 HD
ATOM      3  C   LIG    1       -4.175  -0.160  -1.290  0.00  0.00    +0.580 C 
ATOM      4  O   LIG    1       -3.886  -1.073  -2.040  0.00  0.00    -0.510 OA
ENDROOT
BRANCH   3   5
ATOM      5  C   LIG    1       -5.460  -0.178  -0.571  0.00  0.00    -0.150 A 
ATOM      6  C   LIG    1       -5.857   0.903   0.207  0.00  0.00    +0.120 A 
ATOM      7  C   LIG    1       -7.086   0.849   0.872  0.00  0.00    -0.040 A 
ATOM      8  C   LIG    1       -7.887  -0.234   0.778  0.00  0.00    +0.350 A 
ATOM      9  N   LIG    1       -7.541  -1.320   0.032  0.00  0.00    -0.290 N 
ATOM     10  N   LIG    1       -8.184  -2.539  -0.220  0.00  0.00    -0.300 NA
ATOM     11  C   LIG    1       -7.428  -3.262  -1.014  0.00  0.00    +0.290 A 
ATOM     12  C   LIG    1       -6.272  -2.550  -1.309  0.00  0.00    -0.080 A 
ATOM     13  C   LIG    1       -6.351  -1.337  -0.651  0.00  0.00    +0.120 A 
ENDBRANCH   3   5
BRANCH   1  16
ATOM     14  C   LIG    1       -0.440   2.123  -2.398  0.00  0.00    +0.180 C 
ATOM     15  C   LIG    1       -1.849   1.803  -2.930  0.00  0.00    +0.060 C 
ATOM     16  C   LIG    1       -1.997   0.832  -1.745  0.00  0.00    +0.310 C 
ATOM     17  C   LIG    1       -0.954   1.688  -1.025  0.00  0.00    -0.130 C 
ATOM     18  C   LIG    1       -0.013   1.079   0.014  0.00  0.00    +0.060 C 
ATOM     19  C   LIG    1       -0.943   1.678   1.085  0.00  0.00    +0.040 C 
ATOM     20  C   LIG    1       -1.366   2.717   0.028  0.00  0.00    +0.040 C 
BRANCH  14  21
ATOM     21  N   LIG    1       -0.091   3.548  -2.473  0.00  0.00    -0.630 N 
ATOM     22  H   LIG    1       -0.907   4.105  -2.266  0.00  0.00    +0.430 HD
ATOM     23  H   LIG    1        0.238   3.766  -3.401  0.00  0.00    +0.440 HD
ATOM     24  H   LIG    1        0.634   3.752  -1.802  0.00  0.00    +0.440 HD
ENDBRANCH  14  21
ENDBRANCH   1  16
TORSDOF 3
