REMARK  Name = ZINCpe00000bFr29.0
REMARK                            x       y       z     vdW  Elec       q    Type
REMARK                         _______ _______ _______ _____ _____    ______ ____
ROOT
ATOM      1  C   LIG    1        3.398   1.879  -2.023  0.00  0.00    +0.250 C 
ATOM      2  C   LIG    1        2.915   2.719  -0.839  0.00  0.00    +0.020 C 
ATOM      3  C   LIG    1        1.400   2.568  -0.690  0.00  0.00    +0.000 C 
ATOM      4  C   LIG    1        1.057   1.097  -0.445  0.00  0.00    +0.010 C 
ATOM      5  C   LIG    1        1.539   0.256  -1.629  0.00  0.00    +0.010 C 
ATOM      6  C   LIG    1        3.054   0.408  -1.779  0.00  0.00    -0.060 C 
ATOM      7  C   LIG    1        3.535  -0.431  -2.965  0.00  0.00    +0.030 C 
ATOM      8  C   LIG    1        3.162  -1.898  -2.733  0.00  0.00    +0.270 C 
ATOM      9  N   LIG    1        3.701  -2.324  -1.435  0.00  0.00    -0.600 N 
ATOM     10  C   LIG    1        3.373  -1.535  -0.240  0.00  0.00    +0.270 C 
ATOM     11  C   LIG    1        4.482  -3.419  -1.342  0.00  0.00    +0.520 C 
ATOM     12  O   LIG    1        4.670  -4.115  -2.317  0.00  0.00    -0.530 OA
ATOM     13  C   LIG    1        3.744  -0.071  -0.499  0.00  0.00    +0.030 C 
ENDROOT
BRANCH   1  15
ATOM     14  C   LIG    1        3.250   3.374  -3.941  0.00  0.00    +0.510 C 
ATOM     15  N   LIG    1        2.738   2.337  -3.248  0.00  0.00    -0.720 N 
ATOM     16  H   LIG    1        1.934   1.895  -3.560  0.00  0.00    +0.400 HD
ATOM     17  O   LIG    1        4.256   3.927  -3.550  0.00  0.00    -0.510 OA
BRANCH  14  18
ATOM     18  C   LIG    1        2.571   3.846  -5.201  0.00  0.00    +0.200 C 
BRANCH  18  20
ATOM     19  C   LIG    1        2.735   5.474  -6.953  0.00  0.00    +0.200 C 
ATOM     20  O   LIG    1        3.298   4.948  -5.749  0.00  0.00    -0.370 OA
ENDBRANCH  18  20
ENDBRANCH  14  18
ENDBRANCH   1  15
BRANCH  11  21
ATOM     21  C   LIG    1        5.124  -3.777  -0.026  0.00  0.00    +0.230 C 
ATOM     22  C   LIG    1        4.120  -4.543   0.838  0.00  0.00    +0.060 C 
BRANCH  21  23
ATOM     23  N   LIG    1        6.301  -4.615  -0.268  0.00  0.00    -0.720 N 
ATOM     24  H   LIG    1        6.360  -5.145  -1.078  0.00  0.00    +0.410 HD
ATOM     25  C   LIG    1        7.301  -4.649   0.635  0.00  0.00    +0.520 C 
ATOM     26  O   LIG    1        7.226  -3.986   1.647  0.00  0.00    -0.540 OA
ATOM     27  C   LIG    1        8.511  -5.512   0.386  0.00  0.00    +0.110 C 
ENDBRANCH  21  23
ENDBRANCH  11  21
TORSDOF 5
