REMARK  Name = ZINCpe00000ca7SE.0
REMARK                            x       y       z     vdW  Elec       q    Type
REMARK                         _______ _______ _______ _____ _____    ______ ____
ROOT
ATOM      1  C   LIG    1        2.058  -1.129   0.106  0.00  0.00    +0.300 C 
ENDROOT
BRANCH   1   4
ATOM      2  O   LIG    1        2.696  -3.704  -0.390  0.00  0.00    -0.530 OA
ATOM      3  C   LIG    1        1.537  -3.502  -0.076  0.00  0.00    +0.590 C 
ATOM      4  N   LIG    1        1.133  -2.256   0.242  0.00  0.00    -0.720 N 
ATOM      5  H   LIG    1        0.229  -2.106   0.562  0.00  0.00    +0.410 HD
BRANCH   3   6
ATOM      6  C   LIG    1        0.614  -4.576  -0.045  0.00  0.00    -0.030 A 
ATOM      7  C   LIG    1        0.917  -5.919  -0.250  0.00  0.00    +0.090 A 
ATOM      8  C   LIG    1       -0.257  -6.637  -0.133  0.00  0.00    -0.010 A 
ATOM      9  C   LIG    1       -1.281  -5.728   0.134  0.00  0.00    +0.010 A 
ATOM     10  C   LIG    1       -2.662  -5.890   0.342  0.00  0.00    +0.160 A 
ATOM     11  C   LIG    1       -3.430  -4.791   0.589  0.00  0.00    -0.050 A 
ATOM     12  C   LIG    1       -2.842  -3.522   0.635  0.00  0.00    +0.340 A 
ATOM     13  N   LIG    1       -1.560  -3.367   0.443  0.00  0.00    -0.290 NA
ATOM     14  N   LIG    1       -0.736  -4.471   0.186  0.00  0.00    -0.230 N 
ENDBRANCH   3   6
ENDBRANCH   1   4
BRANCH   1  15
ATOM     15  C   LIG    1        1.396   0.142   0.643  0.00  0.00    +0.140 C 
ATOM     16  C   LIG    1        0.114   0.534  -0.110  0.00  0.00    +0.030 C 
ATOM     17  C   LIG    1        0.587   1.992   0.003  0.00  0.00    +0.020 C 
ATOM     18  C   LIG    1        2.018   1.438   0.097  0.00  0.00    +0.040 C 
BRANCH  15  19
ATOM     19  N   LIG    1        1.242   0.133   2.100  0.00  0.00    -0.700 N 
ATOM     20  H   LIG    1        0.369   0.278   2.496  0.00  0.00    +0.400 HD
ATOM     21  C   LIG    1        2.314  -0.077   2.889  0.00  0.00    +0.490 C 
ATOM     22  O   LIG    1        3.419  -0.174   2.398  0.00  0.00    -0.520 OA
BRANCH  21  23
ATOM     23  C   LIG    1        2.140  -0.191   4.382  0.00  0.00    +0.250 C 
BRANCH  23  24
ATOM     24  C   LIG    1        1.305  -1.432   4.704  0.00  0.00    -0.090 C 
ATOM     25  C   LIG    1       -0.101  -1.211   5.266  0.00  0.00    +0.030 C 
ATOM     26  C   LIG    1        1.015  -1.725   6.178  0.00  0.00    +0.040 C 
ENDBRANCH  23  24
BRANCH  23  27
ATOM     27  O   LIG    1        3.421  -0.305   5.004  0.00  0.00    -0.530 OA
ATOM     28  H   LIG    1        3.961  -1.032   4.663  0.00  0.00    +0.390 HD
ENDBRANCH  23  27
ENDBRANCH  21  23
ENDBRANCH  15  19
ENDBRANCH   1  15
TORSDOF 7
