REMARK  Name = ZINCpk000000pKF3.0
REMARK                            x       y       z     vdW  Elec       q    Type
REMARK                         _______ _______ _______ _____ _____    ______ ____
ROOT
ATOM      1  N   LIG    1        0.720   0.193   4.840  0.00  0.00    -0.520 NA
ATOM      2  C   LIG    1        0.619   1.657   4.774  0.00  0.00    +0.190 C 
ATOM      3  C   LIG    1       -0.350   2.049   3.656  0.00  0.00    +0.190 C 
ATOM      4  N   LIG    1        0.130   1.500   2.381  0.00  0.00    -0.530 NA
ATOM      5  C   LIG    1        0.231   0.035   2.447  0.00  0.00    +0.190 C 
ATOM      6  C   LIG    1        1.200  -0.357   3.565  0.00  0.00    +0.190 C 
ENDROOT
BRANCH   1   7
ATOM      7  C   LIG    1        1.584  -0.226   5.952  0.00  0.00    +0.200 C 
BRANCH   7  10
ATOM      8  N   LIG    1        2.179  -2.328   7.113  0.00  0.00    -0.730 N 
ATOM      9  H   LIG    1        2.761  -1.808   7.689  0.00  0.00    +0.400 HD
ATOM     10  C   LIG    1        1.470  -1.716   6.143  0.00  0.00    +0.510 C 
ATOM     11  O   LIG    1        0.742  -2.366   5.423  0.00  0.00    -0.520 OA
BRANCH   8  12
ATOM     12  C   LIG    1        2.068  -3.777   7.298  0.00  0.00    +0.230 C 
ATOM     13  C   LIG    1        3.035  -4.487   6.348  0.00  0.00    +0.030 C 
BRANCH  12  15
ATOM     14  C   LIG    1        1.379  -3.526   9.687  0.00  0.00    +0.020 C 
ATOM     15  C   LIG    1        2.419  -4.134   8.744  0.00  0.00    +0.020 C 
ENDBRANCH  12  15
ENDBRANCH   8  12
ENDBRANCH   7  10
ENDBRANCH   1   7
BRANCH   4  16
ATOM     16  C   LIG    1       -0.733   1.918   1.269  0.00  0.00    +0.200 C 
BRANCH  16  17
ATOM     17  C   LIG    1       -0.443   3.379   0.919  0.00  0.00    +0.200 C 
BRANCH  17  18
ATOM     18  O   LIG    1        0.892   3.494   0.423  0.00  0.00    -0.290 OA
BRANCH  18  19
ATOM     19  C   LIG    1        1.313   4.734   0.064  0.00  0.00    +0.170 A 
ATOM     20  C   LIG    1        0.452   5.818   0.183  0.00  0.00    -0.080 A 
ATOM     21  C   LIG    1        0.876   7.079  -0.174  0.00  0.00    +0.100 A 
ATOM     22  C   LIG    1        2.170   7.265  -0.668  0.00  0.00    -0.080 A 
ATOM     23  C   LIG    1        3.031   6.170  -0.791  0.00  0.00    +0.110 A 
ATOM     24  C   LIG    1        2.600   4.914  -0.426  0.00  0.00    -0.010 A 
BRANCH  22  25
ATOM     25  C   LIG    1        2.613   8.573  -1.046  0.00  0.00    +0.260 C 
ATOM     26  N   LIG    1        2.964   9.611  -1.347  0.00  0.00    -0.420 NA
ENDBRANCH  22  25
ENDBRANCH  18  19
ENDBRANCH  17  18
ENDBRANCH  16  17
ENDBRANCH   4  16
TORSDOF 9
