REMARK  Name = ZINCrH00000No4zN.0
REMARK                            x       y       z     vdW  Elec       q    Type
REMARK                         _______ _______ _______ _____ _____    ______ ____
ROOT
ATOM      1  C   LIG    1       -0.244  -5.146   0.515  0.00  0.00    +0.220 C 
ATOM      2  C   LIG    1        0.471  -4.184  -0.141  0.00  0.00    -0.060 C 
ATOM      3  N   LIG    1        0.237  -2.837  -0.136  0.00  0.00    -0.480 NA
ATOM      4  C   LIG    1        1.129  -2.243  -0.884  0.00  0.00    +0.310 C 
ATOM      5  N   LIG    1        2.009  -3.152  -1.418  0.00  0.00    -0.510 N 
ATOM      6  C   LIG    1        1.656  -4.386  -0.995  0.00  0.00    +0.520 C 
ATOM      7  O   LIG    1        2.201  -5.441  -1.262  0.00  0.00    -0.460 OA
ENDROOT
BRANCH   5   8
ATOM      8  C   LIG    1        3.089  -2.852  -2.260  0.00  0.00    +0.130 A 
ATOM      9  C   LIG    1        2.860  -2.334  -3.528  0.00  0.00    +0.020 A 
ATOM     10  C   LIG    1        3.926  -2.033  -4.352  0.00  0.00    -0.070 A 
ATOM     11  C   LIG    1        5.221  -2.259  -3.921  0.00  0.00    +0.020 A 
ATOM     12  C   LIG    1        5.452  -2.780  -2.662  0.00  0.00    -0.070 A 
ATOM     13  C   LIG    1        6.864  -3.025  -2.196  0.00  0.00    +0.090 C 
ATOM     14  C   LIG    1        3.679  -1.464  -5.726  0.00  0.00    +0.090 C 
ATOM     15  C   LIG    1        4.390  -3.077  -1.830  0.00  0.00    +0.010 A 
ENDBRANCH   5   8
BRANCH   1  19
ATOM     16  C   LIG    1        0.565  -9.245  -0.198  0.00  0.00    +0.150 A 
ATOM     17  C   LIG    1        0.299  -8.806   1.094  0.00  0.00    -0.020 A 
ATOM     18  C   LIG    1        0.036  -7.476   1.332  0.00  0.00    +0.100 A 
ATOM     19  C   LIG    1        0.036  -6.564   0.269  0.00  0.00    -0.140 A 
ATOM     20  C   LIG    1        0.301  -7.013  -1.033  0.00  0.00    +0.120 A 
ATOM     21  C   LIG    1        0.568  -8.344  -1.257  0.00  0.00    -0.090 A 
BRANCH  16  23
ATOM     22  C   LIG    1        1.090 -10.941  -1.777  0.00  0.00    +0.240 C 
ATOM     23  O   LIG    1        0.824 -10.557  -0.427  0.00  0.00    -0.310 OA
ENDBRANCH  16  23
ENDBRANCH   1  19
BRANCH   4  24
ATOM     24  S   LIG    1        1.199  -0.504  -1.163  0.00  0.00    +0.040 S 
BRANCH  24  25
ATOM     25  C   LIG    1       -0.222   0.029  -0.177  0.00  0.00    +0.100 C 
BRANCH  25  26
ATOM     26  C   LIG    1       -0.365   1.550  -0.269  0.00  0.00    +0.210 C 
BRANCH  26  27
ATOM     27  O   LIG    1       -1.487   1.971   0.509  0.00  0.00    -0.570 OA
ATOM     28  H   LIG    1       -1.638   2.926   0.496  0.00  0.00    +0.390 HD
ENDBRANCH  26  27
ENDBRANCH  25  26
ENDBRANCH  24  25
ENDBRANCH   4  24
TORSDOF 7
