REMARK  Name = ZINCrH00000No4AM.0
REMARK                            x       y       z     vdW  Elec       q    Type
REMARK                         _______ _______ _______ _____ _____    ______ ____
ROOT
ATOM      1  C   LIG    1        2.244   1.426   0.947  0.00  0.00    +0.100 A 
ATOM      2  C   LIG    1        1.239   1.614   0.014  0.00  0.00    +0.180 A 
ATOM      3  N   LIG    1        1.714   2.510  -0.902  0.00  0.00    -0.370 N 
ATOM      4  C   LIG    1        1.161   3.053  -2.032  0.00  0.00    +0.250 A 
ATOM      5  C   LIG    1        1.855   3.934  -2.780  0.00  0.00    -0.090 A 
ATOM      6  C   LIG    1        3.160   4.308  -2.410  0.00  0.00    -0.150 A 
ATOM      7  C   LIG    1        3.721   3.785  -1.288  0.00  0.00    +0.170 A 
ATOM      8 BR   LIG    1        1.071   4.672  -4.334  0.00  0.00    +0.020 Br
ATOM      9  C   LIG    1        2.988   2.859  -0.514  0.00  0.00    +0.220 A 
ATOM     10  N   LIG    1        3.289   2.199   0.591  0.00  0.00    -0.420 NA
ENDROOT
BRANCH   1  14
ATOM     11  C   LIG    1        1.705  -0.865   4.122  0.00  0.00    -0.020 A 
ATOM     12  N   LIG    1        2.937  -0.901   3.689  0.00  0.00    -0.400 NA
ATOM     13  C   LIG    1        3.228  -0.182   2.646  0.00  0.00    +0.260 A 
ATOM     14  C   LIG    1        2.183   0.537   2.121  0.00  0.00    -0.130 A 
ATOM     15  S   LIG    1        0.756   0.215   3.104  0.00  0.00    +0.270 S 
BRANCH  11  16
ATOM     16  C   LIG    1        1.192  -1.605   5.279  0.00  0.00    +0.550 C 
ATOM     17  O   LIG    1        0.024  -1.501   5.598  0.00  0.00    -0.490 OA
BRANCH  16  19
ATOM     18  C   LIG    1        1.451  -3.092   7.105  0.00  0.00    +0.280 C 
ATOM     19  O   LIG    1        2.018  -2.401   5.990  0.00  0.00    -0.320 OA
ENDBRANCH  16  19
ENDBRANCH  11  16
ENDBRANCH   1  14
BRANCH   6  20
ATOM     20  C   LIG    1        3.931   5.293  -3.251  0.00  0.00    +0.450 C 
ATOM     21  F   LIG    1        3.236   6.506  -3.303  0.00  0.00    -0.190 F 
ATOM     22  F   LIG    1        4.081   4.785  -4.545  0.00  0.00    -0.190 F 
ENDBRANCH   6  20
BRANCH   2  23
ATOM     23  N   LIG    1       -0.012   1.005   0.008  0.00  0.00    -0.570 N 
ATOM     24  H   LIG    1        0.071   0.008   0.143  0.00  0.00    +0.380 HD
BRANCH  23  25
ATOM     25  C   LIG    1       -0.739   1.309  -1.232  0.00  0.00    +0.070 C 
ATOM     26  C   LIG    1       -1.706   2.502  -1.110  0.00  0.00    +0.230 C 
ATOM     27  O   LIG    1       -2.632   1.681  -1.849  0.00  0.00    -0.360 OA
ATOM     28  C   LIG    1       -2.002   0.451  -1.438  0.00  0.00    +0.250 C 
ENDBRANCH  23  25
ENDBRANCH   2  23
TORSDOF 6
