REMARK  Name = ZINCvU0000000AXG.0
REMARK                            x       y       z     vdW  Elec       q    Type
REMARK                         _______ _______ _______ _____ _____    ______ ____
ROOT
ATOM      1  C   LIG    1       -3.555  -1.055   0.601  0.00  0.00    +0.020 A 
ATOM      2  C   LIG    1       -4.751  -0.331   0.420  0.00  0.00    -0.210 A 
ATOM      3  C   LIG    1       -6.164  -0.703   0.363  0.00  0.00    +0.150 A 
ATOM      4  N   LIG    1       -6.844   0.387   0.174  0.00  0.00    -0.260 NA
ATOM      5  O   LIG    1       -5.966   1.491   0.098  0.00  0.00    -0.080 OA
ATOM      6  C   LIG    1       -6.726  -2.094   0.500  0.00  0.00    +0.200 C 
ATOM      7  C   LIG    1       -4.695   1.064   0.246  0.00  0.00    +0.310 A 
ATOM      8  N   LIG    1       -3.529   1.688   0.252  0.00  0.00    -0.460 NA
ATOM      9  C   LIG    1       -2.387   1.038   0.419  0.00  0.00    +0.250 A 
ATOM     10  C   LIG    1       -2.357  -0.347   0.593  0.00  0.00    -0.010 A 
ENDROOT
BRANCH   1  16
ATOM     11  C   LIG    1       -1.528  -5.338   0.190  0.00  0.00    +0.000 C 
ATOM     12  C   LIG    1       -0.690  -4.846  -0.992  0.00  0.00    +0.030 C 
ATOM     13  C   LIG    1       -0.612  -3.318  -0.963  0.00  0.00    +0.030 C 
ATOM     14  C   LIG    1       -2.023  -2.737  -1.096  0.00  0.00    +0.260 C 
ATOM     15  N   LIG    1       -2.875  -3.317  -0.049  0.00  0.00    -0.600 N 
ATOM     16  C   LIG    1       -3.573  -2.524   0.787  0.00  0.00    +0.560 C 
ATOM     17  O   LIG    1       -4.218  -3.013   1.693  0.00  0.00    -0.500 OA
ATOM     18  C   LIG    1       -2.945  -4.780   0.074  0.00  0.00    +0.300 C 
BRANCH  11  19
ATOM     19  C   LIG    1       -1.577  -6.867   0.180  0.00  0.00    +0.090 C 
BRANCH  19  21
ATOM     20  C   LIG    1       -2.401  -9.258   1.471  0.00  0.00    +0.140 C 
ATOM     21  S   LIG    1       -2.445  -7.455   1.661  0.00  0.00    -0.260 S 
ENDBRANCH  19  21
ENDBRANCH  11  19
ENDBRANCH   1  16
BRANCH   9  22
ATOM     22  C   LIG    1       -1.113   1.797   0.415  0.00  0.00    -0.060 A 
ATOM     23  C   LIG    1        0.104   1.121   0.485  0.00  0.00    +0.080 A 
ATOM     24  C   LIG    1        1.287   1.832   0.476  0.00  0.00    +0.030 A 
ATOM     25  C   LIG    1        1.266   3.213   0.403  0.00  0.00    +0.100 A 
ATOM     26  C   LIG    1        0.060   3.890   0.339  0.00  0.00    -0.190 A 
ATOM     27  C   LIG    1       -1.128   3.189   0.348  0.00  0.00    +0.130 A 
BRANCH  26  28
ATOM     28  C   LIG    1        0.046   5.395   0.261  0.00  0.00    +0.510 C 
ATOM     29  F   LIG    1       -0.645   5.913   1.362  0.00  0.00    -0.170 F 
ATOM     30  F   LIG    1       -0.590   5.794  -0.919  0.00  0.00    -0.170 F 
ATOM     31  F   LIG    1        1.360   5.875   0.268  0.00  0.00    -0.180 F 
ENDBRANCH  26  28
ENDBRANCH   9  22
TORSDOF 5
