REMARK  Name = ZINCqH0000033Ao4.0
REMARK                            x       y       z     vdW  Elec       q    Type
REMARK                         _______ _______ _______ _____ _____    ______ ____
ROOT
ATOM      1  N   LIG    1        0.941  -3.721  -0.027  0.00  0.00    -0.610 N 
ATOM      2  H   LIG    1        0.322  -4.468  -0.025  0.00  0.00    +0.430 HD
ATOM      3  C   LIG    1        2.269  -3.947  -0.041  0.00  0.00    +0.600 C 
ATOM      4  O   LIG    1        3.046  -3.011  -0.043  0.00  0.00    -0.500 OA
ENDROOT
BRANCH   1   8
ATOM      5  C   LIG    1        0.002  -0.004   0.002  0.00  0.00    -0.370 A 
ATOM      6  C   LIG    1       -1.092  -0.826   0.008  0.00  0.00    +0.200 A 
ATOM      7  N   LIG    1       -0.800  -2.101  -0.002  0.00  0.00    -0.520 NA
ATOM      8  C   LIG    1        0.461  -2.425  -0.015  0.00  0.00    +0.250 A 
ATOM      9  C   LIG    1       -2.507  -0.308   0.025  0.00  0.00    +0.180 C 
ATOM     10  S   LIG    1        1.439  -1.023  -0.025  0.00  0.00    +0.340 S 
BRANCH   5  11
ATOM     11  C   LIG    1       -0.018   1.457   0.010  0.00  0.00    +0.550 C 
ATOM     12  O   LIG    1       -1.080   2.051   0.018  0.00  0.00    -0.500 OA
BRANCH  11  13
ATOM     13  O   LIG    1        1.141   2.147   0.003  0.00  0.00    -0.350 OA
BRANCH  13  15
ATOM     14  C   LIG    1        2.453   4.177   0.001  0.00  0.00    +0.070 C 
ATOM     15  C   LIG    1        1.047   3.573   0.011  0.00  0.00    +0.200 C 
ENDBRANCH  13  15
ENDBRANCH  11  13
ENDBRANCH   5  11
ENDBRANCH   1   8
BRANCH   3  16
ATOM     16  C   LIG    1        2.781  -5.329  -0.053  0.00  0.00    -0.290 A 
ATOM     17  C   LIG    1        4.108  -5.712  -0.068  0.00  0.00    +0.350 A 
ATOM     18  N   LIG    1        4.139  -7.057  -0.075  0.00  0.00    -0.300 N 
ATOM     19  N   LIG    1        2.822  -7.530  -0.065  0.00  0.00    -0.280 NA
ATOM     20  C   LIG    1        2.006  -6.511  -0.046  0.00  0.00    +0.300 A 
BRANCH  18  21
ATOM     21  C   LIG    1        5.294  -7.850  -0.091  0.00  0.00    +0.160 A 
ATOM     22  C   LIG    1        5.187  -9.234  -0.097  0.00  0.00    +0.040 A 
ATOM     23  C   LIG    1        6.327 -10.014  -0.113  0.00  0.00    +0.070 A 
ATOM     24  C   LIG    1        7.574  -9.418  -0.122  0.00  0.00    +0.030 A 
ATOM     25  C   LIG    1        7.685  -8.038  -0.116  0.00  0.00    -0.010 A 
ATOM     26 CL   LIG    1        9.253  -7.293  -0.128  0.00  0.00    -0.050 Cl
ATOM     27  C   LIG    1        6.547  -7.253  -0.106  0.00  0.00    +0.010 A 
ENDBRANCH  18  21
ENDBRANCH   3  16
TORSDOF 6
