REMARK  Name = ZINCrH000004uHJ6.0
REMARK                            x       y       z     vdW  Elec       q    Type
REMARK                         _______ _______ _______ _____ _____    ______ ____
ROOT
ATOM      1  O   LIG    1       -1.353  -0.905  -0.096  0.00  0.00    -0.570 OA
ATOM      2  C   LIG    1       -2.413  -0.307  -0.087  0.00  0.00    +0.700 C 
ATOM      3  N   LIG    1       -2.428   1.036   0.021  0.00  0.00    -0.680 N 
ATOM      4  H   LIG    1       -3.272   1.506   0.105  0.00  0.00    +0.410 HD
ATOM      5  N   LIG    1       -3.571  -0.989  -0.185  0.00  0.00    -0.740 N 
ATOM      6  H   LIG    1       -4.416  -0.513  -0.179  0.00  0.00    +0.400 HD
ENDROOT
BRANCH   3   7
ATOM      7  C   LIG    1       -1.224   1.754   0.011  0.00  0.00    +0.170 A 
ATOM      8  C   LIG    1       -0.153   1.302  -0.747  0.00  0.00    +0.040 A 
ATOM      9  C   LIG    1        1.033   2.012  -0.761  0.00  0.00    +0.050 A 
ATOM     10  C   LIG    1        1.158   3.174  -0.014  0.00  0.00    +0.030 A 
ATOM     11  O   LIG    1        2.335   3.857  -0.037  0.00  0.00    -0.310 OA
ATOM     12  C   LIG    1        2.302   5.212   0.426  0.00  0.00    +0.220 C 
ATOM     13  C   LIG    1        1.513   5.250   1.742  0.00  0.00    +0.220 C 
ATOM     14  O   LIG    1        0.190   4.767   1.485  0.00  0.00    -0.310 OA
ATOM     15  C   LIG    1        0.087   3.626   0.749  0.00  0.00    +0.070 A 
ATOM     16  C   LIG    1       -1.101   2.913   0.763  0.00  0.00    +0.000 A 
ENDBRANCH   3   7
BRANCH   5  17
ATOM     17  C   LIG    1       -3.554  -2.449  -0.303  0.00  0.00    +0.380 C 
BRANCH  17  18
ATOM     18  C   LIG    1       -4.968  -2.962  -0.397  0.00  0.00    -0.250 A 
ATOM     19  C   LIG    1       -5.754  -3.326   0.643  0.00  0.00    +0.260 A 
ATOM     20  N   LIG    1       -6.944  -3.724   0.139  0.00  0.00    -0.320 N 
ATOM     21  N   LIG    1       -6.882  -3.608  -1.255  0.00  0.00    -0.280 NA
ATOM     22  C   LIG    1       -5.698  -3.152  -1.575  0.00  0.00    +0.270 A 
BRANCH  20  23
ATOM     23  C   LIG    1       -8.044  -4.178   0.881  0.00  0.00    +0.170 A 
ATOM     24  C   LIG    1       -7.967  -4.249   2.266  0.00  0.00    +0.000 A 
ATOM     25  C   LIG    1       -9.053  -4.691   2.995  0.00  0.00    +0.090 A 
ATOM     26  C   LIG    1      -10.213  -5.075   2.346  0.00  0.00    -0.100 A 
ATOM     27  C   LIG    1      -10.291  -5.010   0.966  0.00  0.00    +0.080 A 
ATOM     28 BR   LIG    1      -11.696  -5.688   3.347  0.00  0.00    -0.040 Br
ATOM     29  C   LIG    1       -9.209  -4.563   0.233  0.00  0.00    +0.040 A 
ENDBRANCH  20  23
ENDBRANCH  17  18
ENDBRANCH   5  17
TORSDOF 4
