REMARK  Name = ZINCtV000002xCPN.0
REMARK                            x       y       z     vdW  Elec       q    Type
REMARK                         _______ _______ _______ _____ _____    ______ ____
ROOT
ATOM      1  C   LIG    1        0.949   1.869   7.819  0.00  0.00    +0.290 C 
ENDROOT
BRANCH   1   2
ATOM      2  C   LIG    1        1.141   3.053   8.732  0.00  0.00    -0.080 A 
ATOM      3  C   LIG    1        2.132   3.976   8.468  0.00  0.00    +0.020 A 
ATOM      4  C   LIG    1        2.308   5.063   9.306  0.00  0.00    +0.010 A 
ATOM      5  C   LIG    1        1.494   5.231  10.411  0.00  0.00    +0.020 A 
ATOM      6  C   LIG    1        0.500   4.313  10.685  0.00  0.00    +0.020 A 
ATOM      7  C   LIG    1        0.314   3.220   9.841  0.00  0.00    -0.040 A 
BRANCH   7   8
ATOM      8  C   LIG    1       -0.758   2.234  10.126  0.00  0.00    -0.050 A 
ATOM      9  C   LIG    1       -1.732   1.963   9.167  0.00  0.00    +0.020 A 
ATOM     10  C   LIG    1       -2.724   1.041   9.435  0.00  0.00    +0.010 A 
ATOM     11  C   LIG    1       -2.758   0.395  10.658  0.00  0.00    +0.000 A 
ATOM     12  C   LIG    1       -1.797   0.664  11.616  0.00  0.00    +0.000 A 
ATOM     13  C   LIG    1       -0.798   1.580  11.356  0.00  0.00    +0.020 A 
ENDBRANCH   7   8
ENDBRANCH   1   2
BRANCH   1  15
ATOM     14  C   LIG    1       -0.170   1.076   5.731  0.00  0.00    +0.020 C 
ATOM     15  C   LIG    1        0.169   2.305   6.577  0.00  0.00    +0.020 C 
ENDBRANCH   1  15
BRANCH   1  16
ATOM     16  N   LIG    1        2.257   1.347   7.416  0.00  0.00    -1.100 NA
ATOM     17  H   LIG    1        2.942   1.952   7.090  0.00  0.00    +0.420 HD
BRANCH  16  18
ATOM     18  S   LIG    1        2.567  -0.277   7.517  0.00  0.00    +2.690 S 
ATOM     19  O   LIG    1        1.472  -0.934   6.892  0.00  0.00    -0.940 OA
ATOM     20  O   LIG    1        3.916  -0.455   7.108  0.00  0.00    -0.940 OA
BRANCH  18  21
ATOM     21  C   LIG    1        2.502  -0.715   9.223  0.00  0.00    -0.710 A 
ATOM     22  C   LIG    1        1.516  -1.570   9.678  0.00  0.00    +0.200 A 
ATOM     23  C   LIG    1        1.463  -1.916  11.015  0.00  0.00    -0.060 A 
ATOM     24  C   LIG    1        2.399  -1.404  11.901  0.00  0.00    +0.210 A 
ATOM     25  C   LIG    1        3.385  -0.541  11.444  0.00  0.00    -0.090 A 
ATOM     26 CL   LIG    1        4.555   0.107  12.551  0.00  0.00    -0.020 Cl
ATOM     27  C   LIG    1        3.438  -0.203  10.104  0.00  0.00    +0.100 A 
ATOM     28 CL   LIG    1        4.676   0.870   9.528  0.00  0.00    -0.010 Cl
BRANCH  24  29
ATOM     29  O   LIG    1        2.348  -1.743  13.217  0.00  0.00    -0.290 OA
ATOM     30  C   LIG    1        1.302  -2.631  13.617  0.00  0.00    +0.260 C 
ENDBRANCH  24  29
ENDBRANCH  18  21
ENDBRANCH  16  18
ENDBRANCH   1  16
TORSDOF 7
