REMARK  Name = ZINCrD0000071uEa.0
REMARK                            x       y       z     vdW  Elec       q    Type
REMARK                         _______ _______ _______ _____ _____    ______ ____
ROOT
ATOM      1  N   LIG    1       -5.068  -0.499  -1.162  0.00  0.00    -0.740 N 
ATOM      2  H   LIG    1       -4.617  -1.350  -1.278  0.00  0.00    +0.400 HD
ATOM      3  C   LIG    1       -4.351   0.620  -0.940  0.00  0.00    +0.710 C 
ATOM      4  N   LIG    1       -3.006   0.557  -0.879  0.00  0.00    -0.720 N 
ATOM      5  H   LIG    1       -2.554  -0.294  -0.995  0.00  0.00    +0.400 HD
ATOM      6  O   LIG    1       -4.917   1.686  -0.795  0.00  0.00    -0.590 OA
ENDROOT
BRANCH   1  10
ATOM      7  C   LIG    1       -9.261  -3.094  -0.770  0.00  0.00    +0.080 C 
ATOM      8  C   LIG    1       -8.613  -1.784  -1.223  0.00  0.00    +0.120 C 
ATOM      9  C   LIG    1       -7.121  -1.795  -0.865  0.00  0.00    +0.020 C 
ATOM     10  C   LIG    1       -6.530  -0.431  -1.229  0.00  0.00    +0.320 C 
ATOM     11  C   LIG    1       -6.952  -0.051  -2.626  0.00  0.00    -0.190 A 
ATOM     12  C   LIG    1       -6.247   0.940  -3.288  0.00  0.00    +0.100 A 
ATOM     13  C   LIG    1       -6.606   1.317  -4.567  0.00  0.00    -0.050 A 
ATOM     14  C   LIG    1       -7.677   0.702  -5.193  0.00  0.00    +0.140 A 
ATOM     15  C   LIG    1       -8.383  -0.289  -4.537  0.00  0.00    -0.050 A 
ATOM     16  F   LIG    1       -8.031   1.070  -6.444  0.00  0.00    -0.130 F 
ATOM     17  C   LIG    1       -8.021  -0.670  -3.250  0.00  0.00    +0.170 A 
ATOM     18  C   LIG    1       -9.300  -0.604  -0.532  0.00  0.00    +0.040 C 
ATOM     19  O   LIG    1       -8.736  -1.651  -2.639  0.00  0.00    -0.300 OA
ENDBRANCH   1  10
BRANCH   4  20
ATOM     20  C   LIG    1       -2.226   1.773  -0.638  0.00  0.00    +0.310 C 
ATOM     21  C   LIG    1       -2.036   1.989   0.849  0.00  0.00    -0.120 A 
ATOM     22  C   LIG    1       -2.907   2.492   1.800  0.00  0.00    +0.050 A 
ATOM     23  C   LIG    1       -2.508   2.600   3.119  0.00  0.00    +0.010 A 
ATOM     24  C   LIG    1       -1.237   2.205   3.490  0.00  0.00    +0.020 A 
ATOM     25  C   LIG    1       -0.367   1.703   2.541  0.00  0.00    +0.010 A 
ATOM     26  C   LIG    1       -0.762   1.594   1.221  0.00  0.00    -0.090 A 
ATOM     27  C   LIG    1       -0.013   1.086   0.008  0.00  0.00    +0.050 C 
ATOM     28  C   LIG    1       -0.800   1.617  -1.208  0.00  0.00    +0.190 C 
BRANCH  28  29
ATOM     29  O   LIG    1       -0.778   0.672  -2.280  0.00  0.00    -0.550 OA
ATOM     30  H   LIG    1        0.108   0.478  -2.615  0.00  0.00    +0.390 HD
ENDBRANCH  28  29
ENDBRANCH   4  20
TORSDOF 3
