REMARK  Name = ZINCrg00000fShbM.0
REMARK                            x       y       z     vdW  Elec       q    Type
REMARK                         _______ _______ _______ _____ _____    ______ ____
ROOT
ATOM      1  C   LIG    1       -4.138  -0.189   1.463  0.00  0.00    +0.480 C 
ATOM      2  O   LIG    1       -4.651  -0.510   0.417  0.00  0.00    -0.500 OA
ENDROOT
BRANCH   1   3
ATOM      3  O   LIG    1       -4.697  -0.559   2.626  0.00  0.00    -0.330 OA
BRANCH   3   4
ATOM      4  C   LIG    1       -5.917  -1.343   2.551  0.00  0.00    +0.280 C 
BRANCH   4   7
ATOM      5  N   LIG    1       -7.517  -2.387   4.122  0.00  0.00    -0.650 N 
ATOM      6  H   LIG    1       -8.018  -2.703   3.353  0.00  0.00    +0.410 HD
ATOM      7  C   LIG    1       -6.395  -1.663   3.944  0.00  0.00    +0.520 C 
ATOM      8  O   LIG    1       -5.769  -1.269   4.905  0.00  0.00    -0.480 OA
BRANCH   5  13
ATOM      9  C   LIG    1       -7.823  -2.631   9.097  0.00  0.00    +0.160 C 
ATOM     10  C   LIG    1       -8.122  -2.809   7.631  0.00  0.00    +0.090 A 
ATOM     11  N   LIG    1       -9.141  -3.460   7.130  0.00  0.00    -0.290 NA
ATOM     12  N   LIG    1       -9.063  -3.396   5.733  0.00  0.00    -0.390 N 
ATOM     13  C   LIG    1       -7.959  -2.683   5.411  0.00  0.00    +0.300 A 
ATOM     14  C   LIG    1      -10.008  -3.996   4.789  0.00  0.00    +0.360 C 
ATOM     15  C   LIG    1       -7.356  -2.312   6.573  0.00  0.00    -0.100 A 
ENDBRANCH   5  13
ENDBRANCH   4   7
ENDBRANCH   3   4
ENDBRANCH   1   3
BRANCH   1  16
ATOM     16  C   LIG    1       -2.871   0.627   1.461  0.00  0.00    +0.110 C 
BRANCH  16  17
ATOM     17  C   LIG    1       -2.449   0.911   0.018  0.00  0.00    +0.330 C 
BRANCH  17  18
ATOM     18  N   LIG    1       -1.217   1.704   0.017  0.00  0.00    -0.550 N 
ATOM     19  C   LIG    1       -0.013   1.076   0.008  0.00  0.00    +0.570 A 
ATOM     20  N   LIG    1        1.122   1.707   0.001  0.00  0.00    -0.520 NA
ATOM     21  C   LIG    1        1.182   3.062   0.007  0.00  0.00    +0.150 A 
ATOM     22  C   LIG    1        2.401   3.742  -0.001  0.00  0.00    +0.030 A 
ATOM     23  C   LIG    1        2.415   5.119   0.006  0.00  0.00    +0.070 A 
ATOM     24  C   LIG    1        1.229   5.842   0.021  0.00  0.00    +0.000 A 
ATOM     25  C   LIG    1        0.013   5.194   0.029  0.00  0.00    +0.100 A 
ATOM     26  C   LIG    1       -0.022   3.801   0.023  0.00  0.00    -0.200 A 
ATOM     27  C   LIG    1       -1.290   3.055   0.031  0.00  0.00    +0.550 A 
ATOM     28  O   LIG    1       -2.362   3.631   0.044  0.00  0.00    -0.500 OA
ENDBRANCH  17  18
ENDBRANCH  16  17
ENDBRANCH   1  16
TORSDOF 7
