REMARK  Name = ZINCrD00000l1mY1.0
REMARK                            x       y       z     vdW  Elec       q    Type
REMARK                         _______ _______ _______ _____ _____    ______ ____
ROOT
ATOM      1  N   LIG    1       -3.594   7.730   0.175  0.00  0.00    -0.990 NA
ATOM      2  C   LIG    1       -4.362   8.350  -0.920  0.00  0.00    +0.280 C 
ATOM      3  C   LIG    1       -5.298   7.227  -1.433  0.00  0.00    +0.040 C 
ATOM      4  C   LIG    1       -4.385   5.979  -1.308  0.00  0.00    +0.070 C 
ATOM      5  C   LIG    1       -3.569   6.275  -0.032  0.00  0.00    +0.290 C 
ENDROOT
BRANCH   1   6
ATOM      6  S   LIG    1       -2.879   8.539   1.430  0.00  0.00    +2.710 S 
ATOM      7  O   LIG    1       -2.538   9.827   0.935  0.00  0.00    -0.940 OA
ATOM      8  O   LIG    1       -1.929   7.646   1.994  0.00  0.00    -0.950 OA
BRANCH   6  13
ATOM      9  C   LIG    1       -7.112   9.401   5.643  0.00  0.00    +0.090 C 
ATOM     10  C   LIG    1       -6.055   9.185   4.590  0.00  0.00    -0.030 A 
ATOM     11  C   LIG    1       -5.222   8.085   4.663  0.00  0.00    -0.010 A 
ATOM     12  C   LIG    1       -4.252   7.888   3.698  0.00  0.00    +0.120 A 
ATOM     13  C   LIG    1       -4.116   8.790   2.660  0.00  0.00    -0.690 A 
ATOM     14  C   LIG    1       -4.946   9.893   2.590  0.00  0.00    +0.120 A 
ATOM     15  C   LIG    1       -5.919  10.088   3.552  0.00  0.00    -0.010 A 
ENDBRANCH   6  13
ENDBRANCH   1   6
BRANCH   5  16
ATOM     16  C   LIG    1       -2.147   5.808  -0.214  0.00  0.00    +0.450 C 
ATOM     17  O   LIG    1       -1.306   6.577  -0.614  0.00  0.00    -0.490 OA
BRANCH  16  18
ATOM     18  O   LIG    1       -1.817   4.538   0.069  0.00  0.00    -0.330 OA
BRANCH  18  19
ATOM     19  C   LIG    1       -0.429   4.158  -0.129  0.00  0.00    +0.240 C 
BRANCH  19  20
ATOM     20  C   LIG    1       -0.248   2.708   0.238  0.00  0.00    +0.430 C 
ATOM     21  O   LIG    1       -1.196   2.057   0.628  0.00  0.00    -0.420 OA
BRANCH  20  22
ATOM     22  C   LIG    1        1.023   2.106   0.127  0.00  0.00    -0.300 A 
ATOM     23  C   LIG    1        1.315   0.799   0.429  0.00  0.00    +0.140 A 
ATOM     24  C   LIG    1        2.631   0.477   0.224  0.00  0.00    +0.040 A 
ATOM     25  C   LIG    1        3.400   1.479  -0.231  0.00  0.00    -0.220 A 
ATOM     26 BR   LIG    1        5.247   1.328  -0.604  0.00  0.00    +0.030 Br
ATOM     27  S   LIG    1        2.487   2.907  -0.427  0.00  0.00    +0.290 S 
ENDBRANCH  20  22
ENDBRANCH  19  20
ENDBRANCH  18  19
ENDBRANCH  16  18
ENDBRANCH   5  16
TORSDOF 7
