REMARK  Name = ZINCkj00000haOhR.1
REMARK                            x       y       z     vdW  Elec       q    Type
REMARK                         _______ _______ _______ _____ _____    ______ ____
ROOT
ATOM      1  N   LIG    1       -1.343  -1.750  -2.289  0.00  0.00    -1.000 NA
ATOM      2  C   LIG    1       -2.190  -0.565  -2.448  0.00  0.00    +0.300 C 
ENDROOT
BRANCH   1   6
ATOM      3  N   LIG    1        0.432   0.186   0.036  0.00  0.00    -0.380 N 
ATOM      4  C   LIG    1       -1.028   0.170  -0.104  0.00  0.00    +0.250 C 
ATOM      5  C   LIG    1       -1.548  -1.255   0.100  0.00  0.00    +0.080 C 
ATOM      6  C   LIG    1       -0.922  -2.176  -0.952  0.00  0.00    +0.250 C 
ATOM      7  C   LIG    1        0.603  -2.094  -0.845  0.00  0.00    +0.070 C 
ATOM      8  C   LIG    1        1.043  -0.638  -1.014  0.00  0.00    +0.170 C 
ATOM      9  C   LIG    1        0.598  -0.127  -2.386  0.00  0.00    +0.050 C 
ATOM     10  H   LIG    1        0.685  -0.181   0.941  0.00  0.00    +0.420 HD
BRANCH   3  12
ATOM     11  C   LIG    1        0.382   2.400   1.083  0.00  0.00    +0.080 C 
ATOM     12  C   LIG    1        0.919   1.567  -0.083  0.00  0.00    +0.240 C 
ENDBRANCH   3  12
ENDBRANCH   1   6
BRANCH   1  13
ATOM     13  S   LIG    1       -0.862  -2.609  -3.621  0.00  0.00    +2.600 S 
ATOM     14  O   LIG    1        0.249  -3.368  -3.166  0.00  0.00    -0.940 OA
ATOM     15  O   LIG    1       -0.712  -1.626  -4.636  0.00  0.00    -0.940 OA
BRANCH  13  16
ATOM     16  C   LIG    1       -2.267  -3.696  -3.990  0.00  0.00    -0.450 C 
ATOM     17  C   LIG    1       -2.546  -4.600  -2.785  0.00  0.00    +0.040 C 
ATOM     18  C   LIG    1       -3.681  -5.566  -3.135  0.00  0.00    +0.240 C 
ATOM     19  O   LIG    1       -3.319  -6.326  -4.290  0.00  0.00    -0.370 OA
ATOM     20  C   LIG    1       -3.092  -5.537  -5.459  0.00  0.00    +0.240 C 
ATOM     21  C   LIG    1       -1.933  -4.570  -5.203  0.00  0.00    +0.030 C 
ENDBRANCH  13  16
ENDBRANCH   1  13
TORSDOF 4
