REMARK  Name = ZINCkj00000haOhR.0
REMARK                            x       y       z     vdW  Elec       q    Type
REMARK                         _______ _______ _______ _____ _____    ______ ____
ROOT
ATOM      1  N   LIG    1        3.790   3.600  -1.100  0.00  0.00    -1.000 NA
ATOM      2  C   LIG    1        3.761   4.247   0.214  0.00  0.00    +0.300 C 
ENDROOT
BRANCH   1   6
ATOM      3  N   LIG    1        3.593   7.044  -3.521  0.00  0.00    -0.380 N 
ATOM      4  C   LIG    1        4.839   6.271  -3.575  0.00  0.00    +0.260 C 
ATOM      5  C   LIG    1        4.938   5.370  -2.342  0.00  0.00    +0.070 C 
ATOM      6  C   LIG    1        3.743   4.414  -2.317  0.00  0.00    +0.260 C 
ATOM      7  C   LIG    1        2.447   5.231  -2.337  0.00  0.00    +0.060 C 
ATOM      8  C   LIG    1        2.441   6.136  -3.570  0.00  0.00    +0.170 C 
ATOM      9  C   LIG    1        1.149   6.955  -3.594  0.00  0.00    +0.100 C 
ATOM     10  H   LIG    1        3.565   7.576  -2.664  0.00  0.00    +0.420 HD
BRANCH   3  12
ATOM     11  C   LIG    1        4.668   8.989  -4.550  0.00  0.00    +0.080 C 
ATOM     12  C   LIG    1        3.539   7.963  -4.666  0.00  0.00    +0.240 C 
ENDBRANCH   3  12
ENDBRANCH   1   6
BRANCH   1  13
ATOM     13  S   LIG    1        3.877   1.950  -1.210  0.00  0.00    +2.600 S 
ATOM     14  O   LIG    1        4.491   1.714  -2.469  0.00  0.00    -0.950 OA
ATOM     15  O   LIG    1        4.509   1.552  -0.001  0.00  0.00    -0.930 OA
BRANCH  13  16
ATOM     16  C   LIG    1        2.147   1.406  -1.233  0.00  0.00    -0.450 C 
ATOM     17  C   LIG    1        1.419   1.953  -0.001  0.00  0.00    +0.040 C 
ATOM     18  C   LIG    1       -0.017   1.425   0.010  0.00  0.00    +0.220 C 
ATOM     19  O   LIG    1        0.002  -0.004   0.002  0.00  0.00    -0.370 OA
ATOM     20  C   LIG    1        0.628  -0.573  -1.150  0.00  0.00    +0.240 C 
ATOM     21  C   LIG    1        2.091  -0.124  -1.207  0.00  0.00    +0.030 C 
ENDBRANCH  13  16
ENDBRANCH   1  13
TORSDOF 4
