REMARK  Name = ZINCrg000000sX1r.0
REMARK                            x       y       z     vdW  Elec       q    Type
REMARK                         _______ _______ _______ _____ _____    ______ ____
ROOT
ATOM      1  N   LIG    1       -2.040   1.070   2.115  0.00  0.00    -0.700 N 
ATOM      2  H   LIG    1       -2.286   0.298   1.581  0.00  0.00    +0.400 HD
ATOM      3  C   LIG    1       -1.946   0.959   3.455  0.00  0.00    +0.570 C 
ATOM      4  O   LIG    1       -1.638   1.925   4.125  0.00  0.00    -0.520 OA
ENDROOT
BRANCH   3   5
ATOM      5  C   LIG    1       -2.219  -0.338   4.110  0.00  0.00    -0.090 A 
ATOM      6  C   LIG    1       -2.578  -1.448   3.344  0.00  0.00    +0.020 A 
ATOM      7  C   LIG    1       -2.826  -2.659   3.957  0.00  0.00    +0.050 A 
ATOM      8  C   LIG    1       -2.731  -2.776   5.331  0.00  0.00    +0.000 A 
ATOM      9  C   LIG    1       -2.379  -1.675   6.104  0.00  0.00    +0.200 A 
ATOM     10  C   LIG    1       -2.122  -0.456   5.497  0.00  0.00    +0.030 A 
BRANCH   9  11
ATOM     11  N   LIG    1       -2.284  -1.798   7.493  0.00  0.00    -0.930 N 
ATOM     12  C   LIG    1       -2.981  -2.788   8.329  0.00  0.00    +0.260 C 
ATOM     13  C   LIG    1       -3.223  -2.214   9.738  0.00  0.00    +0.100 C 
ATOM     14  C   LIG    1       -1.867  -1.556  10.123  0.00  0.00    -0.290 C 
ATOM     15  S   LIG    1       -1.354  -0.853   8.508  0.00  0.00    +2.560 S 
ATOM     16  O   LIG    1       -1.850   0.468   8.342  0.00  0.00    -0.940 OA
ATOM     17  O   LIG    1       -0.009  -1.192   8.200  0.00  0.00    -0.940 OA
ENDBRANCH   9  11
ENDBRANCH   3   5
BRANCH   1  18
ATOM     18  C   LIG    1       -1.770   2.355   1.466  0.00  0.00    +0.250 C 
BRANCH  18  22
ATOM     19  N   LIG    1       -3.009   4.428   0.931  0.00  0.00    -0.850 N 
ATOM     20  H   LIG    1       -3.814   4.970   0.940  0.00  0.00    +0.400 HD
ATOM     21  H   LIG    1       -2.196   4.773   0.530  0.00  0.00    +0.400 HD
ATOM     22  C   LIG    1       -3.020   3.196   1.478  0.00  0.00    +0.510 C 
ATOM     23  O   LIG    1       -4.037   2.765   1.980  0.00  0.00    -0.530 OA
ENDBRANCH  18  22
BRANCH  18  24
ATOM     24  C   LIG    1       -1.332   2.114   0.020  0.00  0.00    +0.110 C 
BRANCH  24  25
ATOM     25  C   LIG    1       -0.017   1.378   0.010  0.00  0.00    -0.090 A 
ATOM     26  C   LIG    1        1.171   2.086   0.002  0.00  0.00    +0.010 A 
ATOM     27  C   LIG    1        2.377   1.411  -0.014  0.00  0.00    +0.000 A 
ATOM     28  C   LIG    1        2.396   0.029  -0.022  0.00  0.00    +0.000 A 
ATOM     29  C   LIG    1        1.208  -0.679  -0.014  0.00  0.00    +0.000 A 
ATOM     30  C   LIG    1        0.002  -0.004   0.002  0.00  0.00    +0.010 A 
ENDBRANCH  24  25
ENDBRANCH  18  24
ENDBRANCH   1  18
TORSDOF 6
