REMARK  Name = ZINCrg000000tdhi.0
REMARK                            x       y       z     vdW  Elec       q    Type
REMARK                         _______ _______ _______ _____ _____    ______ ____
ROOT
ATOM      1  O   LIG    1       -2.386   0.176  -0.088  0.00  0.00    -0.500 OA
ATOM      2  C   LIG    1       -2.395   1.389  -0.081  0.00  0.00    +0.490 C 
ATOM      3  N   LIG    1       -1.237   2.071   0.019  0.00  0.00    -0.670 N 
ATOM      4  H   LIG    1       -1.249   3.038   0.093  0.00  0.00    +0.420 HD
ENDROOT
BRANCH   3   5
ATOM      5  C   LIG    1       -0.017   1.384   0.017  0.00  0.00    +0.110 A 
ATOM      6  C   LIG    1        1.100   1.947  -0.586  0.00  0.00    +0.090 A 
ATOM      7  C   LIG    1        2.304   1.275  -0.583  0.00  0.00    +0.010 A 
ATOM      8  C   LIG    1        2.409   0.025   0.023  0.00  0.00    +0.220 A 
ATOM      9  N   LIG    1        3.636  -0.633   0.019  0.00  0.00    -0.660 N 
ATOM     10  H   LIG    1        4.425  -0.084  -0.115  0.00  0.00    +0.420 HD
ATOM     11  C   LIG    1        3.836  -1.938   0.179  0.00  0.00    +0.540 C 
ATOM     12  C   LIG    1        2.726  -2.928   0.410  0.00  0.00    -0.280 C 
ATOM     13  S   LIG    1        1.420  -2.119   1.385  0.00  0.00    +2.510 S 
ATOM     14  O   LIG    1        1.872  -1.845   2.704  0.00  0.00    -0.910 OA
ATOM     15  O   LIG    1        0.162  -2.736   1.150  0.00  0.00    -0.900 OA
ATOM     16  O   LIG    1        4.975  -2.353   0.138  0.00  0.00    -0.490 OA
ATOM     17  C   LIG    1        1.286  -0.533   0.623  0.00  0.00    -0.660 A 
ATOM     18  C   LIG    1        0.083   0.137   0.623  0.00  0.00    +0.170 A 
ENDBRANCH   3   5
BRANCH   2  19
ATOM     19  C   LIG    1       -3.702   2.133  -0.184  0.00  0.00    +0.360 C 
BRANCH  19  20
ATOM     20  N   LIG    1       -4.804   1.174  -0.281  0.00  0.00    -0.600 N 
ATOM     21  C   LIG    1       -5.546   0.606   0.851  0.00  0.00    +0.340 C 
ATOM     22  C   LIG    1       -6.576  -0.323   0.258  0.00  0.00    -0.080 A 
ATOM     23  C   LIG    1       -7.547  -1.126   0.808  0.00  0.00    +0.030 A 
ATOM     24  C   LIG    1       -8.364  -1.885  -0.015  0.00  0.00    +0.060 A 
ATOM     25  C   LIG    1       -8.205  -1.837  -1.388  0.00  0.00    +0.000 A 
ATOM     26  C   LIG    1       -7.234  -1.034  -1.950  0.00  0.00    +0.090 A 
ATOM     27  C   LIG    1       -6.407  -0.267  -1.127  0.00  0.00    -0.160 A 
ATOM     28  C   LIG    1       -5.307   0.672  -1.422  0.00  0.00    +0.570 C 
ATOM     29  O   LIG    1       -4.911   0.950  -2.537  0.00  0.00    -0.520 OA
ENDBRANCH  19  20
ENDBRANCH   2  19
TORSDOF 3
