REMARK  Name = ZINCfA0000021l2C.0
REMARK                            x       y       z     vdW  Elec       q    Type
REMARK                         _______ _______ _______ _____ _____    ______ ____
ROOT
ATOM      1  N   LIG    1       -0.697   1.557   1.211  0.00  0.00    -0.370 N 
ATOM      2  C   LIG    1       -2.119   1.223   1.169  0.00  0.00    +0.160 C 
ATOM      3  C   LIG    1       -2.359  -0.277   1.168  0.00  0.00    +0.070 C 
ATOM      4  C   LIG    1       -1.653  -0.979   2.322  0.00  0.00    +0.030 C 
ATOM      5  C   LIG    1       -0.204  -0.521   2.449  0.00  0.00    +0.060 C 
ATOM      6  C   LIG    1       -2.839   1.904   2.330  0.00  0.00    +0.060 C 
ATOM      7  C   LIG    1       -2.219   1.546   3.673  0.00  0.00    +0.040 C 
ATOM      8  C   LIG    1       -0.700   1.632   3.659  0.00  0.00    +0.060 C 
ATOM      9  C   LIG    1       -0.089   0.997   2.416  0.00  0.00    +0.170 C 
ATOM     10  H   LIG    1       -0.610   2.570   1.254  0.00  0.00    +0.420 HD
ENDROOT
BRANCH   1  11
ATOM     11  C   LIG    1       -0.013   1.086   0.008  0.00  0.00    +0.250 C 
BRANCH  11  12
ATOM     12  C   LIG    1       -0.753   1.593  -1.232  0.00  0.00    +0.030 C 
BRANCH  12  13
ATOM     13  C   LIG    1       -0.037   1.099  -2.490  0.00  0.00    +0.040 C 
BRANCH  13  14
ATOM     14  C   LIG    1       -0.777   1.606  -3.730  0.00  0.00    +0.200 C 
BRANCH  14  16
ATOM     15  N   LIG    1        0.444   0.765  -5.876  0.00  0.00    -0.410 NA
ATOM     16  C   LIG    1       -0.088   1.131  -4.941  0.00  0.00    +0.190 C 
ENDBRANCH  14  16
ENDBRANCH  13  14
ENDBRANCH  12  13
ENDBRANCH  11  12
ENDBRANCH   1  11
TORSDOF 5
