REMARK  Name = ZINCqH00000o6fgA.0
REMARK                            x       y       z     vdW  Elec       q    Type
REMARK                         _______ _______ _______ _____ _____    ______ ____
ROOT
ATOM      1  N   LIG    1        4.064   0.166  -5.297  0.00  0.00    -0.730 N 
ATOM      2  H   LIG    1        4.611   0.823  -5.756  0.00  0.00    +0.410 HD
ENDROOT
BRANCH   1   6
ATOM      3  C   LIG    1        2.915   0.809  -1.442  0.00  0.00    +0.260 A 
ATOM      4  N   LIG    1        2.538  -0.300  -2.045  0.00  0.00    -0.470 NA
ATOM      5  C   LIG    1        2.885  -0.543  -3.298  0.00  0.00    +0.240 A 
ATOM      6  C   LIG    1        3.670   0.387  -3.974  0.00  0.00    +0.110 A 
ATOM      7  C   LIG    1        4.052   1.543  -3.298  0.00  0.00    +0.240 A 
ATOM      8  N   LIG    1        3.658   1.714  -2.047  0.00  0.00    -0.470 NA
BRANCH   3   9
ATOM      9  C   LIG    1        2.490   1.048  -0.016  0.00  0.00    +0.200 C 
BRANCH   9  13
ATOM     10  C   LIG    1       -1.238   3.133   0.029  0.00  0.00    +0.000 A 
ATOM     11  C   LIG    1       -1.219   1.751   0.017  0.00  0.00    +0.000 A 
ATOM     12  C   LIG    1       -0.013   1.076   0.008  0.00  0.00    +0.010 A 
ATOM     13  C   LIG    1        1.175   1.783   0.000  0.00  0.00    -0.080 A 
ATOM     14  C   LIG    1        1.156   3.165   0.008  0.00  0.00    +0.010 A 
ATOM     15  C   LIG    1       -0.050   3.840   0.022  0.00  0.00    +0.000 A 
ENDBRANCH   9  13
ENDBRANCH   3   9
ENDBRANCH   1   6
BRANCH   1  16
ATOM     16  C   LIG    1        3.651  -1.057  -5.990  0.00  0.00    +0.370 C 
BRANCH  16  17
ATOM     17  C   LIG    1        4.203  -1.050  -7.392  0.00  0.00    -0.050 A 
ATOM     18  C   LIG    1        5.354  -1.625  -7.812  0.00  0.00    +0.170 A 
ATOM     19  N   LIG    1        5.442  -1.368  -9.138  0.00  0.00    -0.280 N 
ATOM     20  N   LIG    1        4.413  -0.677  -9.484  0.00  0.00    -0.080 NA
ATOM     21  N   LIG    1        3.654  -0.470  -8.465  0.00  0.00    -0.250 NA
BRANCH  19  22
ATOM     22  C   LIG    1        6.525  -1.798 -10.025  0.00  0.00    +0.260 C 
ATOM     23  C   LIG    1        7.024  -3.177  -9.591  0.00  0.00    +0.030 C 
ATOM     24  C   LIG    1        8.156  -3.626 -10.518  0.00  0.00    +0.030 C 
ATOM     25  C   LIG    1        9.306  -2.620 -10.442  0.00  0.00    +0.010 C 
ATOM     26  C   LIG    1        8.807  -1.241 -10.876  0.00  0.00    +0.030 C 
ATOM     27  C   LIG    1        7.676  -0.792  -9.949  0.00  0.00    +0.020 C 
ENDBRANCH  19  22
ENDBRANCH  16  17
ENDBRANCH   1  16
TORSDOF 6
