REMARK  Name = ZINCtV000002wgXH.0
REMARK                            x       y       z     vdW  Elec       q    Type
REMARK                         _______ _______ _______ _____ _____    ______ ____
ROOT
ATOM      1  C   LIG    1       -0.076   0.147  -2.398  0.00  0.00    -0.060 A 
ATOM      2  C   LIG    1        0.102   1.522  -2.436  0.00  0.00    +0.010 A 
ATOM      3  C   LIG    1        0.076   2.187  -3.672  0.00  0.00    +0.210 A 
ATOM      4  N   LIG    1       -0.126   1.552  -4.808  0.00  0.00    -0.460 NA
ATOM      5  C   LIG    1       -0.313   0.232  -4.864  0.00  0.00    +0.140 A 
ATOM      6  C   LIG    1       -0.526  -0.419  -6.092  0.00  0.00    +0.050 A 
ATOM      7  C   LIG    1       -0.713  -1.767  -6.118  0.00  0.00    +0.030 A 
ATOM      8  C   LIG    1       -0.698  -2.518  -4.944  0.00  0.00    +0.020 A 
ATOM      9  C   LIG    1       -0.494  -1.921  -3.735  0.00  0.00    +0.040 A 
ATOM     10  C   LIG    1       -0.298  -0.537  -3.672  0.00  0.00    -0.070 A 
ENDROOT
BRANCH   3  11
ATOM     11  C   LIG    1        0.275   3.655  -3.699  0.00  0.00    -0.060 A 
ATOM     12  C   LIG    1        0.485   4.353  -2.509  0.00  0.00    +0.040 A 
ATOM     13  C   LIG    1        0.675   5.716  -2.535  0.00  0.00    +0.020 A 
ATOM     14  C   LIG    1        0.648   6.402  -3.749  0.00  0.00    -0.030 A 
ATOM     15  C   LIG    1        0.433   5.705  -4.938  0.00  0.00    +0.010 A 
ATOM     16  C   LIG    1        0.248   4.341  -4.914  0.00  0.00    +0.070 A 
BRANCH  14  17
ATOM     17  C   LIG    1        0.847   7.871  -3.776  0.00  0.00    -0.050 A 
ATOM     18  C   LIG    1        0.825   8.558  -4.989  0.00  0.00    +0.020 A 
ATOM     19  C   LIG    1        1.005   9.926  -5.007  0.00  0.00    +0.010 A 
ATOM     20  C   LIG    1        1.218  10.614  -3.826  0.00  0.00    +0.000 A 
ATOM     21  C   LIG    1        1.247   9.937  -2.620  0.00  0.00    +0.010 A 
ATOM     22  C   LIG    1        1.062   8.569  -2.589  0.00  0.00    +0.020 A 
ENDBRANCH  14  17
ENDBRANCH   3  11
BRANCH   1  24
ATOM     23  N   LIG    1        1.043  -0.547  -0.334  0.00  0.00    -0.600 N 
ATOM     24  C   LIG    1       -0.050  -0.597  -1.120  0.00  0.00    +0.560 C 
ATOM     25  O   LIG    1       -1.014  -1.254  -0.779  0.00  0.00    -0.520 OA
BRANCH  23  27
ATOM     26  C   LIG    1        3.197  -0.478  -1.490  0.00  0.00    +0.020 C 
ATOM     27  C   LIG    1        2.165   0.323  -0.694  0.00  0.00    +0.270 C 
ENDBRANCH  23  27
BRANCH  23  28
ATOM     28  C   LIG    1        1.110  -1.363   0.881  0.00  0.00    +0.280 C 
ATOM     29  C   LIG    1        0.540  -0.570   2.060  0.00  0.00    +0.020 C 
ENDBRANCH  23  28
ENDBRANCH   1  24
TORSDOF 5
