REMARK  Name = ZINCtV000002MlNv.0
REMARK                            x       y       z     vdW  Elec       q    Type
REMARK                         _______ _______ _______ _____ _____    ______ ____
ROOT
ATOM      1  O   LIG    1        1.387  -0.864   0.087  0.00  0.00    -0.480 OA
ATOM      2  C   LIG    1        2.426  -0.238   0.080  0.00  0.00    +0.540 C 
ATOM      3  N   LIG    1        2.402   1.106  -0.015  0.00  0.00    -0.670 N 
ATOM      4  H   LIG    1        3.233   1.602  -0.086  0.00  0.00    +0.420 HD
ENDROOT
BRANCH   3   5
ATOM      5  C   LIG    1        1.179   1.786  -0.010  0.00  0.00    +0.250 A 
ATOM      6  C   LIG    1        0.064   1.216  -0.608  0.00  0.00    +0.060 A 
ATOM      7  C   LIG    1       -1.141   1.892  -0.607  0.00  0.00    +0.170 A 
ATOM      8  C   LIG    1       -1.239   3.131   0.000  0.00  0.00    -0.060 A 
ATOM      9  C   LIG    1       -0.130   3.702   0.596  0.00  0.00    +0.190 A 
ATOM     10  C   LIG    1        1.079   3.034   0.593  0.00  0.00    -0.220 A 
BRANCH  10  11
ATOM     11  C   LIG    1        2.287   3.657   1.243  0.00  0.00    +0.520 C 
ATOM     12  F   LIG    1        3.296   3.824   0.288  0.00  0.00    -0.170 F 
ATOM     13  F   LIG    1        2.748   2.823   2.267  0.00  0.00    -0.170 F 
ATOM     14  F   LIG    1        1.939   4.902   1.776  0.00  0.00    -0.160 F 
ENDBRANCH  10  11
BRANCH   8  15
ATOM     15  N   LIG    1       -2.533   3.850   0.005  0.00  0.00    +0.030 N 
ATOM     16  O   LIG    1       -3.511   3.348  -0.519  0.00  0.00    -0.150 OA
ATOM     17  O   LIG    1       -2.619   4.944   0.534  0.00  0.00    -0.150 OA
ENDBRANCH   8  15
ENDBRANCH   3   5
BRANCH   2  18
ATOM     18  C   LIG    1        3.744  -0.963   0.178  0.00  0.00    +0.090 C 
BRANCH  18  19
ATOM     19  S   LIG    1        3.444  -2.749   0.292  0.00  0.00    +0.010 S 
BRANCH  19  20
ATOM     20  C   LIG    1        5.071  -3.418   0.396  0.00  0.00    -0.110 A 
ATOM     21  C   LIG    1        6.173  -2.573   0.377  0.00  0.00    +0.050 A 
ATOM     22  C   LIG    1        7.447  -3.100   0.459  0.00  0.00    +0.060 A 
ATOM     23  C   LIG    1        7.626  -4.468   0.561  0.00  0.00    +0.000 A 
ATOM     24  C   LIG    1        6.529  -5.313   0.581  0.00  0.00    -0.150 A 
ATOM     25 CL   LIG    1        9.228  -5.127   0.665  0.00  0.00    -0.030 Cl
ATOM     26  C   LIG    1        5.253  -4.791   0.504  0.00  0.00    +0.120 A 
BRANCH  24  27
ATOM     27  C   LIG    1        6.728  -6.802   0.693  0.00  0.00    +0.510 C 
ATOM     28  F   LIG    1        7.402  -7.095   1.883  0.00  0.00    -0.170 F 
ATOM     29  F   LIG    1        7.484  -7.255  -0.394  0.00  0.00    -0.170 F 
ATOM     30  F   LIG    1        5.483  -7.440   0.692  0.00  0.00    -0.170 F 
ENDBRANCH  24  27
ENDBRANCH  19  20
ENDBRANCH  18  19
ENDBRANCH   2  18
TORSDOF 7
