REMARK  Name = ZINCpe000000XafU.0
REMARK                            x       y       z     vdW  Elec       q    Type
REMARK                         _______ _______ _______ _____ _____    ______ ____
ROOT
ATOM      1  N   LIG    1       -3.602   7.749   0.628  0.00  0.00    -0.510 NA
ATOM      2  C   LIG    1       -2.314   8.443   0.759  0.00  0.00    +0.180 C 
ATOM      3  C   LIG    1       -1.419   8.080  -0.431  0.00  0.00    +0.300 C 
ATOM      4  N   LIG    1       -1.330   6.615  -0.519  0.00  0.00    -0.610 N 
ATOM      5  C   LIG    1       -2.580   5.840  -0.523  0.00  0.00    +0.280 C 
ATOM      6  C   LIG    1       -0.134   5.998  -0.600  0.00  0.00    +0.560 C 
ATOM      7  O   LIG    1        0.891   6.644  -0.497  0.00  0.00    -0.530 OA
ATOM      8  C   LIG    1       -3.429   6.291   0.677  0.00  0.00    +0.180 C 
ENDROOT
BRANCH   6   9
ATOM      9  C   LIG    1       -0.069   4.538  -0.815  0.00  0.00    -0.150 A 
ATOM     10  C   LIG    1        0.979   3.796  -0.266  0.00  0.00    +0.110 A 
ATOM     11  C   LIG    1        1.034   2.433  -0.469  0.00  0.00    -0.020 A 
ATOM     12  C   LIG    1        0.053   1.800  -1.216  0.00  0.00    +0.130 A 
ATOM     13  C   LIG    1       -0.987   2.534  -1.768  0.00  0.00    -0.020 A 
ATOM     14  F   LIG    1        0.113   0.465  -1.413  0.00  0.00    -0.130 F 
ATOM     15  C   LIG    1       -1.055   3.896  -1.567  0.00  0.00    +0.080 A 
ENDBRANCH   6   9
BRANCH   1  17
ATOM     16  C   LIG    1       -4.035   7.800   3.038  0.00  0.00    +0.020 C 
ATOM     17  C   LIG    1       -4.551   8.201   1.654  0.00  0.00    +0.180 C 
BRANCH  17  18
ATOM     18  C   LIG    1       -5.894   7.561   1.414  0.00  0.00    +0.530 C 
ATOM     19  N   LIG    1       -6.944   7.888   2.192  0.00  0.00    -0.620 N 
ATOM     20  C   LIG    1       -6.832   8.941   3.213  0.00  0.00    +0.250 C 
ATOM     21  C   LIG    1       -8.005   9.917   3.025  0.00  0.00    +0.220 C 
ATOM     22  O   LIG    1       -9.230   9.180   3.006  0.00  0.00    -0.380 OA
ATOM     23  C   LIG    1       -9.338   8.254   1.922  0.00  0.00    +0.220 C 
ATOM     24  C   LIG    1       -8.236   7.197   2.050  0.00  0.00    +0.260 C 
ATOM     25  O   LIG    1       -6.029   6.752   0.521  0.00  0.00    -0.520 OA
ENDBRANCH  17  18
ENDBRANCH   1  17
TORSDOF 3
