REMARK  Name = ZINCrH000004tGll.0
REMARK                            x       y       z     vdW  Elec       q    Type
REMARK                         _______ _______ _______ _____ _____    ______ ____
ROOT
ATOM      1  O   LIG    1        7.833   1.752   3.727  0.00  0.00    -0.530 OA
ATOM      2  C   LIG    1        8.598   1.912   2.800  0.00  0.00    +0.520 C 
ATOM      3  N   LIG    1        9.899   2.173   3.036  0.00  0.00    -0.620 N 
ATOM      4  C   LIG    1       10.845   2.372   1.927  0.00  0.00    +0.250 C 
ATOM      5  C   LIG    1       11.618   3.672   2.178  0.00  0.00    +0.220 C 
ATOM      6  O   LIG    1       12.178   3.641   3.492  0.00  0.00    -0.370 OA
ATOM      7  C   LIG    1       11.208   3.574   4.540  0.00  0.00    +0.190 C 
ATOM      8  C   LIG    1       10.413   2.275   4.411  0.00  0.00    +0.270 C 
ENDROOT
BRANCH   7   9
ATOM      9  C   LIG    1       11.906   3.609   5.875  0.00  0.00    -0.090 A 
ATOM     10  C   LIG    1       13.133   2.991   6.030  0.00  0.00    +0.040 A 
ATOM     11  C   LIG    1       13.776   3.028   7.253  0.00  0.00    +0.000 A 
ATOM     12  C   LIG    1       13.187   3.672   8.325  0.00  0.00    +0.010 A 
ATOM     13  C   LIG    1       11.957   4.285   8.172  0.00  0.00    +0.010 A 
ATOM     14  C   LIG    1       11.317   4.253   6.947  0.00  0.00    +0.010 A 
ENDBRANCH   7   9
BRANCH   2  15
ATOM     15  C   LIG    1        8.094   1.820   1.383  0.00  0.00    +0.060 C 
BRANCH  15  16
ATOM     16  C   LIG    1        6.594   1.517   1.394  0.00  0.00    +0.060 C 
BRANCH  16  17
ATOM     17  C   LIG    1        6.082   1.423  -0.045  0.00  0.00    +0.190 C 
BRANCH  17  18
ATOM     18  C   LIG    1        4.604   1.125  -0.034  0.00  0.00    +0.190 A 
ATOM     19  N   LIG    1        3.634   2.004  -0.021  0.00  0.00    -0.470 NA
ATOM     20  C   LIG    1        2.489   1.282  -0.014  0.00  0.00    +0.240 A 
ATOM     21  N   LIG    1        2.831   0.017  -0.017  0.00  0.00    -0.370 NA
ATOM     22  O   LIG    1        4.040  -0.087  -0.034  0.00  0.00    +0.090 OA
BRANCH  20  23
ATOM     23  C   LIG    1        1.113   1.819   0.001  0.00  0.00    -0.140 A 
ATOM     24  C   LIG    1       -0.013   1.076   0.008  0.00  0.00    +0.060 A 
ATOM     25  C   LIG    1       -1.183   1.803   0.017  0.00  0.00    +0.010 A 
ATOM     26  C   LIG    1       -1.025   3.131   0.028  0.00  0.00    -0.030 A 
ATOM     27  S   LIG    1        0.689   3.525   0.014  0.00  0.00    +0.190 S 
ENDBRANCH  20  23
ENDBRANCH  17  18
ENDBRANCH  16  17
ENDBRANCH  15  16
ENDBRANCH   2  15
TORSDOF 6
