REMARK  Name = ZINCqH0000000tt0.1
REMARK                            x       y       z     vdW  Elec       q    Type
REMARK                         _______ _______ _______ _____ _____    ______ ____
ROOT
ATOM      1  C   LIG    1        4.320   3.252   4.081  0.00  0.00    +0.130 A 
ATOM      2  C   LIG    1        4.571   3.619   2.766  0.00  0.00    +0.100 A 
ATOM      3  C   LIG    1        3.525   3.964   1.933  0.00  0.00    +0.020 A 
ATOM      4  C   LIG    1        2.222   3.954   2.414  0.00  0.00    +0.190 A 
ATOM      5  C   LIG    1        1.971   3.587   3.730  0.00  0.00    -0.180 A 
ATOM      6  C   LIG    1        3.017   3.236   4.561  0.00  0.00    +0.080 A 
ENDROOT
BRANCH   1   9
ATOM      7  C   LIG    1        7.680   3.212   5.781  0.00  0.00    +0.120 C 
ATOM      8  C   LIG    1        6.571   3.519   4.808  0.00  0.00    +0.510 C 
ATOM      9  N   LIG    1        5.381   2.897   4.924  0.00  0.00    -0.670 N 
ATOM     10  H   LIG    1        5.260   2.204   5.592  0.00  0.00    +0.420 HD
ATOM     11  O   LIG    1        6.750   4.327   3.920  0.00  0.00    -0.520 OA
ENDBRANCH   1   9
BRANCH   5  12
ATOM     12  C   LIG    1        0.557   3.570   4.251  0.00  0.00    +0.510 C 
ATOM     13  F   LIG    1       -0.207   2.672   3.498  0.00  0.00    -0.170 F 
ATOM     14  F   LIG    1        0.006   4.851   4.147  0.00  0.00    -0.170 F 
ATOM     15  F   LIG    1        0.559   3.170   5.592  0.00  0.00    -0.170 F 
ENDBRANCH   5  12
BRANCH   4  16
ATOM     16  N   LIG    1        1.163   4.308   1.573  0.00  0.00    -1.050 N 
ATOM     17  H   LIG    1        0.401   4.792   1.929  0.00  0.00    +0.430 HD
BRANCH  16  18
ATOM     18  S   LIG    1        1.209   3.902  -0.032  0.00  0.00    +2.700 S 
ATOM     19  O   LIG    1       -0.053   4.265  -0.574  0.00  0.00    -0.930 OA
ATOM     20  O   LIG    1        2.442   4.396  -0.536  0.00  0.00    -0.930 OA
BRANCH  18  21
ATOM     21  C   LIG    1        1.302   2.145  -0.123  0.00  0.00    -0.630 A 
ATOM     22  C   LIG    1        0.143   1.394  -0.176  0.00  0.00    +0.100 A 
ATOM     23  C   LIG    1        0.215   0.013  -0.248  0.00  0.00    +0.120 A 
ATOM     24  C   LIG    1        1.448  -0.616  -0.266  0.00  0.00    +0.030 A 
ATOM     25  C   LIG    1        2.608   0.138  -0.212  0.00  0.00    +0.120 A 
ATOM     26  F   LIG    1        3.813  -0.474  -0.229  0.00  0.00    -0.120 F 
ATOM     27  F   LIG    1       -0.918  -0.721  -0.301  0.00  0.00    -0.120 F 
ATOM     28  C   LIG    1        2.534   1.518  -0.140  0.00  0.00    +0.100 A 
ENDBRANCH  18  21
ENDBRANCH  16  18
ENDBRANCH   4  16
TORSDOF 5
