REMARK  Name = ZINCpk00000y6vKy.0
REMARK                            x       y       z     vdW  Elec       q    Type
REMARK                         _______ _______ _______ _____ _____    ______ ____
ROOT
ATOM      1  C   LIG    1       -1.527   2.785  -0.736  0.00  0.00    +0.220 C 
ATOM      2  C   LIG    1       -2.971   2.455  -0.318  0.00  0.00    +0.060 C 
ATOM      3  C   LIG    1       -2.727   3.280   0.955  0.00  0.00    +0.060 C 
ATOM      4  N   LIG    1       -0.767   1.595  -1.151  0.00  0.00    -0.590 N 
ATOM      5  C   LIG    1       -0.762   1.059  -2.388  0.00  0.00    +0.590 C 
ATOM      6  O   LIG    1       -1.425   1.564  -3.272  0.00  0.00    -0.510 OA
ATOM      7  C   LIG    1       -0.013   1.086   0.008  0.00  0.00    +0.290 C 
ATOM      8  C   LIG    1       -0.783   1.608   1.247  0.00  0.00    +0.070 C 
ATOM      9  C   LIG    1       -1.228   3.013   0.766  0.00  0.00    +0.020 C 
ENDROOT
BRANCH   5  10
ATOM     10  C   LIG    1        0.052  -0.147  -2.670  0.00  0.00    +0.170 A 
ATOM     11  N   LIG    1        0.763  -0.677  -1.694  0.00  0.00    -0.400 NA
ATOM     12  C   LIG    1        1.510  -1.760  -1.898  0.00  0.00    +0.190 A 
ATOM     13  N   LIG    1        2.314  -2.518  -1.165  0.00  0.00    -0.240 NA
ATOM     14  N   LIG    1        2.785  -3.462  -1.902  0.00  0.00    -0.170 N 
ATOM     15  H   LIG    1        3.398  -4.141  -1.579  0.00  0.00    +0.480 HD
ATOM     16  N   LIG    1        2.357  -3.409  -3.115  0.00  0.00    -0.250 NA
ATOM     17  C   LIG    1        1.542  -2.375  -3.236  0.00  0.00    -0.020 A 
ATOM     18  C   LIG    1        0.775  -1.794  -4.263  0.00  0.00    +0.160 A 
ATOM     19  C   LIG    1        0.035  -0.689  -3.964  0.00  0.00    +0.050 A 
ENDBRANCH   5  10
BRANCH   1  23
ATOM     20  C   LIG    1       -0.732   5.293  -3.223  0.00  0.00    +0.170 A 
ATOM     21  N   LIG    1       -1.616   5.901  -2.484  0.00  0.00    -0.290 NA
ATOM     22  N   LIG    1       -2.002   5.112  -1.544  0.00  0.00    -0.270 NA
ATOM     23  C   LIG    1       -1.369   3.978  -1.644  0.00  0.00    +0.190 A 
ATOM     24  O   LIG    1       -0.555   4.064  -2.709  0.00  0.00    -0.210 OA
BRANCH  20  26
ATOM     25  C   LIG    1        1.255   6.561  -3.994  0.00  0.00    +0.060 C 
ATOM     26  C   LIG    1       -0.035   5.863  -4.431  0.00  0.00    +0.180 C 
ENDBRANCH  20  26
ENDBRANCH   1  23
TORSDOF 3
