REMARK  Name = ZINCrD00000hQ52J.0
REMARK                            x       y       z     vdW  Elec       q    Type
REMARK                         _______ _______ _______ _____ _____    ______ ____
ROOT
ATOM      1  O   LIG    1        4.401   0.034  -0.180  0.00  0.00    -0.580 OA
ATOM      2  C   LIG    1        5.179  -0.178   0.730  0.00  0.00    +0.710 C 
ATOM      3  N   LIG    1        6.390   0.412   0.732  0.00  0.00    -0.620 N 
ATOM      4  C   LIG    1        6.697   1.385  -0.303  0.00  0.00    +0.300 C 
ATOM      5  C   LIG    1        7.948   1.025  -1.074  0.00  0.00    +0.080 C 
ATOM      6  C   LIG    1        9.060   0.509  -0.188  0.00  0.00    -0.050 C 
ATOM      7  C   LIG    1        8.757  -0.046   1.193  0.00  0.00    -0.010 C 
ATOM      8  C   LIG    1        9.505   1.289   1.040  0.00  0.00    +0.210 C 
ATOM      9  F   LIG    1       10.872   1.302   1.339  0.00  0.00    -0.150 F 
ATOM     10  F   LIG    1        8.808   2.461   1.349  0.00  0.00    -0.150 F 
ATOM     11  C   LIG    1        7.346   0.049   1.768  0.00  0.00    +0.310 C 
ATOM     12  N   LIG    1        4.830  -1.004   1.736  0.00  0.00    -0.750 N 
ATOM     13  H   LIG    1        5.475  -1.230   2.424  0.00  0.00    +0.390 HD
ENDROOT
BRANCH   6  14
ATOM     14  C   LIG    1       10.160  -0.196  -0.940  0.00  0.00    -0.070 A 
ATOM     15  C   LIG    1       11.326   0.478  -1.251  0.00  0.00    +0.020 A 
ATOM     16  C   LIG    1       12.337  -0.170  -1.936  0.00  0.00    +0.010 A 
ATOM     17  C   LIG    1       12.178  -1.489  -2.318  0.00  0.00    +0.020 A 
ATOM     18  C   LIG    1       11.009  -2.161  -2.011  0.00  0.00    +0.010 A 
ATOM     19  C   LIG    1       10.001  -1.515  -1.322  0.00  0.00    +0.020 A 
ENDBRANCH   6  14
BRANCH  12  20
ATOM     20  C   LIG    1        3.476  -1.561   1.790  0.00  0.00    +0.300 C 
BRANCH  20  21
ATOM     21  C   LIG    1        3.343  -2.459   3.022  0.00  0.00    -0.100 C 
ATOM     22  C   LIG    1        1.928  -3.043   3.080  0.00  0.00    +0.030 C 
ATOM     23  C   LIG    1        1.697  -3.924   1.850  0.00  0.00    +0.220 C 
ATOM     24  O   LIG    1        2.688  -4.952   1.810  0.00  0.00    -0.380 OA
ATOM     25  C   LIG    1        4.028  -4.466   1.707  0.00  0.00    +0.210 C 
ATOM     26  C   LIG    1        4.353  -3.607   2.931  0.00  0.00    +0.010 C 
BRANCH  21  27
ATOM     27  C   LIG    1        3.610  -1.638   4.285  0.00  0.00    +0.220 C 
ATOM     28  F   LIG    1        3.492  -2.461   5.410  0.00  0.00    -0.210 F 
ENDBRANCH  21  27
ENDBRANCH  20  21
ENDBRANCH  12  20
TORSDOF 4
