REMARK  Name = ZINCrH000004sLSY.0
REMARK                            x       y       z     vdW  Elec       q    Type
REMARK                         _______ _______ _______ _____ _____    ______ ____
ROOT
ATOM      1  C   LIG    1        1.694  -1.855  -0.024  0.00  0.00    +0.220 C 
ATOM      2  C   LIG    1        0.825  -2.923  -0.752  0.00  0.00    +0.070 C 
ATOM      3  C   LIG    1        1.670  -3.882   0.142  0.00  0.00    +0.010 C 
ATOM      4  C   LIG    1        3.171  -3.619  -0.223  0.00  0.00    +0.300 C 
ATOM      5  C   LIG    1        1.400  -2.771   1.190  0.00  0.00    +0.070 C 
ATOM      6  N   LIG    1        3.139  -2.120  -0.320  0.00  0.00    -0.610 N 
ATOM      7  C   LIG    1        4.127  -1.250  -0.608  0.00  0.00    +0.540 C 
ATOM      8  O   LIG    1        3.916  -0.056  -0.564  0.00  0.00    -0.490 OA
ENDROOT
BRANCH   1  13
ATOM      9  C   LIG    1       -0.604   2.478  -1.160  0.00  0.00    +0.240 C 
ATOM     10  C   LIG    1        0.255   1.432  -0.498  0.00  0.00    +0.170 A 
ATOM     11  N   LIG    1        1.014   1.606   0.546  0.00  0.00    -0.280 NA
ATOM     12  N   LIG    1        1.601   0.499   0.837  0.00  0.00    -0.240 NA
ATOM     13  C   LIG    1        1.237  -0.420  -0.012  0.00  0.00    +0.180 A 
ATOM     14  O   LIG    1        0.377   0.148  -0.875  0.00  0.00    -0.220 OA
ENDBRANCH   1  13
BRANCH   7  15
ATOM     15  C   LIG    1        5.495  -1.760  -0.983  0.00  0.00    +0.250 C 
BRANCH  15  16
ATOM     16  O   LIG    1        6.362  -0.653  -1.240  0.00  0.00    -0.280 OA
BRANCH  16  17
ATOM     17  C   LIG    1        7.641  -0.942  -1.594  0.00  0.00    +0.160 A 
ATOM     18  C   LIG    1        8.051  -2.241  -1.692  0.00  0.00    -0.080 A 
ATOM     19  C   LIG    1        9.359  -2.554  -2.054  0.00  0.00    +0.080 A 
ATOM     20  C   LIG    1       10.267  -1.575  -2.321  0.00  0.00    -0.060 A 
ATOM     21  C   LIG    1        9.884  -0.224  -2.232  0.00  0.00    -0.010 A 
ATOM     22  C   LIG    1       10.795   0.811  -2.499  0.00  0.00    +0.020 A 
ATOM     23  C   LIG    1       10.389   2.107  -2.402  0.00  0.00    +0.040 A 
ATOM     24  C   LIG    1        9.081   2.424  -2.040  0.00  0.00    +0.010 A 
ATOM     25  C   LIG    1        8.172   1.446  -1.774  0.00  0.00    +0.060 A 
ATOM     26 CL   LIG    1       11.891  -1.992  -2.771  0.00  0.00    -0.060 Cl
ATOM     27  C   LIG    1        8.553   0.098  -1.869  0.00  0.00    -0.060 A 
ENDBRANCH  16  17
ENDBRANCH  15  16
ENDBRANCH   7  15
TORSDOF 4
