REMARK  Name = ZINCrD00000F5LiS.0
REMARK                            x       y       z     vdW  Elec       q    Type
REMARK                         _______ _______ _______ _____ _____    ______ ____
ROOT
ATOM      1  N   LIG    1        1.615   2.732   0.126  0.00  0.00    -0.960 N 
ATOM      2  H   LIG    1        1.823   3.317   0.871  0.00  0.00    +0.400 HD
ENDROOT
BRANCH   1   3
ATOM      3  S   LIG    1        0.114   2.782  -0.572  0.00  0.00    +2.720 S 
ATOM      4  O   LIG    1       -0.672   3.654   0.229  0.00  0.00    -0.940 OA
ATOM      5  O   LIG    1        0.325   2.982  -1.963  0.00  0.00    -0.930 OA
BRANCH   3  10
ATOM      6  C   LIG    1       -2.312  -2.712   0.010  0.00  0.00    +0.140 C 
ATOM      7  C   LIG    1       -1.706  -1.339  -0.136  0.00  0.00    +0.030 A 
ATOM      8  C   LIG    1       -0.952  -1.032  -1.252  0.00  0.00    +0.020 A 
ATOM      9  C   LIG    1       -0.400   0.228  -1.387  0.00  0.00    +0.200 A 
ATOM     10  C   LIG    1       -0.594   1.178  -0.402  0.00  0.00    -0.680 A 
ATOM     11  C   LIG    1       -1.349   0.870   0.715  0.00  0.00    +0.200 A 
ATOM     12  C   LIG    1       -1.905  -0.389   0.848  0.00  0.00    -0.060 A 
BRANCH  12  13
ATOM     13  N   LIG    1       -2.713  -0.718   2.044  0.00  0.00    +0.020 N 
ATOM     14  O   LIG    1       -2.396  -0.277   3.134  0.00  0.00    -0.150 OA
ATOM     15  O   LIG    1       -3.695  -1.431   1.938  0.00  0.00    -0.140 OA
ENDBRANCH  12  13
ENDBRANCH   3  10
ENDBRANCH   1   3
BRANCH   1  16
ATOM     16  N   LIG    1        2.584   1.844  -0.359  0.00  0.00    -0.240 NA
ATOM     17  C   LIG    1        3.760   1.805   0.187  0.00  0.00    +0.170 C 
ATOM     18  C   LIG    1        4.084   2.714   1.345  0.00  0.00    +0.100 C 
BRANCH  17  19
ATOM     19  C   LIG    1        4.780   0.870  -0.324  0.00  0.00    -0.100 A 
ATOM     20  C   LIG    1        6.049   0.830   0.259  0.00  0.00    +0.080 A 
ATOM     21  C   LIG    1        6.997  -0.049  -0.218  0.00  0.00    -0.080 A 
ATOM     22  C   LIG    1        6.696  -0.886  -1.285  0.00  0.00    +0.160 A 
ATOM     23  C   LIG    1        5.438  -0.846  -1.871  0.00  0.00    -0.020 A 
ATOM     24  C   LIG    1        4.482   0.026  -1.397  0.00  0.00    +0.100 A 
BRANCH  22  25
ATOM     25  O   LIG    1        7.636  -1.747  -1.756  0.00  0.00    -0.310 OA
BRANCH  25  26
ATOM     26  C   LIG    1        8.868  -1.821  -1.035  0.00  0.00    +0.160 C 
ATOM     27  C   LIG    1        9.809  -0.715  -1.517  0.00  0.00    +0.020 C 
ATOM     28  C   LIG    1        9.518  -3.185  -1.276  0.00  0.00    +0.070 C 
ENDBRANCH  25  26
ENDBRANCH  22  25
ENDBRANCH  17  19
ENDBRANCH   1  16
TORSDOF 7
