REMARK  Name = ZINCb800000011in.0
REMARK                            x       y       z     vdW  Elec       q    Type
REMARK                         _______ _______ _______ _____ _____    ______ ____
ROOT
ATOM      1  C   LIG    1       -0.479   2.751   4.473  0.00  0.00    +0.370 C 
ATOM      2  N   LIG    1       -0.999   2.273   3.392  0.00  0.00    -0.430 NA
ENDROOT
BRANCH   1   3
ATOM      3  N   LIG    1        0.814   3.224   4.465  0.00  0.00    -0.870 N 
ATOM      4  H   LIG    1        1.205   3.582   5.277  0.00  0.00    +0.400 HD
ATOM      5  H   LIG    1        1.335   3.198   3.647  0.00  0.00    +0.410 HD
ENDBRANCH   1   3
BRANCH   2   6
ATOM      6  O   LIG    1       -0.239   2.236   2.197  0.00  0.00    -0.240 OA
BRANCH   6   7
ATOM      7  C   LIG    1       -0.939   1.683   1.080  0.00  0.00    +0.190 C 
ATOM      8  C   LIG    1       -0.013   1.086   0.008  0.00  0.00    +0.020 C 
ATOM      9  C   LIG    1       -0.959   1.695  -1.040  0.00  0.00    +0.020 C 
ATOM     10  C   LIG    1       -1.349   2.730   0.028  0.00  0.00    -0.010 C 
ENDBRANCH   6   7
ENDBRANCH   2   6
BRANCH   1  11
ATOM     11  C   LIG    1       -1.288   2.791   5.744  0.00  0.00    +0.140 C 
BRANCH  11  12
ATOM     12  C   LIG    1       -2.679   2.210   5.482  0.00  0.00    +0.210 C 
BRANCH  12  13
ATOM     13  O   LIG    1       -3.446   2.248   6.687  0.00  0.00    -0.580 OA
ATOM     14  H   LIG    1       -4.341   1.895   6.595  0.00  0.00    +0.390 HD
ENDBRANCH  12  13
ENDBRANCH  11  12
ENDBRANCH   1  11
TORSDOF 6
