REMARK  Name = ZINCqH0000038Ef1.0
REMARK                            x       y       z     vdW  Elec       q    Type
REMARK                         _______ _______ _______ _____ _____    ______ ____
ROOT
ATOM      1  C   LIG    1        5.450   9.292  -0.007  0.00  0.00    +0.160 C 
ATOM      2  C   LIG    1        6.025   7.899  -0.019  0.00  0.00    +0.100 A 
ATOM      3  C   LIG    1        7.338   7.661  -0.032  0.00  0.00    -0.240 A 
ATOM      4  S   LIG    1        7.576   5.915  -0.042  0.00  0.00    +0.140 S 
ATOM      5  C   LIG    1        5.884   5.674  -0.027  0.00  0.00    +0.270 A 
ATOM      6  N   LIG    1        5.271   6.816  -0.021  0.00  0.00    -0.470 NA
ENDROOT
BRANCH   5   7
ATOM      7  N   LIG    1        5.257   4.434  -0.026  0.00  0.00    -0.630 N 
ATOM      8  H   LIG    1        5.788   3.622  -0.035  0.00  0.00    +0.420 HD
ATOM      9  C   LIG    1        3.912   4.359  -0.014  0.00  0.00    +0.560 C 
ATOM     10  O   LIG    1        3.246   5.377  -0.002  0.00  0.00    -0.460 OA
BRANCH   9  11
ATOM     11  C   LIG    1        3.245   3.042  -0.013  0.00  0.00    -0.120 A 
ATOM     12  C   LIG    1        1.864   2.980  -0.000  0.00  0.00    +0.190 A 
ATOM     13  C   LIG    1        1.233   1.727  -0.000  0.00  0.00    +0.010 A 
ATOM     14  N   LIG    1       -0.015   1.283   0.009  0.00  0.00    -0.250 NA
ATOM     15  N   LIG    1        0.002  -0.004   0.002  0.00  0.00    -0.190 N 
ATOM     16  H   LIG    1       -0.798  -0.552   0.007  0.00  0.00    +0.480 HD
ATOM     17  N   LIG    1        1.195  -0.487  -0.012  0.00  0.00    -0.270 NA
ATOM     18  C   LIG    1        2.062   0.512  -0.015  0.00  0.00    +0.040 A 
ATOM     19  C   LIG    1        3.464   0.640  -0.028  0.00  0.00    +0.090 A 
ATOM     20  C   LIG    1        4.029   1.871  -0.027  0.00  0.00    +0.060 A 
ENDBRANCH   9  11
ENDBRANCH   5   7
BRANCH   3  21
ATOM     21  C   LIG    1        8.427   8.703  -0.039  0.00  0.00    +0.190 C 
BRANCH  21  22
ATOM     22  C   LIG    1        8.803   9.045   1.379  0.00  0.00    -0.120 A 
ATOM     23  C   LIG    1        8.227  10.134   2.004  0.00  0.00    +0.040 A 
ATOM     24  C   LIG    1        8.568  10.444   3.308  0.00  0.00    +0.000 A 
ATOM     25  C   LIG    1        9.495   9.673   3.983  0.00  0.00    +0.040 A 
ATOM     26  C   LIG    1       10.077   8.586   3.358  0.00  0.00    -0.010 A 
ATOM     27  C   LIG    1        9.732   8.271   2.055  0.00  0.00    +0.100 A 
ATOM     28  F   LIG    1       10.300   7.208   1.444  0.00  0.00    -0.140 F 
ENDBRANCH  21  22
ENDBRANCH   3  21
TORSDOF 4
