REMARK  Name = ZINCpk00000KfKon.0
REMARK                            x       y       z     vdW  Elec       q    Type
REMARK                         _______ _______ _______ _____ _____    ______ ____
ROOT
ATOM      1  N   LIG    1        2.858   3.243   0.971  0.00  0.00    -0.530 NA
ATOM      2  C   LIG    1        2.425   2.821   2.310  0.00  0.00    +0.180 C 
ATOM      3  C   LIG    1        3.615   2.882   3.271  0.00  0.00    +0.200 C 
ATOM      4  N   LIG    1        4.147   4.252   3.300  0.00  0.00    -0.520 NA
ATOM      5  C   LIG    1        4.580   4.674   1.961  0.00  0.00    +0.190 C 
ATOM      6  C   LIG    1        3.391   4.612   1.000  0.00  0.00    +0.200 C 
ENDROOT
BRANCH   1   7
ATOM      7  C   LIG    1        1.761   3.126   0.001  0.00  0.00    +0.270 C 
ATOM      8  C   LIG    1        2.274   3.482  -1.395  0.00  0.00    +0.080 C 
BRANCH   7  13
ATOM      9  C   LIG    1       -1.200  -0.912   0.008  0.00  0.00    +0.210 C 
ATOM     10  C   LIG    1        0.002  -0.004   0.002  0.00  0.00    +0.170 A 
ATOM     11  N   LIG    1        1.247  -0.376  -0.012  0.00  0.00    -0.390 NA
ATOM     12  O   LIG    1        1.975   0.594  -0.014  0.00  0.00    +0.090 OA
ATOM     13  C   LIG    1        1.242   1.711  -0.001  0.00  0.00    +0.190 A 
ATOM     14  N   LIG    1       -0.016   1.341   0.009  0.00  0.00    -0.480 NA
ENDBRANCH   7  13
ENDBRANCH   1   7
BRANCH   4  15
ATOM     15  C   LIG    1        5.244   4.369   4.270  0.00  0.00    +0.190 C 
BRANCH  15  16
ATOM     16  C   LIG    1        4.764   3.929   5.629  0.00  0.00    -0.100 A 
ATOM     17  C   LIG    1        3.498   4.280   6.061  0.00  0.00    +0.080 A 
ATOM     18  C   LIG    1        3.054   3.872   7.305  0.00  0.00    -0.010 A 
ATOM     19  C   LIG    1        3.881   3.120   8.122  0.00  0.00    +0.110 A 
ATOM     20  C   LIG    1        5.150   2.773   7.690  0.00  0.00    -0.010 A 
ATOM     21  F   LIG    1        3.451   2.726   9.340  0.00  0.00    -0.140 F 
ATOM     22  C   LIG    1        5.590   3.178   6.444  0.00  0.00    +0.050 A 
ENDBRANCH  15  16
BRANCH  15  23
ATOM     23  C   LIG    1        5.702   5.803   4.340  0.00  0.00    +0.530 C 
ATOM     24  O   LIG    1        5.166   6.645   3.650  0.00  0.00    -0.520 OA
ATOM     25  N   LIG    1        6.705   6.151   5.169  0.00  0.00    -0.850 N 
ATOM     26  H   LIG    1        7.000   7.074   5.214  0.00  0.00    +0.410 HD
ATOM     27  H   LIG    1        7.134   5.478   5.721  0.00  0.00    +0.400 HD
ENDBRANCH  15  23
ENDBRANCH   4  15
TORSDOF 5
