REMARK  Name = ZINCvU0000000ErM.0
REMARK                            x       y       z     vdW  Elec       q    Type
REMARK                         _______ _______ _______ _____ _____    ______ ____
ROOT
ATOM      1  O   LIG    1       -1.120   2.025   2.325  0.00  0.00    -0.500 OA
ATOM      2  C   LIG    1       -1.713   2.570   1.419  0.00  0.00    +0.510 C 
ATOM      3  N   LIG    1       -2.795   3.329   1.681  0.00  0.00    -0.670 N 
ATOM      4  H   LIG    1       -3.229   3.819   0.965  0.00  0.00    +0.410 HD
ENDROOT
BRANCH   3   5
ATOM      5  C   LIG    1       -3.292   3.411   2.987  0.00  0.00    +0.160 A 
ATOM      6  C   LIG    1       -2.418   3.388   4.066  0.00  0.00    +0.010 A 
ATOM      7  C   LIG    1       -2.908   3.469   5.356  0.00  0.00    +0.050 A 
ATOM      8  C   LIG    1       -4.267   3.573   5.576  0.00  0.00    -0.020 A 
ATOM      9  C   LIG    1       -5.147   3.597   4.500  0.00  0.00    +0.160 A 
ATOM     10  C   LIG    1       -4.658   3.522   3.204  0.00  0.00    -0.010 A 
BRANCH   9  11
ATOM     11  N   LIG    1       -6.523   3.702   4.724  0.00  0.00    -0.660 N 
ATOM     12  H   LIG    1       -6.855   4.236   5.463  0.00  0.00    +0.420 HD
ATOM     13  C   LIG    1       -7.389   3.062   3.914  0.00  0.00    +0.610 C 
ATOM     14  O   LIG    1       -6.978   2.461   2.938  0.00  0.00    -0.500 OA
BRANCH  13  15
ATOM     15  C   LIG    1       -8.825   3.089   4.207  0.00  0.00    -0.090 A 
ATOM     16  C   LIG    1       -9.806   2.490   3.470  0.00  0.00    +0.050 A 
ATOM     17  C   LIG    1      -11.022   2.769   4.113  0.00  0.00    -0.070 A 
ATOM     18  C   LIG    1      -10.734   3.524   5.197  0.00  0.00    +0.210 A 
ATOM     19  O   LIG    1       -9.409   3.715   5.250  0.00  0.00    -0.170 OA
ENDBRANCH  13  15
ENDBRANCH   9  11
ENDBRANCH   3   5
BRANCH   2  20
ATOM     20  C   LIG    1       -1.240   2.398  -0.002  0.00  0.00    +0.150 C 
BRANCH  20  21
ATOM     21  C   LIG    1       -0.022   1.510  -0.022  0.00  0.00    -0.160 A 
ATOM     22  C   LIG    1        1.263   1.902  -0.027  0.00  0.00    +0.230 A 
ATOM     23  O   LIG    1        2.068   0.827  -0.052  0.00  0.00    -0.180 OA
ATOM     24  C   LIG    1        1.349  -0.314  -0.065  0.00  0.00    +0.040 A 
ATOM     25  C   LIG    1        1.704  -1.667  -0.091  0.00  0.00    +0.040 A 
ATOM     26  C   LIG    1        0.770  -2.649  -0.099  0.00  0.00    +0.060 A 
ATOM     27  C   LIG    1       -0.606  -2.346  -0.083  0.00  0.00    -0.060 A 
ATOM     28  C   LIG    1       -1.576  -3.361  -0.091  0.00  0.00    +0.030 A 
ATOM     29  C   LIG    1       -2.898  -3.031  -0.073  0.00  0.00    +0.010 A 
ATOM     30  C   LIG    1       -3.303  -1.699  -0.047  0.00  0.00    +0.010 A 
ATOM     31  C   LIG    1       -2.386  -0.690  -0.039  0.00  0.00    +0.010 A 
ATOM     32  C   LIG    1       -1.021  -0.993  -0.056  0.00  0.00    -0.000 A 
ATOM     33  C   LIG    1       -0.001   0.049  -0.047  0.00  0.00    -0.110 A 
ENDBRANCH  20  21
ENDBRANCH   2  20
TORSDOF 5
