REMARK  Name = ZINCbu0000001fmy.0
REMARK                            x       y       z     vdW  Elec       q    Type
REMARK                         _______ _______ _______ _____ _____    ______ ____
ROOT
ATOM      1  C   LIG    1        0.030   0.979   2.437  0.00  0.00    -0.150 A 
ATOM      2  C   LIG    1       -0.445  -0.122   3.123  0.00  0.00    +0.070 A 
ATOM      3  C   LIG    1        0.226  -0.583   4.240  0.00  0.00    +0.040 A 
ATOM      4  C   LIG    1        1.367   0.064   4.678  0.00  0.00    -0.040 A 
ATOM      5  C   LIG    1        1.839   1.169   3.995  0.00  0.00    +0.060 A 
ATOM      6  C   LIG    1        2.095  -0.436   5.899  0.00  0.00    +0.120 C 
ATOM      7  C   LIG    1        1.171   1.627   2.874  0.00  0.00    -0.080 A 
ATOM      8 BR   LIG    1        1.817   3.139   1.940  0.00  0.00    -0.030 Br
ENDROOT
BRANCH   1   9
ATOM      9  C   LIG    1       -0.699   1.479   1.216  0.00  0.00    +0.330 C 
BRANCH   9  11
ATOM     10  C   LIG    1       -0.722   1.492  -1.183  0.00  0.00    +0.340 C 
ATOM     11  N   LIG    1       -0.012   1.005   0.008  0.00  0.00    -0.510 N 
ATOM     12  H   LIG    1        0.935   1.354   0.000  0.00  0.00    +0.420 HD
ATOM     13  H   LIG    1        0.002  -0.004   0.002  0.00  0.00    +0.430 HD
ENDBRANCH   9  11
ENDBRANCH   1   9
TORSDOF 2
