REMARK  Name = ZINCtV000002H5DY.0
REMARK                            x       y       z     vdW  Elec       q    Type
REMARK                         _______ _______ _______ _____ _____    ______ ____
ROOT
ATOM      1  C   LIG    1       -1.388  -2.123  -0.098  0.00  0.00    +0.150 A 
ATOM      2  C   LIG    1       -1.267  -0.808   0.269  0.00  0.00    -0.180 A 
ATOM      3  S   LIG    1       -2.882  -0.104   0.313  0.00  0.00    +0.110 S 
ATOM      4  C   LIG    1       -3.574  -1.652  -0.159  0.00  0.00    +0.290 A 
ATOM      5  N   LIG    1       -2.629  -2.528  -0.309  0.00  0.00    -0.450 NA
ENDROOT
BRANCH   1  10
ATOM      6  C   LIG    1        3.153  -5.617  -0.658  0.00  0.00    +0.090 C 
ATOM      7  C   LIG    1        1.964  -4.702  -0.511  0.00  0.00    -0.070 A 
ATOM      8  C   LIG    1        0.820  -5.156   0.120  0.00  0.00    +0.000 A 
ATOM      9  C   LIG    1       -0.272  -4.323   0.258  0.00  0.00    +0.050 A 
ATOM     10  C   LIG    1       -0.220  -3.022  -0.241  0.00  0.00    -0.030 A 
ATOM     11  C   LIG    1        0.935  -2.572  -0.882  0.00  0.00    +0.040 A 
ATOM     12  C   LIG    1        2.022  -3.412  -1.008  0.00  0.00    +0.000 A 
ENDBRANCH   1  10
BRANCH   2  13
ATOM     13  C   LIG    1       -0.005  -0.104   0.567  0.00  0.00    -0.020 A 
ATOM     14  C   LIG    1        0.263   1.135  -0.020  0.00  0.00    +0.020 A 
ATOM     15  C   LIG    1        1.444   1.788   0.264  0.00  0.00    +0.010 A 
ATOM     16  C   LIG    1        2.363   1.219   1.128  0.00  0.00    -0.070 A 
ATOM     17  C   LIG    1        2.104  -0.008   1.713  0.00  0.00    +0.010 A 
ATOM     18  C   LIG    1        3.651   1.938   1.433  0.00  0.00    +0.090 C 
ATOM     19  C   LIG    1        0.927  -0.673   1.438  0.00  0.00    +0.040 A 
ENDBRANCH   2  13
BRANCH   4  20
ATOM     20  N   LIG    1       -4.926  -1.899  -0.344  0.00  0.00    -0.630 N 
ATOM     21  H   LIG    1       -5.571  -1.186  -0.211  0.00  0.00    +0.420 HD
ATOM     22  C   LIG    1       -5.344  -3.127  -0.707  0.00  0.00    +0.560 C 
ATOM     23  O   LIG    1       -4.536  -4.020  -0.873  0.00  0.00    -0.450 OA
BRANCH  22  24
ATOM     24  C   LIG    1       -6.785  -3.389  -0.903  0.00  0.00    -0.190 A 
ATOM     25  C   LIG    1       -7.232  -4.662  -1.281  0.00  0.00    +0.160 A 
ATOM     26  C   LIG    1       -8.590  -4.856  -1.452  0.00  0.00    +0.000 A 
ATOM     27  C   LIG    1       -9.457  -3.796  -1.245  0.00  0.00    +0.200 A 
ATOM     28  N   LIG    1       -9.007  -2.607  -0.890  0.00  0.00    -0.480 NA
ATOM     29 CL   LIG    1      -11.164  -4.035  -1.458  0.00  0.00    -0.010 Cl
ATOM     30  C   LIG    1       -7.723  -2.375  -0.710  0.00  0.00    +0.330 A 
ENDBRANCH  22  24
ENDBRANCH   4  20
TORSDOF 4
