REMARK  Name = ZINCqH00000i6VPF.0
REMARK                            x       y       z     vdW  Elec       q    Type
REMARK                         _______ _______ _______ _____ _____    ______ ____
ROOT
ATOM      1  O   LIG    1       -3.440   3.007   4.874  0.00  0.00    -0.490 OA
ATOM      2  C   LIG    1       -2.406   2.399   5.051  0.00  0.00    +0.520 C 
ATOM      3  N   LIG    1       -2.107   1.919   6.275  0.00  0.00    -0.640 N 
ATOM      4  H   LIG    1       -1.319   1.368   6.401  0.00  0.00    +0.420 HD
ENDROOT
BRANCH   3   5
ATOM      5  C   LIG    1       -2.939   2.218   7.369  0.00  0.00    +0.070 A 
ATOM      6  C   LIG    1       -4.083   2.929   7.245  0.00  0.00    -0.010 A 
ATOM      7  S   LIG    1       -4.742   3.034   8.830  0.00  0.00    +0.300 S 
ATOM      8  N   LIG    1       -3.510   2.153   9.592  0.00  0.00    -0.440 NA
ATOM      9  C   LIG    1       -2.654   1.802   8.666  0.00  0.00    +0.150 A 
BRANCH   9  10
ATOM     10  C   LIG    1       -1.442   1.007   8.984  0.00  0.00    -0.030 A 
ATOM     11  C   LIG    1       -1.069  -0.057   8.164  0.00  0.00    +0.010 A 
ATOM     12  C   LIG    1        0.062  -0.789   8.461  0.00  0.00    +0.020 A 
ATOM     13  C   LIG    1        0.819  -0.476   9.576  0.00  0.00    +0.030 A 
ATOM     14  C   LIG    1        0.450   0.576  10.396  0.00  0.00    +0.020 A 
ATOM     15  C   LIG    1       -0.676   1.318  10.106  0.00  0.00    +0.050 A 
ENDBRANCH   9  10
ENDBRANCH   3   5
BRANCH   2  16
ATOM     16  C   LIG    1       -1.454   2.179   3.904  0.00  0.00    +0.010 C 
BRANCH  16  17
ATOM     17  C   LIG    1       -0.103   2.817   4.232  0.00  0.00    +0.460 C 
ATOM     18  F   LIG    1        0.742   2.717   3.121  0.00  0.00    -0.170 F 
ATOM     19  F   LIG    1        0.475   2.153   5.319  0.00  0.00    -0.180 F 
ATOM     20  F   LIG    1       -0.291   4.166   4.554  0.00  0.00    -0.170 F 
ENDBRANCH  16  17
BRANCH  16  21
ATOM     21  C   LIG    1       -2.027   2.818   2.637  0.00  0.00    +0.110 C 
BRANCH  21  22
ATOM     22  C   LIG    1       -3.293   2.070   2.215  0.00  0.00    +0.140 C 
ATOM     23  C   LIG    1       -3.914   2.761   0.998  0.00  0.00    +0.200 C 
ATOM     24  O   LIG    1       -5.032   1.994   0.542  0.00  0.00    -0.380 OA
ATOM     25  C   LIG    1       -4.700   0.645   0.198  0.00  0.00    +0.190 C 
ATOM     26  C   LIG    1       -4.079  -0.045   1.416  0.00  0.00    +0.200 C 
ATOM     27  O   LIG    1       -2.960   0.720   1.872  0.00  0.00    -0.380 OA
ENDBRANCH  21  22
ENDBRANCH  16  21
ENDBRANCH   2  16
TORSDOF 6
