REMARK  Name = ZINCrH00000tj16D.0
REMARK                            x       y       z     vdW  Elec       q    Type
REMARK                         _______ _______ _______ _____ _____    ______ ____
ROOT
ATOM      1  C   LIG    1        6.040   2.183  -0.045  0.00  0.00    +0.350 A 
ATOM      2  C   LIG    1        6.180   3.537  -0.046  0.00  0.00    -0.080 A 
ATOM      3  C   LIG    1        7.548   3.826  -0.052  0.00  0.00    +0.120 A 
ATOM      4  N   LIG    1        8.212   2.699  -0.064  0.00  0.00    -0.290 NA
ATOM      5  C   LIG    1        8.156   5.205  -0.050  0.00  0.00    +0.180 C 
ATOM      6  N   LIG    1        7.292   1.643  -0.061  0.00  0.00    -0.330 N 
ENDROOT
BRANCH   6   7
ATOM      7  C   LIG    1        7.599   0.288  -0.072  0.00  0.00    +0.540 A 
ATOM      8  N   LIG    1        6.721  -0.681  -0.070  0.00  0.00    -0.520 NA
ATOM      9  C   LIG    1        7.363  -1.878  -0.084  0.00  0.00    +0.070 A 
ATOM     10  C   LIG    1        6.923  -3.204  -0.087  0.00  0.00    +0.060 A 
ATOM     11  C   LIG    1        7.842  -4.229  -0.104  0.00  0.00    +0.010 A 
ATOM     12  C   LIG    1        9.202  -3.956  -0.115  0.00  0.00    +0.040 A 
ATOM     13  C   LIG    1        9.653  -2.652  -0.111  0.00  0.00    +0.030 A 
ATOM     14  C   LIG    1        8.742  -1.607  -0.095  0.00  0.00    +0.060 A 
ATOM     15  N   LIG    1        8.862  -0.228  -0.093  0.00  0.00    -0.590 N 
ATOM     16  H   LIG    1        9.691   0.277  -0.102  0.00  0.00    +0.430 HD
ENDBRANCH   6   7
BRANCH   1  18
ATOM     17  C   LIG    1        3.667   2.145  -0.022  0.00  0.00    +0.570 C 
ATOM     18  N   LIG    1        4.838   1.479  -0.037  0.00  0.00    -0.640 N 
ATOM     19  H   LIG    1        4.845   0.509  -0.043  0.00  0.00    +0.430 HD
ATOM     20  O   LIG    1        3.659   3.361  -0.015  0.00  0.00    -0.480 OA
BRANCH  17  26
ATOM     21  C   LIG    1        1.173   2.088   0.002  0.00  0.00    +0.200 A 
ATOM     22  C   LIG    1       -0.017   1.377   0.010  0.00  0.00    -0.080 A 
ATOM     23  C   LIG    1        0.002  -0.004   0.002  0.00  0.00    +0.090 A 
ATOM     24  C   LIG    1        1.206  -0.689  -0.013  0.00  0.00    -0.040 A 
ATOM     25  C   LIG    1        2.399   0.002  -0.021  0.00  0.00    +0.090 A 
ATOM     26  C   LIG    1        2.394   1.399  -0.013  0.00  0.00    -0.180 A 
BRANCH  21  27
ATOM     27  O   LIG    1        1.157   3.445   0.009  0.00  0.00    -0.280 OA
BRANCH  27  29
ATOM     28  C   LIG    1        0.057   5.597   0.030  0.00  0.00    +0.070 C 
ATOM     29  C   LIG    1       -0.124   4.077   0.024  0.00  0.00    +0.170 C 
ENDBRANCH  27  29
ENDBRANCH  21  27
ENDBRANCH  17  26
ENDBRANCH   1  18
TORSDOF 5
