REMARK  Name = ZINCbw0000001N5O.0
REMARK                            x       y       z     vdW  Elec       q    Type
REMARK                         _______ _______ _______ _____ _____    ______ ____
ROOT
ATOM      1  C   LIG    1       -0.773   3.123  -1.223  0.00  0.00    -0.010 C 
ATOM      2  C   LIG    1       -0.753   1.593  -1.232  0.00  0.00    +0.010 C 
ATOM      3  C   LIG    1       -0.013   1.086   0.008  0.00  0.00    +0.030 C 
ATOM      4  C   LIG    1       -0.729   1.579   1.267  0.00  0.00    -0.070 C 
ATOM      5  C   LIG    1       -0.750   3.109   1.275  0.00  0.00    +0.030 C 
ATOM      6  C   LIG    1       -1.490   3.616   0.036  0.00  0.00    +0.010 C 
ENDROOT
BRANCH   1   8
ATOM      7  C   LIG    1       -1.534   5.159  -2.454  0.00  0.00    +0.010 C 
ATOM      8  C   LIG    1       -1.513   3.629  -2.463  0.00  0.00    -0.020 C 
ATOM      9  C   LIG    1       -0.797   3.136  -3.721  0.00  0.00    +0.010 C 
ENDBRANCH   1   8
BRANCH   4  10
ATOM     10  C   LIG    1       -2.143   1.058   1.278  0.00  0.00    +0.440 C 
ATOM     11  O   LIG    1       -2.519   0.353   2.183  0.00  0.00    -0.460 OA
ENDBRANCH   4  10
TORSDOF 2
