REMARK  Name = ZINCrg000000oF5F.0
REMARK                            x       y       z     vdW  Elec       q    Type
REMARK                         _______ _______ _______ _____ _____    ______ ____
ROOT
ATOM      1  N   LIG    1       -2.847  -0.416   4.584  0.00  0.00    -0.740 N 
ATOM      2  H   LIG    1       -1.899  -0.368   4.784  0.00  0.00    +0.390 HD
ATOM      3  C   LIG    1       -3.644  -1.241   5.293  0.00  0.00    +0.710 C 
ATOM      4  N   LIG    1       -3.123  -1.999   6.278  0.00  0.00    -0.730 N 
ATOM      5  H   LIG    1       -2.175  -1.951   6.478  0.00  0.00    +0.400 HD
ATOM      6  O   LIG    1       -4.832  -1.301   5.043  0.00  0.00    -0.590 OA
ENDROOT
BRANCH   4   7
ATOM      7  C   LIG    1       -3.990  -2.895   7.048  0.00  0.00    +0.210 C 
ATOM      8  C   LIG    1       -5.078  -2.077   7.747  0.00  0.00    +0.040 C 
BRANCH   7   9
ATOM      9  C   LIG    1       -3.155  -3.634   8.096  0.00  0.00    +0.090 C 
BRANCH   9  10
ATOM     10  C   LIG    1       -4.046  -4.556   8.889  0.00  0.00    -0.070 A 
ATOM     11  C   LIG    1       -4.660  -4.102  10.041  0.00  0.00    +0.030 A 
ATOM     12  C   LIG    1       -5.481  -4.946  10.765  0.00  0.00    +0.020 A 
ATOM     13  C   LIG    1       -5.680  -6.248  10.343  0.00  0.00    -0.040 A 
ATOM     14  C   LIG    1       -5.061  -6.703   9.192  0.00  0.00    +0.020 A 
ATOM     15 CL   LIG    1       -6.705  -7.310  11.256  0.00  0.00    -0.070 Cl
ATOM     16  C   LIG    1       -4.245  -5.857   8.465  0.00  0.00    +0.040 A 
ENDBRANCH   9  10
ENDBRANCH   7   9
BRANCH   7  17
ATOM     17  C   LIG    1       -4.640  -3.910   6.106  0.00  0.00    +0.180 C 
BRANCH  17  18
ATOM     18  O   LIG    1       -3.624  -4.674   5.454  0.00  0.00    -0.570 OA
ATOM     19  H   LIG    1       -3.964  -5.338   4.840  0.00  0.00    +0.380 HD
ENDBRANCH  17  18
ENDBRANCH   7  17
ENDBRANCH   4   7
BRANCH   1  20
ATOM     20  C   LIG    1       -3.413   0.407   3.513  0.00  0.00    +0.390 C 
BRANCH  20  23
ATOM     21  N   LIG    1       -0.698   1.558   1.213  0.00  0.00    -0.530 N 
ATOM     22  C   LIG    1       -1.689   0.797   1.772  0.00  0.00    +0.380 A 
ATOM     23  C   LIG    1       -2.320   1.232   2.883  0.00  0.00    -0.290 A 
ATOM     24  C   LIG    1       -1.942   2.474   3.449  0.00  0.00    +0.560 A 
ATOM     25  N   LIG    1       -0.961   3.194   2.868  0.00  0.00    -0.660 N 
ATOM     26  H   LIG    1       -0.697   4.046   3.250  0.00  0.00    +0.430 HD
ATOM     27  O   LIG    1       -2.497   2.887   4.451  0.00  0.00    -0.500 OA
ATOM     28  C   LIG    1       -0.345   2.734   1.764  0.00  0.00    +0.700 A 
ATOM     29  O   LIG    1        0.541   3.392   1.253  0.00  0.00    -0.530 OA
BRANCH  21  31
ATOM     30  C   LIG    1       -0.753   1.593  -1.232  0.00  0.00    +0.040 C 
ATOM     31  C   LIG    1       -0.013   1.086   0.008  0.00  0.00    +0.310 C 
ENDBRANCH  21  31
ENDBRANCH  20  23
ENDBRANCH   1  20
TORSDOF 8
