REMARK  Name = ZINCrg00000SjSL7.0
REMARK                            x       y       z     vdW  Elec       q    Type
REMARK                         _______ _______ _______ _____ _____    ______ ____
ROOT
ATOM      1  C   LIG    1        3.500   3.225   0.419  0.00  0.00    +0.170 C 
ATOM      2  C   LIG    1        3.617   1.882  -0.317  0.00  0.00    +0.280 C 
ATOM      3  N   LIG    1        2.404   1.102  -0.015  0.00  0.00    -0.550 N 
ATOM      4  C   LIG    1        1.174   1.781  -0.020  0.00  0.00    +0.070 A 
ATOM      5  C   LIG    1       -0.013   1.067  -0.025  0.00  0.00    +0.050 A 
ATOM      6  C   LIG    1       -1.222   1.740  -0.032  0.00  0.00    +0.000 A 
ATOM      7  C   LIG    1       -1.245   3.122  -0.023  0.00  0.00    +0.030 A 
ATOM      8  C   LIG    1       -0.063   3.839  -0.018  0.00  0.00    +0.020 A 
ATOM      9  C   LIG    1        1.153   3.174  -0.018  0.00  0.00    +0.100 A 
ATOM     10  C   LIG    1        2.472  -0.216   0.257  0.00  0.00    +0.520 C 
ATOM     11  O   LIG    1        1.477  -0.816   0.605  0.00  0.00    -0.480 OA
ATOM     12  O   LIG    1        2.310   3.886  -0.017  0.00  0.00    -0.280 OA
ENDROOT
BRANCH   1  16
ATOM     13  C   LIG    1        7.093   4.527   0.194  0.00  0.00    +0.310 C 
ATOM     14  N   LIG    1        5.927   3.695   0.502  0.00  0.00    -0.730 N 
ATOM     15  H   LIG    1        6.039   2.867   0.994  0.00  0.00    +0.400 HD
ATOM     16  C   LIG    1        4.699   4.081   0.101  0.00  0.00    +0.520 C 
ATOM     17  O   LIG    1        4.559   5.116  -0.514  0.00  0.00    -0.500 OA
ENDBRANCH   1  16
BRANCH  10  18
ATOM     18  C   LIG    1        3.785  -0.945   0.128  0.00  0.00    +0.270 C 
BRANCH  18  19
ATOM     19  O   LIG    1        3.574  -2.364   0.352  0.00  0.00    -0.330 OA
BRANCH  19  20
ATOM     20  C   LIG    1        4.656  -3.163   0.272  0.00  0.00    +0.520 C 
ATOM     21  O   LIG    1        5.746  -2.688   0.021  0.00  0.00    -0.500 OA
BRANCH  20  22
ATOM     22  C   LIG    1        4.518  -4.616   0.488  0.00  0.00    -0.140 A 
ATOM     23  C   LIG    1        3.266  -5.164   0.782  0.00  0.00    +0.110 A 
ATOM     24  C   LIG    1        3.140  -6.521   0.978  0.00  0.00    -0.020 A 
ATOM     25  C   LIG    1        4.258  -7.344   0.895  0.00  0.00    +0.150 A 
ATOM     26  C   LIG    1        5.505  -6.802   0.608  0.00  0.00    -0.020 A 
ATOM     27  C   LIG    1        5.639  -5.447   0.406  0.00  0.00    +0.110 A 
BRANCH  25  28
ATOM     28  O   LIG    1        4.130  -8.680   1.095  0.00  0.00    -0.500 OA
ATOM     29  H   LIG    1        4.242  -8.953   2.016  0.00  0.00    +0.400 HD
ENDBRANCH  25  28
ENDBRANCH  20  22
ENDBRANCH  19  20
ENDBRANCH  18  19
ENDBRANCH  10  18
TORSDOF 6
