REMARK  Name = ZINCpk00000y6wQk.0
REMARK                            x       y       z     vdW  Elec       q    Type
REMARK                         _______ _______ _______ _____ _____    ______ ____
ROOT
ATOM      1  C   LIG    1       -1.272  -4.377  -2.685  0.00  0.00    -0.020 C 
ATOM      2  C   LIG    1       -1.449  -5.713  -3.416  0.00  0.00    +0.040 C 
ATOM      3  C   LIG    1       -0.668  -6.788  -2.656  0.00  0.00    +0.070 C 
ATOM      4  C   LIG    1        0.725  -6.303  -2.372  0.00  0.00    +0.510 C 
ATOM      5  N   LIG    1        1.083  -5.019  -2.428  0.00  0.00    -0.600 N 
ATOM      6  C   LIG    1        2.463  -4.676  -2.078  0.00  0.00    +0.290 C 
ATOM      7  O   LIG    1        1.568  -7.122  -2.075  0.00  0.00    -0.550 OA
ATOM      8  C   LIG    1        0.187  -3.937  -2.815  0.00  0.00    +0.320 C 
ENDROOT
BRANCH   8   9
ATOM      9  C   LIG    1        0.429  -2.747  -1.924  0.00  0.00    -0.260 A 
ATOM     10  C   LIG    1        0.442  -1.450  -2.312  0.00  0.00    +0.260 A 
ATOM     11  N   LIG    1        0.697  -0.697  -1.222  0.00  0.00    -0.370 N 
ATOM     12  N   LIG    1        0.836  -1.558  -0.126  0.00  0.00    -0.290 NA
ATOM     13  C   LIG    1        0.802   0.764  -1.190  0.00  0.00    +0.360 C 
ATOM     14  C   LIG    1        0.675  -2.786  -0.547  0.00  0.00    +0.250 A 
ENDBRANCH   8   9
BRANCH   1  15
ATOM     15  C   LIG    1       -2.184  -3.323  -3.314  0.00  0.00    +0.290 C 
BRANCH  15  17
ATOM     16  C   LIG    1       -4.572  -2.899  -3.551  0.00  0.00    +0.570 C 
ATOM     17  N   LIG    1       -3.584  -3.688  -3.083  0.00  0.00    -0.720 N 
ATOM     18  H   LIG    1       -3.800  -4.497  -2.593  0.00  0.00    +0.400 HD
ATOM     19  O   LIG    1       -4.302  -1.886  -4.165  0.00  0.00    -0.530 OA
BRANCH  16  26
ATOM     20  C   LIG    1       -6.716  -1.072  -4.338  0.00  0.00    +0.130 C 
ATOM     21  C   LIG    1       -7.018  -2.399  -3.691  0.00  0.00    +0.020 A 
ATOM     22  C   LIG    1       -8.323  -2.791  -3.451  0.00  0.00    -0.040 A 
ATOM     23  C   LIG    1       -8.563  -4.016  -2.855  0.00  0.00    +0.290 A 
ATOM     24  N   LIG    1       -7.570  -4.815  -2.514  0.00  0.00    -0.490 NA
ATOM     25  C   LIG    1       -6.311  -4.489  -2.727  0.00  0.00    +0.300 A 
ATOM     26  C   LIG    1       -5.985  -3.268  -3.318  0.00  0.00    -0.200 A 
ENDBRANCH  16  26
ENDBRANCH  15  17
ENDBRANCH   1  15
TORSDOF 4
