REMARK  Name = ZINCrH000004ovpY.0
REMARK                            x       y       z     vdW  Elec       q    Type
REMARK                         _______ _______ _______ _____ _____    ______ ____
ROOT
ATOM      1  C   LIG    1       -0.438   1.175   1.203  0.00  0.00    +0.200 A 
ATOM      2  N   LIG    1       -1.078   0.221   1.833  0.00  0.00    -0.450 NA
ATOM      3  C   LIG    1       -1.464   0.759   3.012  0.00  0.00    +0.200 A 
ATOM      4  N   LIG    1       -1.039   1.996   3.029  0.00  0.00    -0.360 NA
ATOM      5  O   LIG    1       -0.445   2.247   2.002  0.00  0.00    +0.090 OA
ENDROOT
BRANCH   3   6
ATOM      6  C   LIG    1       -2.226   0.074   4.085  0.00  0.00    -0.010 A 
ATOM      7  C   LIG    1       -2.614  -1.254   3.928  0.00  0.00    +0.130 A 
ATOM      8  C   LIG    1       -3.323  -1.887   4.930  0.00  0.00    +0.050 A 
ATOM      9  C   LIG    1       -3.646  -1.204   6.089  0.00  0.00    +0.120 A 
ATOM     10  C   LIG    1       -3.263   0.116   6.250  0.00  0.00    -0.040 A 
ATOM     11  C   LIG    1       -2.550   0.756   5.256  0.00  0.00    +0.140 A 
BRANCH  10  12
ATOM     12  N   LIG    1       -3.613   0.840   7.492  0.00  0.00    +0.030 N 
ATOM     13  O   LIG    1       -3.276   2.002   7.635  0.00  0.00    -0.150 OA
ATOM     14  O   LIG    1       -4.238   0.275   8.371  0.00  0.00    -0.150 OA
ENDBRANCH  10  12
ENDBRANCH   3   6
BRANCH   1  15
ATOM     15  C   LIG    1        0.193   1.080  -0.162  0.00  0.00    +0.350 C 
BRANCH  15  16
ATOM     16  N   LIG    1       -0.832   1.295  -1.191  0.00  0.00    -0.480 NA
BRANCH  16  17
ATOM     17  C   LIG    1       -1.145   2.723  -1.334  0.00  0.00    +0.150 C 
ATOM     18  C   LIG    1       -0.435   3.699  -0.392  0.00  0.00    -0.020 C 
ATOM     19  C   LIG    1       -1.922   3.393  -0.199  0.00  0.00    +0.020 C 
ENDBRANCH  16  17
BRANCH  16  21
ATOM     20  C   LIG    1       -0.197  -0.789  -2.310  0.00  0.00    +0.060 C 
ATOM     21  C   LIG    1       -0.417   0.716  -2.476  0.00  0.00    +0.210 C 
BRANCH  21  22
ATOM     22  C   LIG    1       -1.492   0.955  -3.505  0.00  0.00    +0.130 A 
ATOM     23  C   LIG    1       -1.159   0.987  -4.846  0.00  0.00    -0.040 A 
ATOM     24  C   LIG    1       -2.155   1.208  -5.785  0.00  0.00    +0.070 A 
ATOM     25  C   LIG    1       -3.455   1.389  -5.338  0.00  0.00    -0.040 A 
ATOM     26  C   LIG    1       -3.712   1.344  -3.980  0.00  0.00    +0.260 A 
ATOM     27  N   LIG    1       -2.741   1.126  -3.116  0.00  0.00    -0.450 NA
ENDBRANCH  21  22
ENDBRANCH  16  21
ENDBRANCH  15  16
ENDBRANCH   1  15
TORSDOF 7
