REMARK  Name = ZINCpk00000xHZHd.1
REMARK                            x       y       z     vdW  Elec       q    Type
REMARK                         _______ _______ _______ _____ _____    ______ ____
ROOT
ATOM      1  N   LIG    1        2.904   0.816  -1.406  0.00  0.00    -0.530 NA
ATOM      2  C   LIG    1        1.982  -0.107  -2.084  0.00  0.00    +0.180 C 
ATOM      3  C   LIG    1        2.402  -0.259  -3.548  0.00  0.00    +0.180 C 
ATOM      4  N   LIG    1        3.782  -0.759  -3.610  0.00  0.00    -0.530 NA
ATOM      5  C   LIG    1        4.704   0.164  -2.933  0.00  0.00    +0.200 C 
ATOM      6  C   LIG    1        4.285   0.317  -1.468  0.00  0.00    +0.190 C 
ENDROOT
BRANCH   1   7
ATOM      7  C   LIG    1        2.490   1.047  -0.016  0.00  0.00    +0.220 C 
BRANCH   7  13
ATOM      8  C   LIG    1       -2.514   0.980   0.019  0.00  0.00    +0.080 C 
ATOM      9  C   LIG    1       -1.219   1.751   0.017  0.00  0.00    -0.090 A 
ATOM     10  C   LIG    1       -1.238   3.133   0.030  0.00  0.00    +0.000 A 
ATOM     11  C   LIG    1       -0.050   3.840   0.023  0.00  0.00    +0.000 A 
ATOM     12  C   LIG    1        1.156   3.166   0.008  0.00  0.00    +0.020 A 
ATOM     13  C   LIG    1        1.175   1.783   0.000  0.00  0.00    -0.080 A 
ATOM     14  C   LIG    1       -0.013   1.076   0.008  0.00  0.00    +0.000 A 
ENDBRANCH   7  13
ENDBRANCH   1   7
BRANCH   4  15
ATOM     15  C   LIG    1        4.196  -0.990  -5.000  0.00  0.00    +0.300 C 
BRANCH  15  16
ATOM     16  C   LIG    1        3.109  -1.734  -5.731  0.00  0.00    +0.080 A 
ATOM     17  C   LIG    1        2.457  -1.132  -6.750  0.00  0.00    -0.050 A 
ATOM     18  C   LIG    1        1.436  -1.850  -7.432  0.00  0.00    +0.380 A 
ATOM     19  C   LIG    1        1.143  -3.168  -7.001  0.00  0.00    -0.140 A 
ATOM     20  C   LIG    1        1.840  -3.689  -5.971  0.00  0.00    +0.150 A 
ATOM     21  O   LIG    1        0.826  -1.343  -8.361  0.00  0.00    -0.490 OA
ATOM     22  O   LIG    1        2.797  -2.983  -5.358  0.00  0.00    -0.170 OA
BRANCH  17  23
ATOM     23  O   LIG    1        2.776   0.138  -7.120  0.00  0.00    -0.460 OA
ATOM     24  H   LIG    1        2.251   0.476  -7.859  0.00  0.00    +0.410 HD
ENDBRANCH  17  23
BRANCH  20  25
ATOM     25  C   LIG    1        1.537  -5.090  -5.504  0.00  0.00    +0.300 C 
BRANCH  25  26
ATOM     26  O   LIG    1        2.671  -5.927  -5.740  0.00  0.00    -0.560 OA
ATOM     27  H   LIG    1        2.546  -6.845  -5.463  0.00  0.00    +0.400 HD
ENDBRANCH  25  26
ENDBRANCH  20  25
ENDBRANCH  15  16
ENDBRANCH   4  15
TORSDOF 7
