REMARK  Name = ZINCrD0000072REm.0
REMARK                            x       y       z     vdW  Elec       q    Type
REMARK                         _______ _______ _______ _____ _____    ______ ____
ROOT
ATOM      1  C   LIG    1        0.002  -0.004   0.002  0.00  0.00    +0.440 C 
ATOM      2  O   LIG    1       -1.041  -0.625   0.008  0.00  0.00    -0.430 OA
ENDROOT
BRANCH   1   7
ATOM      3  C   LIG    1       -0.698   3.545   0.026  0.00  0.00    -0.220 A 
ATOM      4  C   LIG    1        0.686   3.516   0.014  0.00  0.00    +0.140 A 
ATOM      5  N   LIG    1        1.089   2.237   0.004  0.00  0.00    -0.510 N 
ATOM      6  H   LIG    1        2.012   1.939  -0.007  0.00  0.00    +0.430 HD
ATOM      7  C   LIG    1       -0.017   1.411   0.010  0.00  0.00    -0.090 A 
ATOM      8  C   LIG    1        1.589   4.722   0.012  0.00  0.00    +0.160 C 
ATOM      9  C   LIG    1       -1.143   2.206   0.019  0.00  0.00    +0.000 A 
ATOM     10  C   LIG    1       -2.575   1.735   0.023  0.00  0.00    +0.140 C 
BRANCH   3  11
ATOM     11  C   LIG    1       -1.547   4.748   0.040  0.00  0.00    +0.550 C 
ATOM     12  O   LIG    1       -1.908   5.250  -1.007  0.00  0.00    -0.490 OA
BRANCH  11  14
ATOM     13  C   LIG    1       -2.761   6.478   1.151  0.00  0.00    +0.260 C 
ATOM     14  O   LIG    1       -1.925   5.293   1.213  0.00  0.00    -0.350 OA
ENDBRANCH  11  14
ENDBRANCH   3  11
ENDBRANCH   1   7
BRANCH   1  15
ATOM     15  C   LIG    1        1.317  -0.740  -0.014  0.00  0.00    -0.020 C 
ATOM     16  C   LIG    1        1.811  -0.871  -1.456  0.00  0.00    +0.090 C 
BRANCH  15  17
ATOM     17  S   LIG    1        1.095  -2.392   0.702  0.00  0.00    +0.090 S 
BRANCH  17  18
ATOM     18  C   LIG    1        2.736  -3.033   0.736  0.00  0.00    +0.200 A 
ATOM     19  N   LIG    1        3.083  -4.219   1.179  0.00  0.00    -0.280 NA
ATOM     20  N   LIG    1        4.476  -4.318   1.023  0.00  0.00    -0.320 N 
ATOM     21  C   LIG    1        4.882  -3.153   0.483  0.00  0.00    +0.500 A 
ATOM     22  N   LIG    1        3.830  -2.394   0.310  0.00  0.00    -0.530 NA
BRANCH  20  23
ATOM     23  C   LIG    1        5.282  -5.412   1.363  0.00  0.00    +0.140 A 
ATOM     24  C   LIG    1        6.652  -5.361   1.143  0.00  0.00    +0.000 A 
ATOM     25  C   LIG    1        7.446  -6.438   1.485  0.00  0.00    +0.050 A 
ATOM     26  C   LIG    1        6.876  -7.572   2.035  0.00  0.00    +0.010 A 
ATOM     27  C   LIG    1        5.511  -7.628   2.250  0.00  0.00    +0.040 A 
ATOM     28  C   LIG    1        4.713  -6.551   1.916  0.00  0.00    +0.030 A 
ENDBRANCH  20  23
ENDBRANCH  17  18
ENDBRANCH  15  17
ENDBRANCH   1  15
TORSDOF 7
