REMARK  Name = ZINCrH00000tj1iq.0
REMARK                            x       y       z     vdW  Elec       q    Type
REMARK                         _______ _______ _______ _____ _____    ______ ____
ROOT
ATOM      1  O   LIG    1        0.726   0.575  -2.534  0.00  0.00    -0.510 OA
ATOM      2  C   LIG    1       -0.268   1.258  -2.409  0.00  0.00    +0.520 C 
ATOM      3  N   LIG    1       -0.721   1.571  -1.179  0.00  0.00    -0.720 N 
ATOM      4  H   LIG    1       -1.516   2.118  -1.079  0.00  0.00    +0.400 HD
ENDROOT
BRANCH   3   5
ATOM      5  C   LIG    1       -0.013   1.086   0.008  0.00  0.00    +0.320 C 
BRANCH   5   6
ATOM      6  C   LIG    1       -0.718   1.572   1.248  0.00  0.00    -0.110 A 
ATOM      7  C   LIG    1       -0.360   2.779   1.819  0.00  0.00    +0.030 A 
ATOM      8  C   LIG    1       -1.010   3.227   2.953  0.00  0.00    +0.030 A 
ATOM      9  C   LIG    1       -2.012   2.463   3.523  0.00  0.00    -0.070 A 
ATOM     10  C   LIG    1       -2.366   1.254   2.955  0.00  0.00    +0.000 A 
ATOM     11  C   LIG    1       -1.719   0.808   1.818  0.00  0.00    +0.030 A 
BRANCH   9  12
ATOM     12  C   LIG    1       -2.717   2.949   4.763  0.00  0.00    +0.230 C 
BRANCH  12  13
ATOM     13  N   LIG    1       -2.006   2.462   5.953  0.00  0.00    -0.530 NA
ATOM     14  C   LIG    1       -2.096   0.998   6.058  0.00  0.00    +0.140 C 
ATOM     15  C   LIG    1       -1.294   0.529   7.275  0.00  0.00    +0.220 C 
ATOM     16  O   LIG    1       -1.785   1.187   8.446  0.00  0.00    -0.390 OA
ATOM     17  C   LIG    1       -1.712   2.614   8.378  0.00  0.00    +0.220 C 
ATOM     18  C   LIG    1       -2.518   3.104   7.172  0.00  0.00    +0.150 C 
ENDBRANCH  12  13
ENDBRANCH   9  12
ENDBRANCH   5   6
ENDBRANCH   3   5
BRANCH   2  19
ATOM     19  C   LIG    1       -0.997   1.758  -3.630  0.00  0.00    +0.240 C 
BRANCH  19  20
ATOM     20  O   LIG    1       -0.328   1.297  -4.806  0.00  0.00    -0.270 OA
BRANCH  20  21
ATOM     21  C   LIG    1       -0.861   1.661  -6.002  0.00  0.00    +0.170 A 
ATOM     22  C   LIG    1       -2.007   2.441  -6.043  0.00  0.00    -0.050 A 
ATOM     23  C   LIG    1       -2.544   2.815  -7.260  0.00  0.00    +0.110 A 
ATOM     24  C   LIG    1       -1.946   2.403  -8.437  0.00  0.00    -0.130 A 
ATOM     25  C   LIG    1       -0.806   1.620  -8.399  0.00  0.00    +0.130 A 
ATOM     26 BR   LIG    1       -2.688   2.912 -10.101  0.00  0.00    -0.030 Br
ATOM     27  C   LIG    1       -0.262   1.249  -7.184  0.00  0.00    -0.120 A 
ATOM     28 BR   LIG    1        1.296   0.178  -7.133  0.00  0.00    -0.010 Br
ENDBRANCH  20  21
ENDBRANCH  19  20
ENDBRANCH   2  19
TORSDOF 7
