REMARK  Name = ZINCpe000000W2yi.0
REMARK                            x       y       z     vdW  Elec       q    Type
REMARK                         _______ _______ _______ _____ _____    ______ ____
ROOT
ATOM      1  C   LIG    1       -6.527   3.999   0.152  0.00  0.00    +0.520 C 
ATOM      2  N   LIG    1       -5.207   4.270   0.108  0.00  0.00    -0.620 N 
ATOM      3  C   LIG    1       -4.503   4.387  -1.178  0.00  0.00    +0.300 C 
ATOM      4  C   LIG    1       -3.263   3.487  -1.137  0.00  0.00    +0.190 C 
ATOM      5  N   LIG    1       -2.458   3.821   0.045  0.00  0.00    -0.500 N 
ATOM      6  C   LIG    1       -3.196   3.554   1.286  0.00  0.00    +0.190 C 
ATOM      7  C   LIG    1       -4.433   4.456   1.345  0.00  0.00    +0.280 C 
ATOM      8  O   LIG    1       -7.149   3.848  -0.878  0.00  0.00    -0.520 OA
ENDROOT
BRANCH   5   9
ATOM      9  C   LIG    1       -1.238   3.137   0.030  0.00  0.00    +0.050 A 
ATOM     10  C   LIG    1       -1.219   1.749   0.017  0.00  0.00    +0.010 A 
ATOM     11  C   LIG    1       -0.013   1.076   0.008  0.00  0.00    +0.010 A 
ATOM     12  C   LIG    1        1.176   1.782   0.000  0.00  0.00    +0.050 A 
ATOM     13  C   LIG    1        1.162   3.165   0.008  0.00  0.00    -0.010 A 
ATOM     14  C   LIG    1       -0.041   3.846   0.023  0.00  0.00    +0.130 A 
ATOM     15  F   LIG    1       -0.054   5.197   0.030  0.00  0.00    -0.130 F 
ENDBRANCH   5   9
BRANCH   1  16
ATOM     16  C   LIG    1       -7.229   3.883   1.480  0.00  0.00    +0.220 C 
BRANCH  16  19
ATOM     17  C   LIG    1      -10.893   3.432   2.225  0.00  0.00    +0.180 C 
ATOM     18  C   LIG    1       -9.412   3.691   2.512  0.00  0.00    +0.170 C 
ATOM     19  N   LIG    1       -8.650   3.585   1.259  0.00  0.00    -0.520 NA
ATOM     20  C   LIG    1       -8.821   2.255   0.656  0.00  0.00    +0.160 C 
ATOM     21  C   LIG    1      -10.309   2.010   0.388  0.00  0.00    +0.230 C 
ATOM     22  O   LIG    1      -11.037   2.148   1.611  0.00  0.00    -0.370 OA
BRANCH  17  23
ATOM     23  C   LIG    1      -11.681   3.461   3.537  0.00  0.00    +0.200 C 
BRANCH  23  25
ATOM     24  C   LIG    1      -13.906   3.347   4.421  0.00  0.00    +0.200 C 
ATOM     25  O   LIG    1      -13.076   3.331   3.257  0.00  0.00    -0.380 OA
ENDBRANCH  23  25
ENDBRANCH  17  23
ENDBRANCH  16  19
ENDBRANCH   1  16
TORSDOF 5
