REMARK  Name = ZINCnE000001Tvio.0
REMARK                            x       y       z     vdW  Elec       q    Type
REMARK                         _______ _______ _______ _____ _____    ______ ____
ROOT
ATOM      1  C   LIG    1       -2.578   3.831   0.038  0.00  0.00    +0.300 C 
ATOM      2  C   LIG    1       -2.536   5.295   0.435  0.00  0.00    +0.010 C 
ATOM      3  C   LIG    1       -1.347   6.017  -0.174  0.00  0.00    +0.120 C 
ATOM      4  O   LIG    1       -0.126   5.346   0.083  0.00  0.00    -0.310 OA
ATOM      5  C   LIG    1       -0.064   3.996   0.019  0.00  0.00    +0.160 A 
ATOM      6  C   LIG    1        1.187   3.388  -0.023  0.00  0.00    -0.030 A 
ATOM      7  C   LIG    1        1.290   2.013  -0.072  0.00  0.00    +0.050 A 
ATOM      8  C   LIG    1        0.147   1.236  -0.078  0.00  0.00    -0.040 A 
ATOM      9  C   LIG    1       -1.096   1.836  -0.045  0.00  0.00    +0.060 A 
ATOM     10  C   LIG    1       -1.273   7.452   0.389  0.00  0.00    +0.050 C 
ATOM     11  C   LIG    1       -0.827   8.312  -0.819  0.00  0.00    +0.020 C 
ATOM     12  C   LIG    1       -1.592   7.665  -2.000  0.00  0.00    +0.020 C 
ATOM     13  C   LIG    1       -1.551   6.154  -1.695  0.00  0.00    +0.010 C 
ATOM     14  C   LIG    1       -1.208   3.216   0.006  0.00  0.00    -0.170 A 
ENDROOT
BRANCH   1  17
ATOM     15  O   LIG    1       -5.232   3.758  -0.434  0.00  0.00    -0.630 OA
ATOM     16  C   LIG    1       -4.524   3.687  -1.421  0.00  0.00    +0.650 C 
ATOM     17  N   LIG    1       -3.183   3.715  -1.291  0.00  0.00    -0.730 N 
ATOM     18  H   LIG    1       -2.618   3.659  -2.077  0.00  0.00    +0.390 HD
ATOM     19  N   LIG    1       -5.081   3.581  -2.643  0.00  0.00    -0.670 NA
BRANCH  19  20
ATOM     20  C   LIG    1       -6.469   3.551  -2.778  0.00  0.00    +0.180 A 
ATOM     21  C   LIG    1       -7.193   3.455  -3.924  0.00  0.00    +0.010 A 
ATOM     22  N   LIG    1       -8.496   3.445  -3.770  0.00  0.00    -0.210 NA
ATOM     23  N   LIG    1       -8.979   3.535  -2.586  0.00  0.00    -0.330 NA
ATOM     24  S   LIG    1       -7.653   3.638  -1.528  0.00  0.00    +0.110 S 
ENDBRANCH  19  20
ENDBRANCH   1  17
TORSDOF 2
