REMARK  Name = ZINCzw00000007w4.0
REMARK                            x       y       z     vdW  Elec       q    Type
REMARK                         _______ _______ _______ _____ _____    ______ ____
ROOT
ATOM      1  S   LIG    1        1.038   3.522   2.342  0.00  0.00    +2.700 S 
ATOM      2  O   LIG    1       -0.045   3.201   1.479  0.00  0.00    -0.950 OA
ATOM      3  O   LIG    1        1.646   4.806   2.381  0.00  0.00    -0.950 OA
ENDROOT
BRANCH   1   4
ATOM      4  C   LIG    1        0.485   3.183   3.980  0.00  0.00    -0.660 A 
ATOM      5  C   LIG    1        1.079   3.819   5.054  0.00  0.00    +0.130 A 
ATOM      6  C   LIG    1        0.649   3.557   6.340  0.00  0.00    +0.000 A 
ATOM      7  C   LIG    1       -0.382   2.652   6.555  0.00  0.00    +0.110 A 
ATOM      8  C   LIG    1       -0.978   2.012   5.473  0.00  0.00    +0.110 A 
ATOM      9  F   LIG    1       -1.982   1.131   5.677  0.00  0.00    -0.120 F 
ATOM     10  C   LIG    1       -0.546   2.284   4.189  0.00  0.00    +0.110 A 
BRANCH   7  11
ATOM     11  N   LIG    1       -0.820   2.384   7.856  0.00  0.00    -0.500 N 
ATOM     12  C   LIG    1        0.274   1.837   8.679  0.00  0.00    +0.210 C 
ATOM     13  C   LIG    1        0.427   2.758   9.908  0.00  0.00    -0.010 C 
ATOM     14  C   LIG    1       -0.960   3.448  10.002  0.00  0.00    +0.160 C 
ATOM     15  C   LIG    1       -1.331   3.609   8.506  0.00  0.00    +0.220 C 
BRANCH  14  16
ATOM     16  O   LIG    1       -0.857   4.720  10.644  0.00  0.00    -0.370 OA
BRANCH  16  17
ATOM     17  C   LIG    1       -1.052   4.674  12.059  0.00  0.00    +0.190 C 
BRANCH  17  18
ATOM     18  C   LIG    1       -0.919   6.084  12.639  0.00  0.00    +0.190 C 
BRANCH  18  19
ATOM     19  O   LIG    1       -1.976   6.905  12.138  0.00  0.00    -0.570 OA
ATOM     20  H   LIG    1       -1.955   7.815  12.464  0.00  0.00    +0.380 HD
ENDBRANCH  18  19
ENDBRANCH  17  18
ENDBRANCH  16  17
ENDBRANCH  14  16
ENDBRANCH   7  11
ENDBRANCH   1   4
BRANCH   1  21
ATOM     21  N   LIG    1        2.245   2.443   1.998  0.00  0.00    -1.110 NA
ATOM     22  H   LIG    1        3.150   2.759   1.846  0.00  0.00    +0.420 HD
BRANCH  21  23
ATOM     23  C   LIG    1        1.947   1.011   1.919  0.00  0.00    +0.330 C 
BRANCH  23  27
ATOM     24  C   LIG    1        5.183  -1.014  -0.004  0.00  0.00    +0.120 A 
ATOM     25  C   LIG    1        5.184  -0.854   1.374  0.00  0.00    +0.000 A 
ATOM     26  C   LIG    1        4.137  -0.199   1.993  0.00  0.00    +0.080 A 
ATOM     27  C   LIG    1        3.088   0.297   1.240  0.00  0.00    -0.120 A 
ATOM     28  C   LIG    1        3.082   0.134  -0.133  0.00  0.00    +0.080 A 
ATOM     29  C   LIG    1        4.129  -0.515  -0.757  0.00  0.00    -0.070 A 
BRANCH  24  30
ATOM     30  O   LIG    1        6.211  -1.658  -0.616  0.00  0.00    -0.330 OA
BRANCH  30  31
ATOM     31  C   LIG    1        6.143  -1.786  -2.038  0.00  0.00    +0.230 C 
BRANCH  31  32
ATOM     32  C   LIG    1        7.379  -2.534  -2.542  0.00  0.00    +0.280 C 
BRANCH  32  33
ATOM     33  N   LIG    1        7.363  -3.909  -2.027  0.00  0.00    -0.390 N 
ATOM     34  H   LIG    1        7.287  -3.891  -1.021  0.00  0.00    +0.430 HD
BRANCH  33  36
ATOM     35  C   LIG    1        6.264  -4.551  -4.119  0.00  0.00    +0.080 C 
ATOM     36  C   LIG    1        6.215  -4.631  -2.592  0.00  0.00    +0.240 C 
ENDBRANCH  33  36
BRANCH  33  37
ATOM     37  C   LIG    1        8.607  -4.590  -2.412  0.00  0.00    +0.240 C 
ATOM     38  C   LIG    1        8.647  -5.979  -1.770  0.00  0.00    +0.080 C 
ENDBRANCH  33  37
ENDBRANCH  32  33
ENDBRANCH  31  32
ENDBRANCH  30  31
ENDBRANCH  24  30
ENDBRANCH  23  27
ENDBRANCH  21  23
ENDBRANCH   1  21
TORSDOF 15
