REMARK  Name = ZINCrg00000c2vTQ.0
REMARK                            x       y       z     vdW  Elec       q    Type
REMARK                         _______ _______ _______ _____ _____    ______ ____
ROOT
ATOM      1  C   LIG    1        5.802  -0.601   1.899  0.00  0.00    +0.580 C 
ATOM      2  N   LIG    1        4.653   0.083   1.728  0.00  0.00    -0.610 N 
ATOM      3  C   LIG    1        4.676   1.518   1.417  0.00  0.00    +0.280 C 
ATOM      4  C   LIG    1        3.800   2.257   2.434  0.00  0.00    +0.040 C 
ATOM      5  C   LIG    1        2.401   1.638   2.442  0.00  0.00    +0.110 C 
ATOM      6  C   LIG    1        2.494   0.169   2.862  0.00  0.00    +0.030 C 
ATOM      7  F   LIG    1        1.846   1.722   1.160  0.00  0.00    -0.200 F 
ATOM      8  C   LIG    1        3.354  -0.594   1.849  0.00  0.00    +0.290 C 
ATOM      9  O   LIG    1        5.770  -1.767   2.243  0.00  0.00    -0.530 OA
ENDROOT
BRANCH   1  13
ATOM     10  C   LIG    1        9.459   1.330   1.184  0.00  0.00    +0.430 A 
ATOM     11  C   LIG    1        9.379   0.435   2.249  0.00  0.00    -0.100 A 
ATOM     12  C   LIG    1        8.195  -0.206   2.500  0.00  0.00    +0.160 A 
ATOM     13  C   LIG    1        7.098   0.065   1.668  0.00  0.00    -0.250 A 
ATOM     14  C   LIG    1        7.252   0.970   0.616  0.00  0.00    +0.350 A 
ATOM     15  N   LIG    1        8.407   1.568   0.412  0.00  0.00    -0.550 NA
BRANCH  10  16
ATOM     16  N   LIG    1       10.655   1.980   0.927  0.00  0.00    -0.840 N 
ATOM     17  H   LIG    1       10.718   2.604   0.187  0.00  0.00    +0.410 HD
ATOM     18  H   LIG    1       11.429   1.810   1.487  0.00  0.00    +0.410 HD
ENDBRANCH  10  16
ENDBRANCH   1  13
BRANCH   5  19
ATOM     19  C   LIG    1        1.514   2.395   3.432  0.00  0.00    +0.270 C 
BRANCH  19  20
ATOM     20  N   LIG    1        0.174   1.802   3.440  0.00  0.00    -0.730 N 
ATOM     21  H   LIG    1       -0.025   1.045   2.868  0.00  0.00    +0.400 HD
ATOM     22  C   LIG    1       -0.784   2.313   4.238  0.00  0.00    +0.520 C 
ATOM     23  O   LIG    1       -0.536   3.261   4.953  0.00  0.00    -0.540 OA
BRANCH  22  24
ATOM     24  C   LIG    1       -2.164   1.707   4.242  0.00  0.00    +0.080 C 
BRANCH  24  25
ATOM     25  C   LIG    1       -3.053   2.469   5.227  0.00  0.00    +0.170 C 
BRANCH  25  26
ATOM     26  C   LIG    1       -4.433   1.863   5.231  0.00  0.00    +0.210 A 
ATOM     27  N   LIG    1       -5.193   1.697   4.184  0.00  0.00    -0.490 NA
ATOM     28  C   LIG    1       -6.348   1.127   4.561  0.00  0.00    +0.140 A 
ATOM     29  C   LIG    1       -6.304   0.940   5.894  0.00  0.00    +0.120 A 
ATOM     30  N   LIG    1       -5.089   1.407   6.319  0.00  0.00    -0.570 N 
ATOM     31  H   LIG    1       -4.761   1.409   7.232  0.00  0.00    +0.420 HD
ENDBRANCH  25  26
ENDBRANCH  24  25
ENDBRANCH  22  24
ENDBRANCH  19  20
ENDBRANCH   5  19
TORSDOF 7
