REMARK  Name = ZINCrD00000F5Lk7.0
REMARK                            x       y       z     vdW  Elec       q    Type
REMARK                         _______ _______ _______ _____ _____    ______ ____
ROOT
ATOM      1  C   LIG    1        4.425   6.248   0.941  0.00  0.00    +0.420 C 
ATOM      2  O   LIG    1        4.521   5.746  -0.162  0.00  0.00    -0.460 OA
ENDROOT
BRANCH   1   3
ATOM      3  C   LIG    1        4.483   7.641   1.085  0.00  0.00    -0.190 C 
ATOM      4  C   LIG    1        5.548   8.329   0.605  0.00  0.00    +0.240 C 
ATOM      5  N   LIG    1        6.691   7.798   0.095  0.00  0.00    -0.530 N 
ATOM      6  C   LIG    1        7.588   8.784  -0.311  0.00  0.00    +0.150 A 
ATOM      7  C   LIG    1        8.857   8.680  -0.879  0.00  0.00    -0.030 A 
ATOM      8  C   LIG    1        9.566   9.819  -1.203  0.00  0.00    +0.050 A 
ATOM      9  C   LIG    1        9.026  11.069  -0.968  0.00  0.00    -0.010 A 
ATOM     10  C   LIG    1        7.767  11.181  -0.404  0.00  0.00    +0.070 A 
ATOM     11  C   LIG    1        7.056  10.047  -0.080  0.00  0.00    -0.140 A 
ATOM     12  C   LIG    1        6.950   6.360  -0.014  0.00  0.00    +0.320 C 
ATOM     13  C   LIG    1        5.688   9.834   0.526  0.00  0.00    +0.000 C 
ATOM     14  C   LIG    1        5.623  10.451   1.925  0.00  0.00    +0.070 C 
ATOM     15  C   LIG    1        4.602  10.428  -0.373  0.00  0.00    +0.070 C 
ENDBRANCH   1   3
BRANCH   1  16
ATOM     16  C   LIG    1        4.244   5.372   2.154  0.00  0.00    +0.090 C 
BRANCH  16  17
ATOM     17  S   LIG    1        4.209   3.636   1.645  0.00  0.00    +0.030 S 
BRANCH  17  23
ATOM     18  C   LIG    1        3.513  -1.449   5.489  0.00  0.00    +0.370 C 
ATOM     19  N   LIG    1        3.683  -0.454   4.427  0.00  0.00    -0.380 N 
ATOM     20  N   LIG    1        3.822  -0.727   3.060  0.00  0.00    -0.240 NA
ATOM     21  C   LIG    1        3.954   0.389   2.401  0.00  0.00    +0.310 A 
ATOM     22  C   LIG    1        3.908   1.459   3.320  0.00  0.00    -0.270 A 
ATOM     23  C   LIG    1        3.994   2.861   3.213  0.00  0.00    +0.230 A 
ATOM     24  N   LIG    1        3.908   3.586   4.325  0.00  0.00    -0.560 NA
ATOM     25  C   LIG    1        3.746   3.013   5.504  0.00  0.00    +0.570 A 
ATOM     26  N   LIG    1        3.665   1.709   5.654  0.00  0.00    -0.540 NA
ATOM     27  C   LIG    1        3.735   0.897   4.600  0.00  0.00    +0.350 A 
ENDBRANCH  17  23
ENDBRANCH  16  17
ENDBRANCH   1  16
TORSDOF 4
