REMARK  Name = ZINCqH0000037ubY.0
REMARK                            x       y       z     vdW  Elec       q    Type
REMARK                         _______ _______ _______ _____ _____    ______ ____
ROOT
ATOM      1  C   LIG    1       -0.208   1.602  -2.731  0.00  0.00    +0.540 C 
ATOM      2  N   LIG    1        1.116   1.352  -2.733  0.00  0.00    -0.660 N 
ATOM      3  H   LIG    1        1.626   1.434  -1.913  0.00  0.00    +0.420 HD
ATOM      4  O   LIG    1       -0.862   1.417  -3.736  0.00  0.00    -0.500 OA
ENDROOT
BRANCH   1  15
ATOM      5  C   LIG    1       -2.361   3.601  -2.844  0.00  0.00    +0.100 C 
ATOM      6  C   LIG    1       -1.349   3.556  -1.697  0.00  0.00    +0.160 C 
ATOM      7  O   LIG    1       -1.967   4.013  -0.489  0.00  0.00    -0.300 OA
ATOM      8  C   LIG    1       -1.302   3.758   0.672  0.00  0.00    +0.050 A 
ATOM      9  C   LIG    1       -1.641   4.460   1.818  0.00  0.00    +0.030 A 
ATOM     10  C   LIG    1       -0.979   4.209   3.005  0.00  0.00    +0.030 A 
ATOM     11  C   LIG    1        0.021   3.256   3.054  0.00  0.00    +0.030 A 
ATOM     12  C   LIG    1        0.364   2.553   1.914  0.00  0.00    +0.030 A 
ATOM     13  C   LIG    1       -0.294   2.802   0.719  0.00  0.00    +0.050 A 
ATOM     14  O   LIG    1        0.057   2.104  -0.395  0.00  0.00    -0.310 OA
ATOM     15  C   LIG    1       -0.877   2.112  -1.480  0.00  0.00    +0.160 C 
ENDBRANCH   1  15
BRANCH   2  16
ATOM     16  C   LIG    1        1.754   0.973  -3.919  0.00  0.00    +0.130 A 
ATOM     17  C   LIG    1        1.094   0.169  -4.839  0.00  0.00    +0.030 A 
ATOM     18  C   LIG    1        1.725  -0.198  -6.011  0.00  0.00    +0.030 A 
ATOM     19  C   LIG    1        3.017   0.224  -6.265  0.00  0.00    +0.020 A 
ATOM     20  C   LIG    1        3.679   1.020  -5.348  0.00  0.00    -0.070 A 
ATOM     21  C   LIG    1        3.052   1.396  -4.177  0.00  0.00    +0.010 A 
BRANCH  20  22
ATOM     22  C   LIG    1        5.088   1.478  -5.628  0.00  0.00    +0.220 C 
BRANCH  22  23
ATOM     23  O   LIG    1        6.012   0.521  -5.107  0.00  0.00    -0.380 OA
BRANCH  23  24
ATOM     24  C   LIG    1        7.383   0.861  -5.320  0.00  0.00    +0.190 C 
BRANCH  24  25
ATOM     25  C   LIG    1        8.278  -0.228  -4.724  0.00  0.00    -0.050 C 
ATOM     26  C   LIG    1        9.195   0.168  -3.565  0.00  0.00    +0.020 C 
ATOM     27  C   LIG    1        9.786  -0.105  -4.951  0.00  0.00    +0.030 C 
ENDBRANCH  24  25
ENDBRANCH  23  24
ENDBRANCH  22  23
ENDBRANCH  20  22
ENDBRANCH   2  16
TORSDOF 6
