REMARK  Name = ZINCkj000005jk0J.0
REMARK                            x       y       z     vdW  Elec       q    Type
REMARK                         _______ _______ _______ _____ _____    ______ ____
ROOT
ATOM      1  C   LIG    1       -0.413   3.061   1.550  0.00  0.00    +0.040 C 
ATOM      2  C   LIG    1       -0.783   1.608   1.247  0.00  0.00    +0.020 C 
ATOM      3  C   LIG    1       -0.013   1.086   0.008  0.00  0.00    +0.290 C 
ATOM      4  N   LIG    1       -0.768   1.595  -1.151  0.00  0.00    -0.610 N 
ATOM      5  C   LIG    1       -2.156   1.845  -0.736  0.00  0.00    +0.250 C 
ATOM      6  C   LIG    1       -0.269   1.798  -2.386  0.00  0.00    +0.690 C 
ATOM      7  O   LIG    1       -0.989   2.225  -3.273  0.00  0.00    -0.660 OA
ATOM      8  C   LIG    1       -2.256   1.496   0.763  0.00  0.00    -0.020 C 
ENDROOT
BRANCH   6   9
ATOM      9  N   LIG    1        1.013   1.532  -2.639  0.00  0.00    -0.660 NA
ATOM     10  C   LIG    1        1.510   1.734  -3.866  0.00  0.00    +0.500 A 
ATOM     11  C   LIG    1        2.819   1.500  -4.267  0.00  0.00    -0.120 A 
ATOM     12  C   LIG    1        2.921   1.838  -5.619  0.00  0.00    +0.200 A 
ATOM     13  C   LIG    1        4.000   1.799  -6.520  0.00  0.00    +0.040 A 
ATOM     14  C   LIG    1        3.807   2.196  -7.810  0.00  0.00    +0.100 A 
ATOM     15  C   LIG    1        2.539   2.636  -8.215  0.00  0.00    +0.010 A 
ATOM     16  C   LIG    1        1.513   2.666  -7.334  0.00  0.00    +0.270 A 
ATOM     17  N   LIG    1        1.693   2.273  -6.044  0.00  0.00    -0.260 N 
ATOM     18  N   LIG    1        0.809   2.205  -4.958  0.00  0.00    -0.490 N 
ATOM     19  H   LIG    1       -0.130   2.448  -4.971  0.00  0.00    +0.460 HD
ENDBRANCH   6   9
BRANCH   8  20
ATOM     20  C   LIG    1       -3.147   2.502   1.495  0.00  0.00    +0.280 C 
BRANCH  20  21
ATOM     21  N   LIG    1       -4.530   2.370   1.018  0.00  0.00    -0.640 N 
ATOM     22  H   LIG    1       -4.562   2.551   0.026  0.00  0.00    +0.430 HD
ATOM     23  H   LIG    1       -5.117   3.033   1.500  0.00  0.00    +0.440 HD
ATOM     24  H   LIG    1       -4.860   1.434   1.200  0.00  0.00    +0.440 HD
ENDBRANCH  20  21
ENDBRANCH   8  20
TORSDOF 3
