REMARK  Name = ZINCwl0000000Aom.1
REMARK                            x       y       z     vdW  Elec       q    Type
REMARK                         _______ _______ _______ _____ _____    ______ ____
ROOT
ATOM      1  C   LIG    1       -3.943   5.199  -4.877  0.00  0.00    +0.360 C 
ATOM      2  N   LIG    1       -3.256   4.115  -4.172  0.00  0.00    -0.550 N 
ATOM      3  C   LIG    1       -2.521   4.396  -3.076  0.00  0.00    +0.590 A 
ATOM      4  C   LIG    1       -1.864   3.352  -2.402  0.00  0.00    -0.130 A 
ATOM      5  C   LIG    1       -1.986   2.052  -2.880  0.00  0.00    +0.340 A 
ATOM      6  N   LIG    1       -2.754   1.826  -4.011  0.00  0.00    -0.510 N 
ATOM      7  C   LIG    1       -2.900   0.467  -4.537  0.00  0.00    +0.360 C 
ATOM      8  N   LIG    1       -1.274   1.260  -2.078  0.00  0.00    -0.500 NA
ATOM      9  C   LIG    1       -0.717   1.973  -1.119  0.00  0.00    +0.430 A 
ATOM     10  N   LIG    1       -1.051   3.281  -1.278  0.00  0.00    -0.380 N 
ATOM     11  O   LIG    1       -2.428   5.543  -2.675  0.00  0.00    -0.500 OA
ATOM     12  C   LIG    1       -3.368   2.855  -4.626  0.00  0.00    +0.710 A 
ATOM     13  O   LIG    1       -4.038   2.639  -5.617  0.00  0.00    -0.520 OA
ENDROOT
BRANCH   9  14
ATOM     14  N   LIG    1        0.082   1.472  -0.118  0.00  0.00    -0.460 N 
ATOM     15  C   LIG    1        1.276   0.819  -0.673  0.00  0.00    +0.250 C 
ATOM     16  C   LIG    1        2.166   0.330   0.472  0.00  0.00    +0.280 C 
ATOM     17  N   LIG    1        1.413  -0.616   1.307  0.00  0.00    -0.390 N 
ATOM     18  C   LIG    1        0.237   0.057   1.874  0.00  0.00    +0.290 C 
ATOM     19  C   LIG    1        2.273  -1.099   2.396  0.00  0.00    +0.330 C 
ATOM     20  H   LIG    1        1.114  -1.397   0.743  0.00  0.00    +0.430 HD
ATOM     21  C   LIG    1       -0.668   0.544   0.741  0.00  0.00    +0.250 C 
ENDBRANCH   9  14
BRANCH  10  22
ATOM     22  C   LIG    1       -0.634   4.399  -0.428  0.00  0.00    +0.360 C 
BRANCH  22  23
ATOM     23  C   LIG    1        0.654   5.010  -0.985  0.00  0.00    +0.080 C 
BRANCH  23  24
ATOM     24  S   LIG    1        1.233   6.314   0.128  0.00  0.00    +0.040 S 
BRANCH  24  25
ATOM     25  C   LIG    1        2.683   6.828  -0.731  0.00  0.00    +0.070 A 
ATOM     26  N   LIG    1        3.102   6.318  -1.839  0.00  0.00    -0.460 NA
ATOM     27  C   LIG    1        4.230   6.823  -2.378  0.00  0.00    +0.080 A 
ATOM     28  C   LIG    1        4.884   6.446  -3.570  0.00  0.00    +0.060 A 
ATOM     29  C   LIG    1        6.039   7.077  -3.958  0.00  0.00    +0.040 A 
ATOM     30  C   LIG    1        6.581   8.094  -3.187  0.00  0.00    +0.050 A 
ATOM     31  C   LIG    1        5.960   8.479  -2.019  0.00  0.00    +0.070 A 
ATOM     32  C   LIG    1        4.787   7.849  -1.610  0.00  0.00    -0.170 A 
ATOM     33  S   LIG    1        3.769   8.102  -0.194  0.00  0.00    +0.120 S 
ENDBRANCH  24  25
ENDBRANCH  23  24
ENDBRANCH  22  23
ENDBRANCH  10  22
TORSDOF 5
