REMARK  Name = ZINCqH00000369E4.0
REMARK                            x       y       z     vdW  Elec       q    Type
REMARK                         _______ _______ _______ _____ _____    ______ ____
ROOT
ATOM      1  S   LIG    1        3.970   2.293  -0.052  0.00  0.00    +2.690 S 
ATOM      2  O   LIG    1        2.706   2.450   0.579  0.00  0.00    -0.940 OA
ATOM      3  O   LIG    1        4.517   1.026  -0.390  0.00  0.00    -0.930 OA
ENDROOT
BRANCH   1  12
ATOM      4  C   LIG    1        2.323   7.023  -1.439  0.00  0.00    +0.110 A 
ATOM      5  C   LIG    1        2.135   6.186  -0.349  0.00  0.00    -0.030 A 
ATOM      6  C   LIG    1        2.659   4.910  -0.364  0.00  0.00    +0.010 A 
ATOM      7  C   LIG    1        3.376   4.463  -1.468  0.00  0.00    +0.140 A 
ATOM      8  C   LIG    1        3.563   5.297  -2.559  0.00  0.00    -0.070 A 
ATOM      9  C   LIG    1        4.325   4.841  -3.776  0.00  0.00    +0.080 C 
ATOM     10  C   LIG    1        5.230   3.659  -3.429  0.00  0.00    +0.030 C 
ATOM     11  C   LIG    1        4.399   2.590  -2.716  0.00  0.00    +0.300 C 
ATOM     12  N   LIG    1        3.902   3.163  -1.458  0.00  0.00    -0.930 N 
ATOM     13  C   LIG    1        3.036   6.577  -2.540  0.00  0.00    +0.020 A 
BRANCH   4  15
ATOM     14  C   LIG    1        1.086   8.676  -0.258  0.00  0.00    +0.250 C 
ATOM     15  O   LIG    1        1.809   8.282  -1.426  0.00  0.00    -0.320 OA
ENDBRANCH   4  15
ENDBRANCH   1  12
BRANCH   1  16
ATOM     16  C   LIG    1        5.149   3.081   0.994  0.00  0.00    -0.680 A 
ATOM     17  C   LIG    1        4.745   3.650   2.186  0.00  0.00    +0.170 A 
ATOM     18  C   LIG    1        5.670   4.269   3.007  0.00  0.00    +0.000 A 
ATOM     19  C   LIG    1        7.001   4.320   2.637  0.00  0.00    +0.130 A 
ATOM     20  C   LIG    1        7.410   3.752   1.446  0.00  0.00    -0.070 A 
ATOM     21  C   LIG    1        6.484   3.131   0.621  0.00  0.00    +0.210 A 
BRANCH  21  22
ATOM     22  O   LIG    1        6.885   2.572  -0.552  0.00  0.00    -0.310 OA
BRANCH  22  23
ATOM     23  C   LIG    1        8.289   2.557  -0.817  0.00  0.00    +0.610 C 
ATOM     24  F   LIG    1        8.754   3.870  -0.944  0.00  0.00    -0.160 F 
ATOM     25  F   LIG    1        8.531   1.860  -2.006  0.00  0.00    -0.120 F 
ATOM     26  F   LIG    1        8.956   1.926   0.238  0.00  0.00    -0.160 F 
ENDBRANCH  22  23
ENDBRANCH  21  22
ENDBRANCH   1  16
TORSDOF 5
