REMARK  Name = ZINCvU0000000Fg2.0
REMARK                            x       y       z     vdW  Elec       q    Type
REMARK                         _______ _______ _______ _____ _____    ______ ____
ROOT
ATOM      1  C   LIG    1        0.081   5.697   1.014  0.00  0.00    +0.540 C 
ATOM      2  N   LIG    1       -0.783   6.532   0.404  0.00  0.00    -0.660 N 
ATOM      3  H   LIG    1       -1.487   6.175  -0.161  0.00  0.00    +0.420 HD
ATOM      4  O   LIG    1        1.045   6.143   1.599  0.00  0.00    -0.500 OA
ENDROOT
BRANCH   2   5
ATOM      5  C   LIG    1       -0.666   7.915   0.585  0.00  0.00    +0.180 A 
ATOM      6  C   LIG    1        0.567   8.473   0.898  0.00  0.00    +0.000 A 
ATOM      7  C   LIG    1        0.684   9.838   1.077  0.00  0.00    +0.070 A 
ATOM      8  C   LIG    1       -0.425  10.651   0.945  0.00  0.00    -0.080 A 
ATOM      9  C   LIG    1       -1.660  10.100   0.631  0.00  0.00    +0.140 A 
ATOM     10  C   LIG    1       -1.780   8.731   0.447  0.00  0.00    -0.040 A 
BRANCH   9  11
ATOM     11  O   LIG    1       -2.750  10.901   0.502  0.00  0.00    -0.260 OA
BRANCH  11  12
ATOM     12  C   LIG    1       -2.556  12.246   0.503  0.00  0.00    +0.080 A 
ATOM     13  C   LIG    1       -2.858  12.990   1.635  0.00  0.00    +0.010 A 
ATOM     14  C   LIG    1       -2.656  14.357   1.635  0.00  0.00    +0.020 A 
ATOM     15  C   LIG    1       -2.163  14.984   0.506  0.00  0.00    +0.010 A 
ATOM     16  C   LIG    1       -1.867  14.246  -0.625  0.00  0.00    +0.020 A 
ATOM     17  C   LIG    1       -2.062  12.878  -0.629  0.00  0.00    +0.000 A 
ENDBRANCH  11  12
ENDBRANCH   9  11
ENDBRANCH   2   5
BRANCH   1  18
ATOM     18  C   LIG    1       -0.152   4.209   0.970  0.00  0.00    +0.110 C 
BRANCH  18  19
ATOM     19  S   LIG    1        1.170   3.364   1.873  0.00  0.00    +0.080 S 
BRANCH  19  24
ATOM     20  C   LIG    1        0.828  -1.937   2.023  0.00  0.00    +0.200 C 
ATOM     21  C   LIG    1        0.544  -0.484   1.741  0.00  0.00    +0.190 A 
ATOM     22  N   LIG    1       -0.464  -0.011   1.064  0.00  0.00    -0.280 NA
ATOM     23  N   LIG    1       -0.400   1.271   1.016  0.00  0.00    -0.290 NA
ATOM     24  C   LIG    1        0.662   1.690   1.665  0.00  0.00    +0.140 A 
ATOM     25  N   LIG    1        1.297   0.583   2.148  0.00  0.00    -0.450 N 
BRANCH  25  26
ATOM     26  C   LIG    1        2.530   0.545   2.939  0.00  0.00    +0.370 C 
BRANCH  26  27
ATOM     27  C   LIG    1        3.717   0.448   2.015  0.00  0.00    -0.120 A 
ATOM     28  C   LIG    1        4.200  -0.791   1.638  0.00  0.00    +0.020 A 
ATOM     29  C   LIG    1        5.286  -0.879   0.787  0.00  0.00    +0.010 A 
ATOM     30  C   LIG    1        5.894   0.271   0.321  0.00  0.00    +0.030 A 
ATOM     31  C   LIG    1        5.414   1.510   0.702  0.00  0.00    +0.010 A 
ATOM     32  C   LIG    1        4.325   1.599   1.549  0.00  0.00    +0.040 A 
ENDBRANCH  26  27
ENDBRANCH  25  26
ENDBRANCH  19  24
ENDBRANCH  18  19
ENDBRANCH   1  18
TORSDOF 8
