REMARK  Name = ZINCtV000002uVz4.0
REMARK                            x       y       z     vdW  Elec       q    Type
REMARK                         _______ _______ _______ _____ _____    ______ ____
ROOT
ATOM      1  C   LIG    1       -2.088  -6.091   0.034  0.00  0.00    +0.570 C 
ATOM      2  N   LIG    1       -0.985  -6.864   0.033  0.00  0.00    -0.620 N 
ATOM      3  H   LIG    1       -0.105  -6.455   0.057  0.00  0.00    +0.420 HD
ATOM      4  O   LIG    1       -3.190  -6.604   0.004  0.00  0.00    -0.500 OA
ENDROOT
BRANCH   1   8
ATOM      5  C   LIG    1       -1.711  -1.859   0.146  0.00  0.00    +0.140 A 
ATOM      6  C   LIG    1       -0.576  -2.657   0.138  0.00  0.00    -0.030 A 
ATOM      7  C   LIG    1       -0.694  -4.030   0.108  0.00  0.00    +0.060 A 
ATOM      8  C   LIG    1       -1.959  -4.621   0.073  0.00  0.00    -0.140 A 
ATOM      9  C   LIG    1       -3.103  -3.817   0.075  0.00  0.00    +0.040 A 
ATOM     10  C   LIG    1       -2.977  -2.443   0.111  0.00  0.00    +0.090 A 
BRANCH  10  11
ATOM     11  O   LIG    1       -4.088  -1.658   0.113  0.00  0.00    -0.300 OA
ATOM     12  C   LIG    1       -5.352  -2.323   0.077  0.00  0.00    +0.250 C 
ENDBRANCH  10  11
BRANCH   5  13
ATOM     13  O   LIG    1       -1.589  -0.507   0.181  0.00  0.00    -0.300 OA
BRANCH  13  14
ATOM     14  C   LIG    1       -0.263   0.024   0.215  0.00  0.00    +0.190 C 
BRANCH  14  15
ATOM     15  C   LIG    1       -0.326   1.552   0.252  0.00  0.00    +0.040 C 
BRANCH  15  17
ATOM     16  C   LIG    1        1.031   3.648   0.326  0.00  0.00    +0.030 C 
ATOM     17  C   LIG    1        1.094   2.120   0.289  0.00  0.00    +0.020 C 
ENDBRANCH  15  17
ENDBRANCH  14  15
ENDBRANCH  13  14
ENDBRANCH   5  13
ENDBRANCH   1   8
BRANCH   2  18
ATOM     18  C   LIG    1       -1.106  -8.247  -0.004  0.00  0.00    +0.270 A 
ATOM     19  N   LIG    1       -0.117  -9.086  -0.014  0.00  0.00    -0.490 NA
ATOM     20  C   LIG    1       -0.422 -10.375  -0.048  0.00  0.00    +0.110 A 
ATOM     21  C   LIG    1       -1.738 -10.656  -0.076  0.00  0.00    -0.250 A 
ATOM     22  C   LIG    1       -2.346 -12.034  -0.120  0.00  0.00    +0.150 C 
ATOM     23  S   LIG    1       -2.626  -9.134  -0.051  0.00  0.00    +0.210 S 
BRANCH  20  24
ATOM     24  C   LIG    1        0.615 -11.436  -0.058  0.00  0.00    +0.000 A 
ATOM     25  C   LIG    1        1.720 -11.341   0.786  0.00  0.00    +0.050 A 
ATOM     26  C   LIG    1        2.679 -12.333   0.776  0.00  0.00    +0.050 A 
ATOM     27  C   LIG    1        2.551 -13.415  -0.077  0.00  0.00    -0.090 A 
ATOM     28  C   LIG    1        1.458 -13.511  -0.921  0.00  0.00    +0.050 A 
ATOM     29 BR   LIG    1        3.873 -14.767  -0.091  0.00  0.00    -0.050 Br
ATOM     30  C   LIG    1        0.490 -12.527  -0.915  0.00  0.00    +0.040 A 
ENDBRANCH  20  24
ENDBRANCH   2  18
TORSDOF 8
