REMARK  Name = ZINCrD00000deh7V.0
REMARK                            x       y       z     vdW  Elec       q    Type
REMARK                         _______ _______ _______ _____ _____    ______ ____
ROOT
ATOM      1  C   LIG    1       -4.028  -1.367  11.188  0.00  0.00    +0.570 C 
ATOM      2  N   LIG    1       -3.746  -0.389  10.305  0.00  0.00    -0.620 N 
ATOM      3  C   LIG    1       -3.134  -0.545   8.972  0.00  0.00    +0.240 C 
ATOM      4  C   LIG    1       -2.441   0.787   8.633  0.00  0.00    +0.250 C 
ATOM      5  C   LIG    1       -2.727   1.710   9.840  0.00  0.00    -0.090 C 
ATOM      6  C   LIG    1       -3.024   3.136   9.373  0.00  0.00    +0.060 C 
ATOM      7  C   LIG    1       -1.556   1.693  10.825  0.00  0.00    +0.050 C 
ATOM      8  C   LIG    1       -3.988   1.063  10.473  0.00  0.00    +0.270 C 
ATOM      9  O   LIG    1       -4.535  -1.092  12.255  0.00  0.00    -0.540 OA
ENDROOT
BRANCH   4  10
ATOM     10  N   LIG    1       -3.007   1.359   7.409  0.00  0.00    -0.730 N 
ATOM     11  H   LIG    1       -3.745   1.986   7.464  0.00  0.00    +0.400 HD
ATOM     12  C   LIG    1       -2.503   1.014   6.208  0.00  0.00    +0.510 C 
ATOM     13  O   LIG    1       -1.581   0.230   6.140  0.00  0.00    -0.530 OA
BRANCH  12  14
ATOM     14  C   LIG    1       -3.086   1.603   4.949  0.00  0.00    +0.040 C 
BRANCH  14  15
ATOM     15  C   LIG    1       -2.339   1.050   3.734  0.00  0.00    +0.030 C 
BRANCH  15  16
ATOM     16  C   LIG    1       -2.931   1.648   2.456  0.00  0.00    +0.010 C 
BRANCH  16  17
ATOM     17  C   LIG    1       -2.183   1.095   1.241  0.00  0.00    -0.020 C 
ATOM     18  C   LIG    1       -0.730   1.580   1.267  0.00  0.00    +0.000 C 
ATOM     19  C   LIG    1       -0.013   1.086   0.008  0.00  0.00    +0.200 C 
ATOM     20  O   LIG    1       -0.704   1.559  -1.149  0.00  0.00    -0.380 OA
ATOM     21  C   LIG    1       -2.053   1.100  -1.252  0.00  0.00    +0.200 C 
ATOM     22  C   LIG    1       -2.853   1.594  -0.043  0.00  0.00    -0.010 C 
ENDBRANCH  16  17
ENDBRANCH  15  16
ENDBRANCH  14  15
ENDBRANCH  12  14
ENDBRANCH   4  10
BRANCH   1  25
ATOM     23  C   LIG    1       -4.057  -3.865  11.896  0.00  0.00    +0.010 C 
ATOM     24  C   LIG    1       -4.892  -3.748  10.619  0.00  0.00    +0.060 C 
ATOM     25  C   LIG    1       -3.713  -2.801  10.851  0.00  0.00    -0.070 C 
BRANCH  23  26
ATOM     26  C   LIG    1       -3.116  -5.065  12.018  0.00  0.00    +0.050 C 
BRANCH  26  28
ATOM     27  C   LIG    1       -2.618  -7.143  13.313  0.00  0.00    +0.010 C 
ATOM     28  C   LIG    1       -3.558  -5.942  13.191  0.00  0.00    +0.000 C 
ENDBRANCH  26  28
ENDBRANCH  23  26
ENDBRANCH   1  25
TORSDOF 8
