REMARK  Name = ZINCvU0000000Cij.0
REMARK                            x       y       z     vdW  Elec       q    Type
REMARK                         _______ _______ _______ _____ _____    ______ ____
ROOT
ATOM      1  C   LIG    1       -1.315   2.091   0.027  0.00  0.00    -0.060 A 
ATOM      2  C   LIG    1       -2.307   1.770  -0.895  0.00  0.00    +0.080 A 
ATOM      3  C   LIG    1       -3.510   2.461  -0.883  0.00  0.00    +0.100 A 
ATOM      4  C   LIG    1       -3.724   3.471   0.046  0.00  0.00    +0.030 A 
ATOM      5  C   LIG    1       -2.741   3.792   0.963  0.00  0.00    -0.060 A 
ATOM      6  C   LIG    1       -1.539   3.105   0.964  0.00  0.00    +0.130 A 
ENDROOT
BRANCH   1  10
ATOM      7  C   LIG    1        2.379  -0.017  -0.006  0.00  0.00    +0.130 A 
ATOM      8  C   LIG    1        1.181  -0.719  -0.001  0.00  0.00    -0.020 A 
ATOM      9  C   LIG    1       -0.018  -0.038   0.011  0.00  0.00    +0.070 A 
ATOM     10  C   LIG    1       -0.027   1.356   0.020  0.00  0.00    -0.080 A 
ATOM     11  C   LIG    1        1.178   2.058   0.015  0.00  0.00    +0.080 A 
ATOM     12  C   LIG    1        2.374   1.371   0.003  0.00  0.00    -0.080 A 
BRANCH   7  14
ATOM     13  C   LIG    1        4.754   0.094  -0.022  0.00  0.00    +0.250 C 
ATOM     14  O   LIG    1        3.559  -0.691  -0.018  0.00  0.00    -0.320 OA
ENDBRANCH   7  14
ENDBRANCH   1  10
BRANCH   3  15
ATOM     15  N   LIG    1       -4.510   2.140  -1.811  0.00  0.00    -0.670 N 
ATOM     16  H   LIG    1       -5.444   2.192  -1.554  0.00  0.00    +0.410 HD
ATOM     17  C   LIG    1       -4.174   1.760  -3.059  0.00  0.00    +0.520 C 
ATOM     18  O   LIG    1       -3.007   1.615  -3.356  0.00  0.00    -0.510 OA
BRANCH  17  19
ATOM     19  C   LIG    1       -5.249   1.516  -4.087  0.00  0.00    +0.080 C 
BRANCH  19  20
ATOM     20  C   LIG    1       -4.604   1.098  -5.410  0.00  0.00    +0.230 C 
BRANCH  20  21
ATOM     21  C   LIG    1       -5.678   0.854  -6.438  0.00  0.00    +0.180 A 
ATOM     22  N   LIG    1       -6.185   1.740  -7.259  0.00  0.00    -0.470 NA
ATOM     23  C   LIG    1       -7.107   1.072  -7.990  0.00  0.00    +0.230 A 
ATOM     24  N   LIG    1       -7.110  -0.167  -7.568  0.00  0.00    -0.370 NA
ATOM     25  O   LIG    1       -6.297  -0.306  -6.679  0.00  0.00    +0.090 OA
BRANCH  23  26
ATOM     26  C   LIG    1       -7.957   1.638  -9.064  0.00  0.00    -0.050 A 
ATOM     27  C   LIG    1       -7.893   2.927  -9.442  0.00  0.00    -0.020 A 
ATOM     28  S   LIG    1       -9.004   3.238 -10.699  0.00  0.00    +0.200 S 
ATOM     29  C   LIG    1       -9.555   1.569 -10.695  0.00  0.00    -0.060 A 
ATOM     30  C   LIG    1       -8.887   0.877  -9.774  0.00  0.00    +0.040 A 
ENDBRANCH  23  26
ENDBRANCH  20  21
ENDBRANCH  19  20
ENDBRANCH  17  19
ENDBRANCH   3  15
BRANCH   6  31
ATOM     31  O   LIG    1       -0.576   3.418   1.870  0.00  0.00    -0.310 OA
ATOM     32  C   LIG    1       -0.874   4.465   2.797  0.00  0.00    +0.240 C 
ENDBRANCH   6  31
TORSDOF 8
