REMARK  Name = ZINCrH000004sOdT.0
REMARK                            x       y       z     vdW  Elec       q    Type
REMARK                         _______ _______ _______ _____ _____    ______ ____
ROOT
ATOM      1  C   LIG    1       -0.779   1.607  -1.222  0.00  0.00    +0.160 C 
ATOM      2  C   LIG    1       -1.948   2.439  -0.646  0.00  0.00    +0.030 C 
ATOM      3  C   LIG    1       -1.449   2.800   0.776  0.00  0.00    +0.170 C 
ATOM      4  N   LIG    1       -0.726   1.573   1.208  0.00  0.00    -0.500 NA
ATOM      5  C   LIG    1       -0.013   1.086   0.008  0.00  0.00    +0.200 C 
ENDROOT
BRANCH   1   6
ATOM      6  O   LIG    1       -1.282   0.514  -1.993  0.00  0.00    -0.370 OA
BRANCH   6   7
ATOM      7  C   LIG    1       -1.387   0.788  -3.391  0.00  0.00    +0.270 C 
BRANCH   7  14
ATOM      8  C   LIG    1        0.303  -1.659  -4.688  0.00  0.00    +0.160 C 
ATOM      9  C   LIG    1       -1.195  -1.496  -4.671  0.00  0.00    +0.040 A 
ATOM     10  N   LIG    1       -2.074  -2.314  -5.173  0.00  0.00    -0.370 NA
ATOM     11  O   LIG    1       -3.202  -1.912  -5.008  0.00  0.00    +0.100 OA
ATOM     12  C   LIG    1       -3.217  -0.743  -4.352  0.00  0.00    -0.000 A 
ATOM     13  C   LIG    1       -4.433   0.060  -3.967  0.00  0.00    +0.190 C 
ATOM     14  C   LIG    1       -1.924  -0.426  -4.103  0.00  0.00    -0.210 A 
ENDBRANCH   7  14
ENDBRANCH   6   7
ENDBRANCH   1   6
BRANCH   4  15
ATOM     15  C   LIG    1        0.215   1.867   2.297  0.00  0.00    +0.350 C 
BRANCH  15  16
ATOM     16  C   LIG    1       -0.509   2.587   3.406  0.00  0.00    +0.190 A 
ATOM     17  N   LIG    1       -1.118   2.033   4.425  0.00  0.00    -0.450 NA
ATOM     18  C   LIG    1       -1.615   3.058   5.153  0.00  0.00    +0.210 A 
ATOM     19  N   LIG    1       -1.289   4.164   4.534  0.00  0.00    -0.370 NA
ATOM     20  O   LIG    1       -0.655   3.909   3.532  0.00  0.00    +0.080 OA
BRANCH  18  21
ATOM     21  C   LIG    1       -2.390   2.950   6.413  0.00  0.00    -0.020 A 
ATOM     22  C   LIG    1       -2.669   1.698   6.957  0.00  0.00    +0.090 A 
ATOM     23  C   LIG    1       -3.384   1.602   8.133  0.00  0.00    +0.030 A 
ATOM     24  C   LIG    1       -3.836   2.748   8.766  0.00  0.00    -0.020 A 
ATOM     25  C   LIG    1       -3.566   3.994   8.227  0.00  0.00    +0.030 A 
ATOM     26 CL   LIG    1       -4.742   2.621  10.241  0.00  0.00    -0.060 Cl
ATOM     27  C   LIG    1       -2.846   4.100   7.055  0.00  0.00    +0.070 A 
ENDBRANCH  18  21
ENDBRANCH  15  16
ENDBRANCH   4  15
TORSDOF 6
