REMARK  Name = ZINCrD000000CdE6.1
REMARK                            x       y       z     vdW  Elec       q    Type
REMARK                         _______ _______ _______ _____ _____    ______ ____
ROOT
ATOM      1  O   LIG    1       -1.796  -0.821   0.170  0.00  0.00    -0.520 OA
ATOM      2  C   LIG    1       -2.699  -0.006   0.178  0.00  0.00    +0.590 C 
ATOM      3  N   LIG    1       -2.417   1.311   0.224  0.00  0.00    -0.620 N 
ATOM      4  H   LIG    1       -3.137   1.961   0.231  0.00  0.00    +0.440 HD
ENDROOT
BRANCH   2   5
ATOM      5  C   LIG    1       -4.102  -0.460   0.137  0.00  0.00    -0.230 A 
ATOM      6  C   LIG    1       -4.407  -1.828   0.088  0.00  0.00    +0.190 A 
ATOM      7  C   LIG    1       -5.735  -2.202   0.051  0.00  0.00    -0.030 A 
ATOM      8  C   LIG    1       -6.719  -1.219   0.063  0.00  0.00    +0.350 A 
ATOM      9  N   LIG    1       -6.399   0.065   0.110  0.00  0.00    -0.530 NA
ATOM     10  C   LIG    1       -5.146   0.467   0.151  0.00  0.00    +0.360 A 
BRANCH   8  11
ATOM     11  O   LIG    1       -8.025  -1.581   0.027  0.00  0.00    -0.240 OA
BRANCH  11  12
ATOM     12  C   LIG    1       -8.961  -0.603   0.141  0.00  0.00    +0.080 A 
ATOM     13  C   LIG    1       -9.637  -0.425   1.340  0.00  0.00    +0.020 A 
ATOM     14  C   LIG    1      -10.585   0.574   1.455  0.00  0.00    +0.020 A 
ATOM     15  C   LIG    1      -10.868   1.388   0.374  0.00  0.00    +0.020 A 
ATOM     16  C   LIG    1      -10.200   1.208  -0.824  0.00  0.00    +0.020 A 
ATOM     17  C   LIG    1       -9.248   0.214  -0.942  0.00  0.00    +0.020 A 
ENDBRANCH  11  12
ENDBRANCH   8  11
ENDBRANCH   2   5
BRANCH   3  18
ATOM     18  C   LIG    1       -1.098   1.737   0.263  0.00  0.00    +0.500 A 
ATOM     19  N   LIG    1       -0.692   2.985   0.312  0.00  0.00    -0.520 NA
ATOM     20  C   LIG    1        0.649   3.023   0.333  0.00  0.00    +0.290 A 
ATOM     21  N   LIG    1        1.109   1.793   0.301  0.00  0.00    -0.290 NA
ATOM     22  N   LIG    1       -0.006   0.941   0.259  0.00  0.00    -0.460 N 
ATOM     23  H   LIG    1        0.004  -0.029   0.229  0.00  0.00    +0.450 HD
BRANCH  20  24
ATOM     24  C   LIG    1        1.476   4.253   0.382  0.00  0.00    +0.200 A 
ATOM     25  C   LIG    1        2.865   4.151   0.398  0.00  0.00    +0.020 A 
ATOM     26  C   LIG    1        3.625   5.308   0.444  0.00  0.00    +0.060 A 
ATOM     27  C   LIG    1        2.969   6.530   0.472  0.00  0.00    -0.020 A 
ATOM     28  C   LIG    1        1.586   6.558   0.453  0.00  0.00    +0.260 A 
ATOM     29  N   LIG    1        0.887   5.442   0.404  0.00  0.00    -0.450 NA
ENDBRANCH  20  24
ENDBRANCH   3  18
TORSDOF 5
