REMARK  Name = ZINCrD000000CdE6.0
REMARK                            x       y       z     vdW  Elec       q    Type
REMARK                         _______ _______ _______ _____ _____    ______ ____
ROOT
ATOM      1  O   LIG    1       -2.496   0.305   0.182  0.00  0.00    -0.480 OA
ATOM      2  C   LIG    1       -2.394   1.517   0.188  0.00  0.00    +0.570 C 
ATOM      3  N   LIG    1       -1.174   2.089   0.225  0.00  0.00    -0.620 N 
ATOM      4  H   LIG    1       -1.092   3.056   0.229  0.00  0.00    +0.420 HD
ENDROOT
BRANCH   2   5
ATOM      5  C   LIG    1       -3.604   2.360   0.154  0.00  0.00    -0.220 A 
ATOM      6  C   LIG    1       -4.878   1.775   0.115  0.00  0.00    +0.180 A 
ATOM      7  C   LIG    1       -5.980   2.605   0.085  0.00  0.00    -0.030 A 
ATOM      8  C   LIG    1       -5.793   3.984   0.093  0.00  0.00    +0.340 A 
ATOM      9  N   LIG    1       -4.577   4.506   0.130  0.00  0.00    -0.530 NA
ATOM     10  C   LIG    1       -3.499   3.752   0.165  0.00  0.00    +0.340 A 
BRANCH   8  11
ATOM     11  O   LIG    1       -6.871   4.804   0.064  0.00  0.00    -0.240 OA
BRANCH  11  12
ATOM     12  C   LIG    1       -6.659   6.142   0.175  0.00  0.00    +0.090 A 
ATOM     13  C   LIG    1       -6.916   6.790   1.375  0.00  0.00    +0.010 A 
ATOM     14  C   LIG    1       -6.694   8.148   1.486  0.00  0.00    +0.020 A 
ATOM     15  C   LIG    1       -6.225   8.865   0.400  0.00  0.00    +0.020 A 
ATOM     16  C   LIG    1       -5.973   8.223  -0.798  0.00  0.00    +0.020 A 
ATOM     17  C   LIG    1       -6.189   6.863  -0.913  0.00  0.00    +0.020 A 
ENDBRANCH  11  12
ENDBRANCH   8  11
ENDBRANCH   2   5
BRANCH   3  18
ATOM     18  C   LIG    1       -0.028   1.291   0.257  0.00  0.00    +0.450 A 
ATOM     19  N   LIG    1       -0.013  -0.022   0.254  0.00  0.00    -0.280 NA
ATOM     20  N   LIG    1        1.334  -0.417   0.287  0.00  0.00    -0.450 N 
ATOM     21  H   LIG    1        1.674  -1.325   0.293  0.00  0.00    +0.450 HD
ATOM     22  C   LIG    1        2.064   0.721   0.308  0.00  0.00    +0.350 A 
ATOM     23  N   LIG    1        1.227   1.740   0.289  0.00  0.00    -0.540 NA
BRANCH  22  24
ATOM     24  C   LIG    1        3.541   0.808   0.344  0.00  0.00    +0.170 A 
ATOM     25  C   LIG    1        4.160   2.057   0.357  0.00  0.00    +0.040 A 
ATOM     26  C   LIG    1        5.542   2.122   0.396  0.00  0.00    +0.080 A 
ATOM     27  C   LIG    1        6.261   0.936   0.410  0.00  0.00    -0.010 A 
ATOM     28  C   LIG    1        5.582  -0.270   0.391  0.00  0.00    +0.280 A 
ATOM     29  N   LIG    1        4.266  -0.304   0.359  0.00  0.00    -0.470 NA
ENDBRANCH  22  24
ENDBRANCH   3  18
TORSDOF 5
