REMARK  Name = ZINCpk00000xI98A.0
REMARK                            x       y       z     vdW  Elec       q    Type
REMARK                         _______ _______ _______ _____ _____    ______ ____
ROOT
ATOM      1  N   LIG    1       -4.918   3.952   0.048  0.00  0.00    -0.480 N 
ATOM      2  C   LIG    1       -5.761   3.541  -1.083  0.00  0.00    +0.190 C 
ATOM      3  C   LIG    1       -7.150   4.171  -0.936  0.00  0.00    +0.310 C 
ATOM      4  N   LIG    1       -6.989   5.624  -0.776  0.00  0.00    -1.000 NA
ATOM      5  C   LIG    1       -6.054   6.112   0.249  0.00  0.00    +0.310 C 
ATOM      6  C   LIG    1       -4.708   5.406   0.056  0.00  0.00    +0.190 C 
ENDROOT
BRANCH   1  10
ATOM      7  C   LIG    1       -1.295   1.925   0.019  0.00  0.00    -0.200 A 
ATOM      8  C   LIG    1       -1.316   3.326   0.032  0.00  0.00    +0.090 A 
ATOM      9  C   LIG    1       -2.510   3.989   0.037  0.00  0.00    -0.050 A 
ATOM     10  C   LIG    1       -3.706   3.274   0.038  0.00  0.00    +0.150 A 
ATOM     11  C   LIG    1       -3.689   1.881   0.030  0.00  0.00    -0.030 A 
ATOM     12  C   LIG    1       -2.500   1.210   0.021  0.00  0.00    +0.110 A 
BRANCH   7  14
ATOM     13  C   LIG    1        1.280   1.980   0.001  0.00  0.00    +0.060 C 
ATOM     14  C   LIG    1       -0.014   1.209   0.009  0.00  0.00    +0.390 C 
ATOM     15  O   LIG    1        0.002  -0.004   0.002  0.00  0.00    -0.460 OA
ENDBRANCH   7  14
ENDBRANCH   1  10
BRANCH   4  16
ATOM     16  S   LIG    1       -7.839   6.683  -1.725  0.00  0.00    +2.730 S 
ATOM     17  O   LIG    1       -7.905   7.904  -1.002  0.00  0.00    -0.940 OA
ATOM     18  O   LIG    1       -8.990   5.983  -2.175  0.00  0.00    -0.940 OA
BRANCH  16  19
ATOM     19  C   LIG    1       -6.860   7.003  -3.155  0.00  0.00    -0.830 A 
ATOM     20  C   LIG    1       -7.096   6.604  -4.396  0.00  0.00    +0.270 A 
ATOM     21  N   LIG    1       -6.191   6.981  -5.343  0.00  0.00    -0.640 N 
ATOM     22  H   LIG    1       -6.299   6.729  -6.274  0.00  0.00    +0.420 HD
ATOM     23  C   LIG    1       -5.140   7.710  -4.934  0.00  0.00    +0.470 A 
ATOM     24  O   LIG    1       -4.230   8.135  -5.622  0.00  0.00    -0.450 OA
ATOM     25  C   LIG    1       -8.307   5.777  -4.745  0.00  0.00    +0.180 C 
ATOM     26  S   LIG    1       -5.346   7.920  -3.237  0.00  0.00    +0.110 S 
ENDBRANCH  16  19
ENDBRANCH   4  16
TORSDOF 4
