REMARK  Name = ZINCrg00001Jdv07.0
REMARK                            x       y       z     vdW  Elec       q    Type
REMARK                         _______ _______ _______ _____ _____    ______ ____
ROOT
ATOM      1  C   LIG    1       -6.284   1.976   2.253  0.00  0.00    +0.610 C 
ATOM      2  N   LIG    1       -5.510   2.659   1.386  0.00  0.00    -0.600 N 
ATOM      3  C   LIG    1       -5.981   3.339   0.170  0.00  0.00    +0.270 C 
ATOM      4  C   LIG    1       -4.745   3.959  -0.515  0.00  0.00    +0.070 C 
ATOM      5  C   LIG    1       -3.573   3.114   0.051  0.00  0.00    +0.160 C 
ATOM      6  C   LIG    1       -4.053   2.848   1.500  0.00  0.00    +0.270 C 
ATOM      7  O   LIG    1       -5.785   1.451   3.229  0.00  0.00    -0.520 OA
ENDROOT
BRANCH   1  11
ATOM      8  C   LIG    1      -10.059   3.023  -0.489  0.00  0.00    +0.360 C 
ATOM      9  N   LIG    1       -9.534   2.364   0.710  0.00  0.00    -0.340 N 
ATOM     10  N   LIG    1       -8.276   2.432   0.959  0.00  0.00    -0.180 NA
ATOM     11  C   LIG    1       -7.739   1.864   2.016  0.00  0.00    +0.020 A 
ATOM     12  C   LIG    1       -8.549   1.141   2.925  0.00  0.00    +0.140 A 
ATOM     13  C   LIG    1       -9.887   1.065   2.677  0.00  0.00    -0.010 A 
ATOM     14  C   LIG    1      -10.383   1.704   1.519  0.00  0.00    +0.480 A 
ATOM     15  O   LIG    1      -11.573   1.658   1.254  0.00  0.00    -0.520 OA
ENDBRANCH   1  11
BRANCH   5  16
ATOM     16  O   LIG    1       -2.353   3.859   0.044  0.00  0.00    -0.280 OA
BRANCH  16  17
ATOM     17  C   LIG    1       -1.195   3.147   0.029  0.00  0.00    +0.070 A 
ATOM     18  C   LIG    1       -1.221   1.760   0.017  0.00  0.00    -0.010 A 
ATOM     19  C   LIG    1       -0.013   1.076   0.008  0.00  0.00    -0.020 A 
ATOM     20  C   LIG    1        1.169   1.788   0.001  0.00  0.00    +0.250 A 
ATOM     21  N   LIG    1        1.166   3.109   0.008  0.00  0.00    -0.480 NA
ATOM     22  C   LIG    1        0.038   3.801   0.022  0.00  0.00    +0.290 A 
BRANCH  22  23
ATOM     23  N   LIG    1        0.082   5.192   0.028  0.00  0.00    -0.450 N 
ATOM     24  C   LIG    1       -0.527   5.738   1.268  0.00  0.00    +0.200 C 
ATOM     25  C   LIG    1        0.064   7.168   1.354  0.00  0.00    +0.040 C 
ATOM     26  C   LIG    1        1.513   6.973   0.850  0.00  0.00    +0.010 C 
ATOM     27  C   LIG    1        1.479   5.679   0.018  0.00  0.00    +0.200 C 
ENDBRANCH  22  23
ENDBRANCH  16  17
ENDBRANCH   5  16
TORSDOF 4
