REMARK  Name = ZINCpe000000YSLe.0
REMARK                            x       y       z     vdW  Elec       q    Type
REMARK                         _______ _______ _______ _____ _____    ______ ____
ROOT
ATOM      1  O   LIG    1        0.002  -0.004   0.002  0.00  0.00    -0.530 OA
ATOM      2  C   LIG    1       -0.014   1.209   0.009  0.00  0.00    +0.520 C 
ATOM      3  N   LIG    1       -1.191   1.867   0.018  0.00  0.00    -0.610 N 
ATOM      4  C   LIG    1       -1.226   3.336   0.032  0.00  0.00    +0.270 C 
ATOM      5  C   LIG    1       -2.072   3.813  -1.160  0.00  0.00    +0.300 C 
ATOM      6  N   LIG    1       -3.342   3.074  -1.158  0.00  0.00    -1.000 NA
ATOM      7  C   LIG    1       -3.307   1.605  -1.167  0.00  0.00    +0.300 C 
ATOM      8  C   LIG    1       -2.461   1.128   0.020  0.00  0.00    +0.290 C 
ENDROOT
BRANCH   6   9
ATOM      9  S   LIG    1       -4.788   3.882  -1.147  0.00  0.00    +2.690 S 
ATOM     10  O   LIG    1       -5.750   2.991  -1.692  0.00  0.00    -0.950 OA
ATOM     11  O   LIG    1       -4.530   5.172  -1.685  0.00  0.00    -0.950 OA
BRANCH   9  12
ATOM     12  C   LIG    1       -5.235   4.127   0.539  0.00  0.00    -0.680 A 
ATOM     13  C   LIG    1       -6.000   3.181   1.196  0.00  0.00    +0.140 A 
ATOM     14  C   LIG    1       -6.346   3.370   2.520  0.00  0.00    +0.020 A 
ATOM     15  C   LIG    1       -5.937   4.511   3.186  0.00  0.00    +0.020 A 
ATOM     16  C   LIG    1       -5.177   5.461   2.527  0.00  0.00    +0.020 A 
ATOM     17 CL   LIG    1       -6.378   4.752   4.848  0.00  0.00    -0.050 Cl
ATOM     18  C   LIG    1       -4.826   5.268   1.204  0.00  0.00    +0.140 A 
ENDBRANCH   9  12
ENDBRANCH   6   9
BRANCH   2  19
ATOM     19  C   LIG    1        1.280   1.980   0.001  0.00  0.00    +0.060 C 
BRANCH  19  20
ATOM     20  C   LIG    1        2.457   1.002  -0.016  0.00  0.00    +0.360 C 
BRANCH  20  21
ATOM     21  N   LIG    1        3.715   1.751  -0.024  0.00  0.00    -0.380 N 
ATOM     22  C   LIG    1        4.729   1.632   0.850  0.00  0.00    +0.480 A 
ATOM     23  N   LIG    1        5.669   2.472   0.499  0.00  0.00    -0.550 NA
ATOM     24  C   LIG    1        5.289   3.147  -0.585  0.00  0.00    +0.420 A 
ATOM     25  N   LIG    1        4.099   2.741  -0.943  0.00  0.00    -0.320 NA
ENDBRANCH  20  21
ENDBRANCH  19  20
ENDBRANCH   2  19
TORSDOF 5
