REMARK  Name = ZINCrD00000F5LFA.0
REMARK                            x       y       z     vdW  Elec       q    Type
REMARK                         _______ _______ _______ _____ _____    ______ ____
ROOT
ATOM      1  O   LIG    1       -2.606   6.473  -4.167  0.00  0.00    -0.540 OA
ATOM      2  C   LIG    1       -2.002   6.671  -3.126  0.00  0.00    +0.550 C 
ENDROOT
BRANCH   2   3
ATOM      3  C   LIG    1       -1.136   7.858  -2.991  0.00  0.00    -0.200 A 
ATOM      4  C   LIG    1       -0.908   8.670  -4.058  0.00  0.00    +0.370 A 
ATOM      5  N   LIG    1       -0.118   9.770  -3.975  0.00  0.00    -0.620 N 
ATOM      6  H   LIG    1        0.010  10.314  -4.768  0.00  0.00    +0.420 HD
ATOM      7  C   LIG    1        0.495  10.137  -2.833  0.00  0.00    +0.550 A 
ATOM      8  C   LIG    1        0.313   9.327  -1.621  0.00  0.00    -0.160 A 
ATOM      9  C   LIG    1        0.923   9.660  -0.413  0.00  0.00    +0.090 A 
ATOM     10  C   LIG    1        0.704   8.875   0.698  0.00  0.00    -0.010 A 
ATOM     11  C   LIG    1       -0.103   7.748   0.621  0.00  0.00    +0.040 A 
ATOM     12  C   LIG    1       -0.711   7.397  -0.565  0.00  0.00    +0.050 A 
ATOM     13  O   LIG    1        1.195  11.132  -2.805  0.00  0.00    -0.520 OA
ATOM     14  C   LIG    1       -0.512   8.183  -1.697  0.00  0.00    +0.030 A 
ENDBRANCH   2   3
BRANCH   2  15
ATOM     15  N   LIG    1       -2.124   5.814  -2.108  0.00  0.00    -0.610 NA
ATOM     16  C   LIG    1       -2.905   4.743  -2.230  0.00  0.00    +0.370 A 
ATOM     17  S   LIG    1       -3.833   4.285  -3.607  0.00  0.00    +0.190 S 
ATOM     18  C   LIG    1       -4.500   2.823  -2.860  0.00  0.00    -0.080 A 
ATOM     19  C   LIG    1       -3.979   2.779  -1.640  0.00  0.00    +0.250 A 
ATOM     20  N   LIG    1       -3.133   3.787  -1.297  0.00  0.00    -0.480 N 
BRANCH  20  21
ATOM     21  C   LIG    1       -2.501   3.839   0.023  0.00  0.00    +0.380 C 
BRANCH  21  22
ATOM     22  C   LIG    1       -1.186   3.104  -0.020  0.00  0.00    -0.150 A 
ATOM     23  C   LIG    1        0.001   3.812  -0.037  0.00  0.00    +0.080 A 
ATOM     24  C   LIG    1        1.208   3.138  -0.077  0.00  0.00    +0.000 A 
ATOM     25  C   LIG    1        1.228   1.756  -0.100  0.00  0.00    +0.060 A 
ATOM     26  C   LIG    1        0.043   1.046  -0.082  0.00  0.00    -0.020 A 
ATOM     27  C   LIG    1       -1.166   1.720  -0.048  0.00  0.00    +0.110 A 
ATOM     28  F   LIG    1       -2.326   1.027  -0.036  0.00  0.00    -0.140 F 
ENDBRANCH  21  22
ENDBRANCH  20  21
ENDBRANCH   2  15
TORSDOF 4
