REMARK  Name = ZINCnE000004Rcdc.0
REMARK                            x       y       z     vdW  Elec       q    Type
REMARK                         _______ _______ _______ _____ _____    ______ ____
ROOT
ATOM      1  N   LIG    1       -3.689   3.451   0.053  0.00  0.00    -0.730 N 
ATOM      2  H   LIG    1       -3.677   2.481   0.048  0.00  0.00    +0.400 HD
ATOM      3  C   LIG    1       -2.531   4.140   0.046  0.00  0.00    +0.570 C 
ATOM      4  O   LIG    1       -2.547   5.355   0.052  0.00  0.00    -0.540 OA
ENDROOT
BRANCH   3   5
ATOM      5  C   LIG    1       -1.239   3.416   0.031  0.00  0.00    -0.120 A 
ATOM      6  C   LIG    1       -0.040   4.131   0.024  0.00  0.00    +0.050 A 
ATOM      7  C   LIG    1        1.163   3.461   0.009  0.00  0.00    +0.070 A 
ATOM      8  C   LIG    1        1.185   2.064   0.002  0.00  0.00    -0.140 A 
ATOM      9  C   LIG    1       -0.016   1.347   0.009  0.00  0.00    +0.120 A 
ATOM     10  F   LIG    1        0.002  -0.004   0.002  0.00  0.00    -0.120 F 
ATOM     11  C   LIG    1       -1.222   2.022   0.019  0.00  0.00    -0.010 A 
BRANCH   8  12
ATOM     12  C   LIG    1        2.475   1.345  -0.014  0.00  0.00    +0.520 C 
ATOM     13  O   LIG    1        2.493   0.123  -0.021  0.00  0.00    -0.670 OA
ATOM     14  O   LIG    1        3.524   1.973  -0.021  0.00  0.00    -0.680 OA
ENDBRANCH   8  12
ENDBRANCH   3   5
BRANCH   1  16
ATOM     15  C   LIG    1       -5.338   4.518   1.510  0.00  0.00    +0.030 C 
ATOM     16  C   LIG    1       -4.968   4.167   0.068  0.00  0.00    +0.240 C 
BRANCH  16  17
ATOM     17  C   LIG    1       -6.057   3.278  -0.536  0.00  0.00    +0.020 C 
ATOM     18  C   LIG    1       -5.686   2.926  -1.979  0.00  0.00    +0.030 C 
BRANCH  17  19
ATOM     19  C   LIG    1       -7.372   4.014  -0.521  0.00  0.00    -0.070 A 
ATOM     20  C   LIG    1       -7.500   5.214  -1.196  0.00  0.00    +0.010 A 
ATOM     21  C   LIG    1       -8.707   5.887  -1.185  0.00  0.00    +0.000 A 
ATOM     22  C   LIG    1       -9.784   5.365  -0.492  0.00  0.00    -0.010 A 
ATOM     23  C   LIG    1       -9.654   4.168   0.187  0.00  0.00    +0.000 A 
ATOM     24  C   LIG    1       -8.448   3.493   0.173  0.00  0.00    +0.000 A 
ENDBRANCH  17  19
ENDBRANCH  16  17
ENDBRANCH   1  16
TORSDOF 5
