REMARK  Name = ZINCqH00000059py.2
REMARK                            x       y       z     vdW  Elec       q    Type
REMARK                         _______ _______ _______ _____ _____    ______ ____
ROOT
ATOM      1  C   LIG    1        1.278   5.918   3.328  0.00  0.00    +0.520 C 
ATOM      2  N   LIG    1        2.434   5.730   3.996  0.00  0.00    -0.670 N 
ATOM      3  H   LIG    1        3.228   5.442   3.519  0.00  0.00    +0.410 HD
ATOM      4  O   LIG    1        0.313   6.374   3.903  0.00  0.00    -0.490 OA
ENDROOT
BRANCH   2   5
ATOM      5  C   LIG    1        2.488   5.951   5.378  0.00  0.00    +0.190 A 
ATOM      6  C   LIG    1        1.334   5.854   6.142  0.00  0.00    +0.050 A 
ATOM      7  C   LIG    1        1.388   6.067   7.511  0.00  0.00    +0.090 A 
ATOM      8  C   LIG    1        2.598   6.387   8.115  0.00  0.00    +0.040 A 
ATOM      9  O   LIG    1        2.672   6.597   9.459  0.00  0.00    -0.300 OA
ATOM     10  C   LIG    1        1.438   6.850  10.140  0.00  0.00    +0.230 C 
ATOM     11  C   LIG    1        0.406   5.819   9.663  0.00  0.00    +0.230 C 
ATOM     12  C   LIG    1        3.749   6.490   7.348  0.00  0.00    +0.090 A 
ATOM     13  O   LIG    1        0.247   5.966   8.247  0.00  0.00    -0.300 OA
ATOM     14  C   LIG    1        3.696   6.273   5.984  0.00  0.00    -0.130 A 
ATOM     15 BR   LIG    1        5.267   6.414   4.942  0.00  0.00    -0.030 Br
ENDBRANCH   2   5
BRANCH   1  16
ATOM     16  C   LIG    1        1.186   5.562   1.866  0.00  0.00    +0.220 C 
BRANCH  16  18
ATOM     17  C   LIG    1       -0.430   7.304   1.399  0.00  0.00    +0.210 C 
ATOM     18  N   LIG    1       -0.166   5.859   1.374  0.00  0.00    -0.510 NA
BRANCH  18  19
ATOM     19  C   LIG    1       -0.368   5.310   0.027  0.00  0.00    +0.170 C 
ATOM     20  C   LIG    1       -1.852   5.427  -0.382  0.00  0.00    +0.060 C 
ATOM     21  C   LIG    1       -2.427   4.066   0.064  0.00  0.00    +0.080 C 
ATOM     22  C   LIG    1       -1.252   3.111   0.035  0.00  0.00    -0.070 A 
ATOM     23  C   LIG    1       -1.221   1.727   0.022  0.00  0.00    +0.010 A 
ATOM     24  C   LIG    1       -0.012   1.059   0.001  0.00  0.00    +0.010 A 
ATOM     25  C   LIG    1        1.170   1.773  -0.021  0.00  0.00    +0.000 A 
ATOM     26  C   LIG    1        1.141   3.155  -0.014  0.00  0.00    +0.010 A 
ATOM     27  C   LIG    1       -0.069   3.826   0.014  0.00  0.00    -0.100 A 
ENDBRANCH  18  19
ENDBRANCH  16  18
ENDBRANCH   1  16
TORSDOF 4
