REMARK  Name = ZINCrH00000tj19c.0
REMARK                            x       y       z     vdW  Elec       q    Type
REMARK                         _______ _______ _______ _____ _____    ______ ____
ROOT
ATOM      1  C   LIG    1        8.248  -1.698   1.386  0.00  0.00    +0.240 C 
ATOM      2  C   LIG    1        8.039  -0.184   1.476  0.00  0.00    +0.020 C 
ATOM      3  C   LIG    1        7.257   0.293   0.248  0.00  0.00    +0.270 C 
ATOM      4  N   LIG    1        6.014  -0.483   0.148  0.00  0.00    -0.630 N 
ATOM      5  C   LIG    1        6.095  -1.950   0.150  0.00  0.00    +0.300 C 
ATOM      6  C   LIG    1        4.821   0.139   0.060  0.00  0.00    +0.710 C 
ATOM      7  N   LIG    1        4.767   1.482  -0.041  0.00  0.00    -0.680 N 
ATOM      8  H   LIG    1        5.586   1.994  -0.136  0.00  0.00    +0.410 HD
ATOM      9  O   LIG    1        3.794  -0.511   0.074  0.00  0.00    -0.560 OA
ATOM     10  C   LIG    1        6.890  -2.402   1.373  0.00  0.00    +0.010 C 
ENDROOT
BRANCH   7  11
ATOM     11  C   LIG    1        3.534   2.135  -0.011  0.00  0.00    +0.170 A 
ATOM     12  C   LIG    1        2.452   1.550   0.609  0.00  0.00    +0.020 A 
ATOM     13  C   LIG    1        1.218   2.193   0.645  0.00  0.00    +0.040 A 
ATOM     14  C   LIG    1        1.045   3.414   0.070  0.00  0.00    +0.000 A 
ATOM     15  C   LIG    1        2.123   4.046  -0.573  0.00  0.00    -0.030 A 
ATOM     16  C   LIG    1        1.974   5.307  -1.175  0.00  0.00    +0.030 A 
ATOM     17  C   LIG    1        3.040   5.891  -1.788  0.00  0.00    +0.000 A 
ATOM     18  C   LIG    1        4.279   5.256  -1.830  0.00  0.00    +0.010 A 
ATOM     19  C   LIG    1        4.460   4.034  -1.258  0.00  0.00    +0.010 A 
ATOM     20  C   LIG    1        3.384   3.402  -0.616  0.00  0.00    -0.070 A 
ENDBRANCH   7  11
BRANCH   1  22
ATOM     21  C   LIG    1        8.560  -1.854   3.899  0.00  0.00    +0.300 C 
ATOM     22  N   LIG    1        9.024  -2.153   2.542  0.00  0.00    -0.600 N 
BRANCH  22  23
ATOM     23  C   LIG    1       10.200  -2.869   2.351  0.00  0.00    +0.340 A 
ATOM     24  C   LIG    1       10.756  -2.977   1.077  0.00  0.00    -0.030 A 
ATOM     25  C   LIG    1       11.933  -3.697   0.942  0.00  0.00    +0.070 A 
ATOM     26  C   LIG    1       12.479  -4.276   2.079  0.00  0.00    +0.150 A 
ATOM     27  N   LIG    1       11.882  -4.128   3.245  0.00  0.00    -0.200 NA
ATOM     28  N   LIG    1       10.796  -3.458   3.379  0.00  0.00    -0.300 NA
ENDBRANCH  22  23
ENDBRANCH   1  22
TORSDOF 3
