REMARK  Name = ZINCpe000000TDXX.0
REMARK                            x       y       z     vdW  Elec       q    Type
REMARK                         _______ _______ _______ _____ _____    ______ ____
ROOT
ATOM      1  C   LIG    1        2.784   3.920  -0.004  0.00  0.00    +0.010 C 
ATOM      2  N   LIG    1        3.888   3.244  -0.012  0.00  0.00    -0.110 NA
ATOM      3  N   LIG    1        5.036   4.035  -0.024  0.00  0.00    -0.430 N 
ATOM      4  C   LIG    1        4.639   5.451  -0.013  0.00  0.00    +0.210 C 
ATOM      5  C   LIG    1        3.099   5.399   0.002  0.00  0.00    +0.140 C 
ENDROOT
BRANCH   3   6
ATOM      6  C   LIG    1        6.348   3.559  -0.040  0.00  0.00    +0.220 A 
ATOM      7  C   LIG    1        7.412   4.453  -0.051  0.00  0.00    -0.040 A 
ATOM      8  C   LIG    1        8.710   3.979  -0.060  0.00  0.00    +0.050 A 
ATOM      9  C   LIG    1        8.950   2.618  -0.069  0.00  0.00    -0.020 A 
ATOM     10  C   LIG    1        7.893   1.725  -0.064  0.00  0.00    +0.050 A 
ATOM     11  C   LIG    1        6.594   2.192  -0.049  0.00  0.00    -0.020 A 
ENDBRANCH   3   6
BRANCH   4  12
ATOM     12  C   LIG    1        5.158   6.137   1.225  0.00  0.00    +0.500 C 
ATOM     13  N   LIG    1        5.160   7.482   1.300  0.00  0.00    -0.730 N 
ATOM     14  H   LIG    1        4.827   8.010   0.556  0.00  0.00    +0.400 HD
ATOM     15  O   LIG    1        5.573   5.477   2.154  0.00  0.00    -0.500 OA
BRANCH  13  16
ATOM     16  C   LIG    1        5.663   8.149   2.503  0.00  0.00    +0.290 C 
BRANCH  16  17
ATOM     17  C   LIG    1        5.555   9.665   2.330  0.00  0.00    +0.110 C 
BRANCH  17  18
ATOM     18  C   LIG    1        6.073  10.350   3.568  0.00  0.00    +0.460 C 
ATOM     19  O   LIG    1        6.487   9.693   4.494  0.00  0.00    -0.500 OA
BRANCH  18  20
ATOM     20  O   LIG    1        6.075  11.690   3.643  0.00  0.00    -0.360 OA
ATOM     21  C   LIG    1        6.589  12.282   4.865  0.00  0.00    +0.280 C 
ENDBRANCH  18  20
ENDBRANCH  17  18
ENDBRANCH  16  17
ENDBRANCH  13  16
ENDBRANCH   4  12
BRANCH   1  22
ATOM     22  C   LIG    1        1.481   3.360   0.006  0.00  0.00    +0.550 C 
ATOM     23  O   LIG    1        0.506   4.088   0.019  0.00  0.00    -0.490 OA
BRANCH  22  24
ATOM     24  O   LIG    1        1.322   2.020   0.000  0.00  0.00    -0.340 OA
BRANCH  24  26
ATOM     25  C   LIG    1        0.002  -0.004   0.002  0.00  0.00    +0.070 C 
ATOM     26  C   LIG    1       -0.019   1.526   0.010  0.00  0.00    +0.200 C 
ENDBRANCH  24  26
ENDBRANCH  22  24
ENDBRANCH   1  22
TORSDOF 9
