REMARK  Name = ZINCvU00000004nF.0
REMARK                            x       y       z     vdW  Elec       q    Type
REMARK                         _______ _______ _______ _____ _____    ______ ____
ROOT
ATOM      1  O   LIG    1        5.986   6.185  -0.019  0.00  0.00    -0.490 OA
ATOM      2  C   LIG    1        5.395   5.125  -0.020  0.00  0.00    +0.580 C 
ATOM      3  N   LIG    1        4.047   5.105  -0.008  0.00  0.00    -0.460 N 
ATOM      4  N   LIG    1        3.254   3.959  -0.002  0.00  0.00    -0.230 NA
ATOM      5  C   LIG    1        1.985   4.197   0.006  0.00  0.00    +0.180 C 
ATOM      6  C   LIG    1        1.753   5.691   0.016  0.00  0.00    +0.100 C 
ATOM      7  C   LIG    1        3.174   6.289   0.006  0.00  0.00    +0.310 C 
ENDROOT
BRANCH   5   8
ATOM      8  C   LIG    1        0.932   3.177   0.010  0.00  0.00    -0.160 A 
ATOM      9  C   LIG    1        1.140   1.829   0.001  0.00  0.00    +0.070 A 
ATOM     10  C   LIG    1       -0.013   1.076   0.008  0.00  0.00    +0.010 A 
ATOM     11  C   LIG    1       -1.151   1.777   0.017  0.00  0.00    -0.030 A 
ATOM     12  S   LIG    1       -0.797   3.499   0.029  0.00  0.00    +0.160 S 
ENDBRANCH   5   8
BRANCH   7  13
ATOM     13  C   LIG    1        3.389   7.125  -1.229  0.00  0.00    -0.200 A 
ATOM     14  C   LIG    1        3.309   8.456  -1.280  0.00  0.00    +0.030 A 
ATOM     15  C   LIG    1        3.549   9.007  -2.527  0.00  0.00    +0.010 A 
ATOM     16  C   LIG    1        3.815   8.124  -3.490  0.00  0.00    -0.030 A 
ATOM     17  S   LIG    1        3.775   6.496  -2.825  0.00  0.00    +0.110 S 
ENDBRANCH   7  13
BRANCH   2  18
ATOM     18  C   LIG    1        6.168   3.832  -0.034  0.00  0.00    +0.110 C 
BRANCH  18  19
ATOM     19  S   LIG    1        7.946   4.190  -0.048  0.00  0.00    +0.110 S 
BRANCH  19  20
ATOM     20  C   LIG    1        8.674   2.586  -0.063  0.00  0.00    +0.200 A 
ATOM     21  N   LIG    1        8.015   1.450  -0.065  0.00  0.00    -0.310 NA
ATOM     22  N   LIG    1        8.971   0.422  -0.079  0.00  0.00    -0.470 N 
ATOM     23  H   LIG    1        8.798  -0.533  -0.083  0.00  0.00    +0.440 HD
ATOM     24  C   LIG    1       10.181   1.026  -0.085  0.00  0.00    +0.340 A 
ATOM     25  N   LIG    1        9.983   2.329  -0.081  0.00  0.00    -0.490 NA
BRANCH  24  26
ATOM     26  C   LIG    1       11.493   0.344  -0.100  0.00  0.00    -0.080 A 
ATOM     27  C   LIG    1       11.560  -1.049  -0.103  0.00  0.00    +0.060 A 
ATOM     28  C   LIG    1       12.787  -1.679  -0.122  0.00  0.00    +0.010 A 
ATOM     29  C   LIG    1       13.952  -0.932  -0.128  0.00  0.00    +0.080 A 
ATOM     30  C   LIG    1       13.896   0.449  -0.119  0.00  0.00    -0.010 A 
ATOM     31  C   LIG    1       12.673   1.093  -0.105  0.00  0.00    +0.160 A 
ATOM     32  F   LIG    1       12.618   2.443  -0.097  0.00  0.00    -0.110 F 
ENDBRANCH  24  26
ENDBRANCH  19  20
ENDBRANCH  18  19
ENDBRANCH   2  18
TORSDOF 6
