REMARK  Name = ZINCvU00000004nF.1
REMARK                            x       y       z     vdW  Elec       q    Type
REMARK                         _______ _______ _______ _____ _____    ______ ____
ROOT
ATOM      1  O   LIG    1        5.986   6.185  -0.023  0.00  0.00    -0.490 OA
ATOM      2  C   LIG    1        5.395   5.125  -0.023  0.00  0.00    +0.570 C 
ATOM      3  N   LIG    1        4.047   5.105  -0.009  0.00  0.00    -0.460 N 
ATOM      4  N   LIG    1        3.254   3.959  -0.008  0.00  0.00    -0.230 NA
ATOM      5  C   LIG    1        1.985   4.197   0.006  0.00  0.00    +0.180 C 
ATOM      6  C   LIG    1        1.753   5.691   0.010  0.00  0.00    +0.100 C 
ATOM      7  C   LIG    1        3.174   6.289   0.006  0.00  0.00    +0.310 C 
ENDROOT
BRANCH   5   8
ATOM      8  C   LIG    1        0.932   3.177   0.010  0.00  0.00    -0.160 A 
ATOM      9  C   LIG    1        1.140   1.829   0.001  0.00  0.00    +0.070 A 
ATOM     10  C   LIG    1       -0.013   1.076   0.008  0.00  0.00    +0.010 A 
ATOM     11  C   LIG    1       -1.151   1.777   0.017  0.00  0.00    -0.030 A 
ATOM     12  S   LIG    1       -0.797   3.499   0.029  0.00  0.00    +0.160 S 
ENDBRANCH   5   8
BRANCH   7  13
ATOM     13  C   LIG    1        3.392   7.125  -1.229  0.00  0.00    -0.200 A 
ATOM     14  C   LIG    1        3.393   8.458  -1.265  0.00  0.00    +0.030 A 
ATOM     15  C   LIG    1        3.618   9.008  -2.515  0.00  0.00    +0.000 A 
ATOM     16  C   LIG    1        3.790   8.121  -3.497  0.00  0.00    -0.030 A 
ATOM     17  S   LIG    1        3.675   6.491  -2.845  0.00  0.00    +0.110 S 
ENDBRANCH   7  13
BRANCH   2  18
ATOM     18  C   LIG    1        6.168   3.832  -0.038  0.00  0.00    +0.150 C 
BRANCH  18  19
ATOM     19  S   LIG    1        7.942   4.190  -0.054  0.00  0.00    +0.090 S 
BRANCH  19  20
ATOM     20  C   LIG    1        8.585   2.549  -0.070  0.00  0.00    +0.250 A 
ATOM     21  N   LIG    1        7.876   1.442  -0.063  0.00  0.00    -0.530 NA
ATOM     22  C   LIG    1        8.697   0.381  -0.082  0.00  0.00    +0.270 A 
ATOM     23  N   LIG    1        9.940   0.806  -0.092  0.00  0.00    -0.280 NA
ATOM     24  N   LIG    1        9.893   2.209  -0.085  0.00  0.00    -0.460 N 
ATOM     25  H   LIG    1       10.650   2.815  -0.090  0.00  0.00    +0.450 HD
BRANCH  22  26
ATOM     26  C   LIG    1        8.270  -1.040  -0.085  0.00  0.00    -0.050 A 
ATOM     27  C   LIG    1        6.915  -1.363  -0.067  0.00  0.00    +0.090 A 
ATOM     28  C   LIG    1        6.524  -2.687  -0.076  0.00  0.00    +0.000 A 
ATOM     29  C   LIG    1        7.473  -3.693  -0.090  0.00  0.00    +0.070 A 
ATOM     30  C   LIG    1        8.820  -3.380  -0.102  0.00  0.00    -0.020 A 
ATOM     31  C   LIG    1        9.225  -2.058  -0.099  0.00  0.00    +0.130 A 
ATOM     32  F   LIG    1       10.540  -1.752  -0.111  0.00  0.00    -0.120 F 
ENDBRANCH  22  26
ENDBRANCH  19  20
ENDBRANCH  18  19
ENDBRANCH   2  18
TORSDOF 6
