REMARK  Name = ZINCqH00000099tX.0
REMARK                            x       y       z     vdW  Elec       q    Type
REMARK                         _______ _______ _______ _____ _____    ______ ____
ROOT
ATOM      1  N   LIG    1        3.227   5.505  -2.383  0.00  0.00    -0.740 N 
ATOM      2  H   LIG    1        4.123   5.192  -2.183  0.00  0.00    +0.390 HD
ATOM      3  C   LIG    1        2.171   4.987  -1.726  0.00  0.00    +0.710 C 
ATOM      4  N   LIG    1        2.360   4.034  -0.791  0.00  0.00    -0.620 N 
ATOM      5  C   LIG    1        3.713   3.561  -0.490  0.00  0.00    +0.280 C 
ATOM      6  O   LIG    1        1.047   5.379  -1.975  0.00  0.00    -0.580 OA
ENDROOT
BRANCH   1   8
ATOM      7  C   LIG    1        2.956   7.912  -2.722  0.00  0.00    +0.040 C 
ATOM      8  C   LIG    1        3.022   6.541  -3.398  0.00  0.00    +0.300 C 
BRANCH   8   9
ATOM      9  C   LIG    1        4.167   6.519  -4.378  0.00  0.00    -0.100 A 
ATOM     10  C   LIG    1        5.458   6.325  -3.924  0.00  0.00    +0.040 A 
ATOM     11  C   LIG    1        6.510   6.299  -4.820  0.00  0.00    -0.010 A 
ATOM     12  C   LIG    1        6.269   6.478  -6.176  0.00  0.00    +0.160 A 
ATOM     13  C   LIG    1        4.971   6.677  -6.627  0.00  0.00    +0.030 A 
ATOM     14  C   LIG    1        3.924   6.697  -5.727  0.00  0.00    +0.060 A 
BRANCH  12  15
ATOM     15  N   LIG    1        7.334   6.456  -7.087  0.00  0.00    -0.330 N 
ATOM     16  C   LIG    1        8.639   6.278  -6.782  0.00  0.00    +0.230 A 
ATOM     17  C   LIG    1        9.342   6.320  -7.937  0.00  0.00    -0.100 A 
ATOM     18  C   LIG    1        8.438   6.540  -8.983  0.00  0.00    +0.250 A 
ATOM     19  N   LIG    1        7.235   6.622  -8.475  0.00  0.00    -0.290 NA
ENDBRANCH  12  15
ENDBRANCH   8   9
ENDBRANCH   1   8
BRANCH   4  20
ATOM     20  C   LIG    1        1.211   3.470  -0.077  0.00  0.00    +0.320 C 
ATOM     21  C   LIG    1        1.440   3.591   1.431  0.00  0.00    +0.040 C 
BRANCH  20  22
ATOM     22  C   LIG    1        1.054   2.018  -0.447  0.00  0.00    -0.150 A 
ATOM     23  C   LIG    1        2.112   1.135  -0.293  0.00  0.00    +0.070 A 
ATOM     24  C   LIG    1        1.921  -0.192  -0.645  0.00  0.00    -0.030 A 
ATOM     25  C   LIG    1        0.691  -0.589  -1.135  0.00  0.00    +0.260 A 
ATOM     26  N   LIG    1       -0.294   0.279  -1.268  0.00  0.00    -0.480 NA
ATOM     27  C   LIG    1       -0.148   1.548  -0.943  0.00  0.00    +0.280 A 
ENDBRANCH  20  22
ENDBRANCH   4  20
TORSDOF 5
