REMARK  Name = ZINCb700000010cZ.0
REMARK                            x       y       z     vdW  Elec       q    Type
REMARK                         _______ _______ _______ _____ _____    ______ ____
ROOT
ATOM      1  C   LIG    1       -0.997   1.974   1.431  0.00  0.00    -0.450 C 
ATOM      2  C   LIG    1       -1.250   3.480   1.320  0.00  0.00    +0.100 C 
ATOM      3  C   LIG    1       -2.006   3.957   2.562  0.00  0.00    +0.280 C 
ATOM      4  N   LIG    1       -1.210   3.679   3.763  0.00  0.00    -0.510 N 
ATOM      5  C   LIG    1       -1.026   2.231   3.914  0.00  0.00    +0.280 C 
ATOM      6  H   LIG    1       -0.309   4.125   3.678  0.00  0.00    +0.430 HD
ATOM      7  H   LIG    1       -1.688   4.043   4.574  0.00  0.00    +0.440 HD
ATOM      8  C   LIG    1       -0.230   1.687   2.725  0.00  0.00    +0.100 C 
ENDROOT
BRANCH   1   9
ATOM      9  S   LIG    1       -0.017   1.417   0.010  0.00  0.00    +2.420 S 
ATOM     10  O   LIG    1        1.213   2.127   0.002  0.00  0.00    -0.920 OA
ATOM     11  O   LIG    1        0.002  -0.004   0.002  0.00  0.00    -0.920 OA
BRANCH   9  13
ATOM     12  C   LIG    1       -0.342   1.601  -2.700  0.00  0.00    +0.100 C 
ATOM     13  C   LIG    1       -1.024   1.989  -1.387  0.00  0.00    -0.340 C 
ENDBRANCH   9  13
ENDBRANCH   1   9
TORSDOF 2
