REMARK  Name = ZINCrH000004vD4G.2
REMARK                            x       y       z     vdW  Elec       q    Type
REMARK                         _______ _______ _______ _____ _____    ______ ____
ROOT
ATOM      1  O   LIG    1        4.732  -0.076  -0.149  0.00  0.00    -0.510 OA
ATOM      2  C   LIG    1        3.691  -0.693  -0.035  0.00  0.00    +0.560 C 
ATOM      3  N   LIG    1        3.712  -2.038   0.060  0.00  0.00    -0.610 N 
ATOM      4  C   LIG    1        2.430  -2.769   0.071  0.00  0.00    +0.260 C 
ATOM      5  C   LIG    1        2.507  -4.039  -0.798  0.00  0.00    +0.030 C 
ATOM      6  C   LIG    1        3.295  -3.750  -2.058  0.00  0.00    +0.190 C 
ATOM      7  N   LIG    1        4.700  -4.080  -1.829  0.00  0.00    -0.560 NA
ATOM      8  C   LIG    1        5.502  -3.060  -1.266  0.00  0.00    +0.170 C 
ATOM      9  C   LIG    1        4.992  -2.710   0.153  0.00  0.00    +0.300 C 
ENDROOT
BRANCH   2  10
ATOM     10  C   LIG    1        2.405   0.029  -0.001  0.00  0.00    -0.160 A 
ATOM     11  C   LIG    1        1.510  -0.181   1.050  0.00  0.00    +0.060 A 
ATOM     12  C   LIG    1        0.310   0.497   1.076  0.00  0.00    +0.000 A 
ATOM     13  C   LIG    1       -0.013   1.386   0.065  0.00  0.00    +0.050 A 
ATOM     14  C   LIG    1        0.863   1.603  -0.981  0.00  0.00    -0.010 A 
ATOM     15  C   LIG    1        2.075   0.929  -1.024  0.00  0.00    +0.150 A 
BRANCH  15  16
ATOM     16  O   LIG    1        2.936   1.140  -2.050  0.00  0.00    -0.480 OA
ATOM     17  H   LIG    1        2.805   0.546  -2.802  0.00  0.00    +0.390 HD
ENDBRANCH  15  16
ENDBRANCH   2  10
BRANCH   7  18
ATOM     18  C   LIG    1        5.318  -4.623  -3.047  0.00  0.00    +0.240 C 
BRANCH  18  19
ATOM     19  C   LIG    1        6.599  -5.330  -2.688  0.00  0.00    -0.050 A 
ATOM     20  C   LIG    1        7.793  -4.634  -2.677  0.00  0.00    +0.010 A 
ATOM     21  C   LIG    1        8.968  -5.281  -2.342  0.00  0.00    +0.070 A 
ATOM     22  C   LIG    1        8.950  -6.628  -2.029  0.00  0.00    -0.180 A 
ATOM     23  C   LIG    1        7.757  -7.325  -2.046  0.00  0.00    +0.070 A 
ATOM     24  C   LIG    1        6.582  -6.676  -2.374  0.00  0.00    +0.040 A 
BRANCH  22  25
ATOM     25  C   LIG    1       10.232  -7.335  -1.669  0.00  0.00    +0.510 C 
ATOM     26  F   LIG    1        9.954  -8.379  -0.781  0.00  0.00    -0.180 F 
ATOM     27  F   LIG    1       11.110  -6.429  -1.065  0.00  0.00    -0.180 F 
ATOM     28  F   LIG    1       10.820  -7.852  -2.829  0.00  0.00    -0.180 F 
ENDBRANCH  22  25
ENDBRANCH  18  19
ENDBRANCH   7  18
TORSDOF 5
