REMARK  Name = ZINCpk00000y6vBp.0
REMARK                            x       y       z     vdW  Elec       q    Type
REMARK                         _______ _______ _______ _____ _____    ______ ____
ROOT
ATOM      1  C   LIG    1       -1.021   7.372  -0.162  0.00  0.00    -0.150 A 
ATOM      2  C   LIG    1        0.208   8.034  -0.163  0.00  0.00    +0.110 A 
ATOM      3  C   LIG    1        0.247   9.409  -0.265  0.00  0.00    +0.000 A 
ATOM      4  C   LIG    1       -0.929  10.133  -0.355  0.00  0.00    +0.160 A 
ATOM      5  C   LIG    1       -2.151   9.483  -0.349  0.00  0.00    -0.680 A 
ATOM      6  C   LIG    1       -2.204   8.108  -0.252  0.00  0.00    +0.200 A 
ENDROOT
BRANCH   1   8
ATOM      7  O   LIG    1       -2.142   5.325  -0.052  0.00  0.00    -0.460 OA
ATOM      8  C   LIG    1       -1.070   5.898  -0.058  0.00  0.00    +0.550 C 
ATOM      9  N   LIG    1        0.074   5.190   0.029  0.00  0.00    -0.660 N 
ATOM     10  H   LIG    1        0.925   5.650   0.099  0.00  0.00    +0.420 HD
BRANCH   9  11
ATOM     11  C   LIG    1        0.033   3.798   0.020  0.00  0.00    +0.360 A 
ATOM     12  C   LIG    1        1.220   3.074   0.004  0.00  0.00    -0.070 A 
ATOM     13  C   LIG    1        1.166   1.692  -0.001  0.00  0.00    +0.090 A 
ATOM     14  C   LIG    1       -0.079   1.078   0.000  0.00  0.00    -0.060 A 
ATOM     15  C   LIG    1       -1.218   1.859   0.017  0.00  0.00    +0.290 A 
ATOM     16  N   LIG    1       -1.135   3.175   0.026  0.00  0.00    -0.480 NA
ENDBRANCH   9  11
ENDBRANCH   1   8
BRANCH   5  17
ATOM     17  S   LIG    1       -3.642  10.414  -0.463  0.00  0.00    +2.690 S 
ATOM     18  O   LIG    1       -4.628   9.530  -0.978  0.00  0.00    -0.940 OA
ATOM     19  O   LIG    1       -3.300  11.645  -1.086  0.00  0.00    -0.950 OA
BRANCH  17  20
ATOM     20  N   LIG    1       -4.108  10.786   1.082  0.00  0.00    -0.990 NA
ATOM     21  C   LIG    1       -3.647  12.023   1.726  0.00  0.00    +0.280 C 
ATOM     22  C   LIG    1       -4.866  12.799   2.234  0.00  0.00    +0.020 C 
ATOM     23  C   LIG    1       -5.701  11.892   3.141  0.00  0.00    -0.010 C 
ATOM     24  C   LIG    1       -6.195  10.684   2.341  0.00  0.00    +0.150 C 
ATOM     25  C   LIG    1       -4.995   9.887   1.832  0.00  0.00    +0.300 C 
BRANCH  24  26
ATOM     26  O   LIG    1       -7.000   9.854   3.181  0.00  0.00    -0.560 OA
ATOM     27  H   LIG    1       -7.781  10.297   3.540  0.00  0.00    +0.380 HD
ENDBRANCH  24  26
ENDBRANCH  17  20
ENDBRANCH   5  17
TORSDOF 5
