REMARK  Name = ZINCpe00000MJIfi.0
REMARK                            x       y       z     vdW  Elec       q    Type
REMARK                         _______ _______ _______ _____ _____    ______ ____
ROOT
ATOM      1  C   LIG    1        3.221   6.656   1.171  0.00  0.00    +0.520 C 
ATOM      2  N   LIG    1        3.999   7.738   1.371  0.00  0.00    -0.710 N 
ATOM      3  H   LIG    1        3.936   8.498   0.772  0.00  0.00    +0.410 HD
ATOM      4  O   LIG    1        3.299   5.705   1.920  0.00  0.00    -0.520 OA
ENDROOT
BRANCH   2   5
ATOM      5  C   LIG    1        4.940   7.766   2.494  0.00  0.00    +0.230 C 
ATOM      6  C   LIG    1        6.313   7.205   2.063  0.00  0.00    +0.200 C 
ATOM      7  O   LIG    1        7.087   8.367   1.693  0.00  0.00    -0.360 OA
ATOM      8  C   LIG    1        6.764   9.370   2.681  0.00  0.00    +0.200 C 
ATOM      9  C   LIG    1        5.243   9.223   2.910  0.00  0.00    +0.150 C 
BRANCH   9  10
ATOM     10  O   LIG    1        4.522  10.140   2.084  0.00  0.00    -0.290 OA
BRANCH  10  11
ATOM     11  C   LIG    1        4.164  11.328   2.646  0.00  0.00    -0.030 A 
ATOM     12  C   LIG    1        3.480  12.326   2.034  0.00  0.00    +0.220 A 
ATOM     13  N   LIG    1        3.327  13.331   2.935  0.00  0.00    -0.470 N 
ATOM     14  H   LIG    1        2.876  14.175   2.778  0.00  0.00    +0.450 HD
ATOM     15  N   LIG    1        3.937  12.932   4.131  0.00  0.00    -0.260 NA
ATOM     16  C   LIG    1        4.432  11.732   3.960  0.00  0.00    +0.190 A 
ENDBRANCH  10  11
ENDBRANCH   9  10
ENDBRANCH   2   5
BRANCH   1  17
ATOM     17  C   LIG    1        2.253   6.627   0.016  0.00  0.00    +0.160 C 
BRANCH  17  25
ATOM     18  C   LIG    1        2.475   1.051  -0.017  0.00  0.00    +0.130 C 
ATOM     19  C   LIG    1        1.154   1.775   0.001  0.00  0.00    -0.040 A 
ATOM     20  C   LIG    1       -0.013   1.076   0.008  0.00  0.00    +0.020 A 
ATOM     21  C   LIG    1       -1.237   1.765   0.018  0.00  0.00    +0.020 A 
ATOM     22  C   LIG    1       -1.258   3.114   0.030  0.00  0.00    +0.200 A 
ATOM     23  N   LIG    1       -0.095   3.828   0.024  0.00  0.00    -0.360 N 
ATOM     24  C   LIG    1        0.167   5.171   0.028  0.00  0.00    +0.090 A 
ATOM     25  C   LIG    1        1.510   5.316   0.016  0.00  0.00    +0.070 A 
ATOM     26  N   LIG    1        2.069   4.104   0.004  0.00  0.00    -0.460 NA
ATOM     27  C   LIG    1        1.115   3.184   0.009  0.00  0.00    +0.220 A 
ENDBRANCH  17  25
ENDBRANCH   1  17
TORSDOF 5
