REMARK  Name = ZINCrD00000hQ4Eh.0
REMARK                            x       y       z     vdW  Elec       q    Type
REMARK                         _______ _______ _______ _____ _____    ______ ____
ROOT
ATOM      1  N   LIG    1       -3.747   6.738  -0.047  0.00  0.00    -0.590 N 
ATOM      2  C   LIG    1       -3.106   7.919  -0.103  0.00  0.00    +0.530 C 
ATOM      3  C   LIG    1       -1.644   7.702  -0.070  0.00  0.00    +0.110 C 
ATOM      4  C   LIG    1       -1.394   6.373  -0.003  0.00  0.00    -0.230 C 
ATOM      5  O   LIG    1       -3.649   9.005  -0.166  0.00  0.00    -0.490 OA
ATOM      6  C   LIG    1       -2.735   5.678   0.019  0.00  0.00    +0.340 C 
ENDROOT
BRANCH   6   7
ATOM      7  C   LIG    1       -2.862   4.761  -1.170  0.00  0.00    -0.120 A 
ATOM      8  C   LIG    1       -3.082   5.290  -2.429  0.00  0.00    +0.070 A 
ATOM      9  C   LIG    1       -3.194   4.451  -3.521  0.00  0.00    -0.010 A 
ATOM     10  C   LIG    1       -3.098   3.080  -3.353  0.00  0.00    +0.110 A 
ATOM     11  C   LIG    1       -2.884   2.551  -2.091  0.00  0.00    -0.010 A 
ATOM     12  F   LIG    1       -3.213   2.259  -4.419  0.00  0.00    -0.140 F 
ATOM     13  C   LIG    1       -2.766   3.393  -1.001  0.00  0.00    +0.070 A 
ENDBRANCH   6   7
BRANCH   4  14
ATOM     14  C   LIG    1       -0.076   5.734   0.046  0.00  0.00    +0.470 C 
ATOM     15  O   LIG    1        0.672   5.808  -0.911  0.00  0.00    -0.430 OA
BRANCH  14  16
ATOM     16  C   LIG    1        0.345   4.998   1.258  0.00  0.00    -0.170 A 
ATOM     17  C   LIG    1        1.568   4.324   1.280  0.00  0.00    +0.090 A 
ATOM     18  C   LIG    1        1.954   3.640   2.414  0.00  0.00    +0.000 A 
ATOM     19  C   LIG    1        1.132   3.620   3.527  0.00  0.00    -0.050 A 
ATOM     20  C   LIG    1       -0.083   4.282   3.510  0.00  0.00    +0.000 A 
ATOM     21  C   LIG    1        1.561   2.871   4.762  0.00  0.00    +0.100 C 
ATOM     22  C   LIG    1       -0.479   4.974   2.385  0.00  0.00    +0.060 A 
ENDBRANCH  14  16
ENDBRANCH   4  14
BRANCH   3  23
ATOM     23  O   LIG    1       -0.706   8.676  -0.105  0.00  0.00    -0.430 OA
ATOM     24  H   LIG    1       -1.070   9.571  -0.153  0.00  0.00    +0.410 HD
ENDBRANCH   3  23
BRANCH   1  25
ATOM     25  C   LIG    1       -5.199   6.544  -0.053  0.00  0.00    +0.340 C 
BRANCH  25  26
ATOM     26  C   LIG    1       -5.721   6.552   1.385  0.00  0.00    +0.160 C 
BRANCH  26  28
ATOM     27  C   LIG    1       -5.969   7.959   3.309  0.00  0.00    +0.200 C 
ATOM     28  O   LIG    1       -5.514   7.844   1.960  0.00  0.00    -0.380 OA
ENDBRANCH  26  28
ENDBRANCH  25  26
ENDBRANCH   1  25
TORSDOF 7
