REMARK  Name = ZINCpe000000Uxlo.1
REMARK                            x       y       z     vdW  Elec       q    Type
REMARK                         _______ _______ _______ _____ _____    ______ ____
ROOT
ATOM      1  C   LIG    1       -3.895  -2.204  -1.773  0.00  0.00    +0.560 C 
ATOM      2  N   LIG    1       -4.313  -0.981  -1.388  0.00  0.00    -0.720 N 
ATOM      3  H   LIG    1       -4.796  -0.416  -2.010  0.00  0.00    +0.400 HD
ATOM      4  O   LIG    1       -3.288  -2.912  -0.993  0.00  0.00    -0.460 OA
ENDROOT
BRANCH   2   5
ATOM      5  C   LIG    1       -4.036  -0.506  -0.030  0.00  0.00    +0.280 C 
ATOM      6  C   LIG    1       -5.085   0.535   0.368  0.00  0.00    +0.040 C 
ATOM      7  C   LIG    1       -4.825   1.815  -0.435  0.00  0.00    +0.030 C 
ATOM      8  C   LIG    1       -3.502   2.425   0.036  0.00  0.00    +0.270 C 
ATOM      9  N   LIG    1       -2.446   1.421   0.021  0.00  0.00    -0.540 N 
ATOM     10  C   LIG    1       -2.666   0.105   0.015  0.00  0.00    +0.510 C 
ATOM     11  O   LIG    1       -1.707  -0.637   0.049  0.00  0.00    -0.500 OA
BRANCH   9  12
ATOM     12  C   LIG    1       -1.123   1.863   0.017  0.00  0.00    +0.300 A 
ATOM     13  C   LIG    1       -0.371   2.159   1.112  0.00  0.00    -0.100 A 
ATOM     14  C   LIG    1        0.892   2.557   0.668  0.00  0.00    +0.240 A 
ATOM     15  N   LIG    1        0.903   2.509  -0.639  0.00  0.00    -0.280 NA
ATOM     16  N   LIG    1       -0.355   2.077  -1.076  0.00  0.00    -0.370 N 
ATOM     17  C   LIG    1       -0.766   1.886  -2.469  0.00  0.00    +0.340 C 
ENDBRANCH   9  12
ENDBRANCH   2   5
BRANCH   1  23
ATOM     18  C   LIG    1       -3.737  -3.955  -3.558  0.00  0.00    +0.200 A 
ATOM     19  C   LIG    1       -4.033  -4.355  -4.860  0.00  0.00    -0.070 A 
ATOM     20  C   LIG    1       -4.725  -3.497  -5.687  0.00  0.00    +0.290 A 
ATOM     21  N   LIG    1       -5.115  -2.307  -5.266  0.00  0.00    -0.490 NA
ATOM     22  C   LIG    1       -4.867  -1.880  -4.045  0.00  0.00    +0.300 A 
ATOM     23  C   LIG    1       -4.173  -2.682  -3.140  0.00  0.00    -0.170 A 
BRANCH  18  25
ATOM     24  C   LIG    1       -3.757  -6.051  -2.491  0.00  0.00    +0.210 C 
ATOM     25  N   LIG    1       -3.039  -4.786  -2.698  0.00  0.00    -0.500 N 
ATOM     26  C   LIG    1       -1.677  -5.029  -3.192  0.00  0.00    +0.210 C 
ENDBRANCH  18  25
ENDBRANCH   1  23
TORSDOF 4
