REMARK  Name = ZINCrH000004rbJZ.0
REMARK                            x       y       z     vdW  Elec       q    Type
REMARK                         _______ _______ _______ _____ _____    ______ ____
ROOT
ATOM      1  N   LIG    1       -1.350   5.596   0.042  0.00  0.00    -0.520 N 
ATOM      2  C   LIG    1       -0.012   5.829   0.031  0.00  0.00    +0.610 A 
ATOM      3  N   LIG    1        0.852   4.859   0.018  0.00  0.00    -0.500 NA
ATOM      4  C   LIG    1        0.467   3.564   0.016  0.00  0.00    +0.080 A 
ATOM      5  C   LIG    1       -0.888   3.253   0.026  0.00  0.00    -0.220 A 
ATOM      6  C   LIG    1       -1.124   1.815   0.017  0.00  0.00    +0.030 A 
ATOM      7  C   LIG    1       -0.013   1.076   0.008  0.00  0.00    -0.040 A 
ATOM      8  S   LIG    1        1.420   2.086  -0.000  0.00  0.00    +0.230 S 
ATOM      9  C   LIG    1       -1.821   4.334   0.039  0.00  0.00    +0.560 A 
ATOM     10  O   LIG    1       -3.021   4.119   0.049  0.00  0.00    -0.500 OA
ENDROOT
BRANCH   6  11
ATOM     11  C   LIG    1       -2.479   1.225   0.020  0.00  0.00    -0.140 A 
ATOM     12  C   LIG    1       -2.916   0.273  -0.829  0.00  0.00    +0.020 A 
ATOM     13  C   LIG    1       -4.223  -0.123  -0.627  0.00  0.00    +0.000 A 
ATOM     14  C   LIG    1       -4.856   0.502   0.369  0.00  0.00    -0.070 A 
ATOM     15  S   LIG    1       -3.774   1.662   1.128  0.00  0.00    +0.170 S 
ENDBRANCH   6  11
BRANCH   1  16
ATOM     16  C   LIG    1       -2.286   6.723   0.055  0.00  0.00    +0.340 C 
BRANCH  16  18
ATOM     17  N   LIG    1       -3.468   8.137  -1.595  0.00  0.00    -0.610 N 
ATOM     18  C   LIG    1       -2.620   7.116  -1.361  0.00  0.00    +0.500 C 
ATOM     19  O   LIG    1       -2.124   6.514  -2.290  0.00  0.00    -0.510 OA
ATOM     20  C   LIG    1       -4.067   8.864  -0.472  0.00  0.00    +0.300 C 
BRANCH  17  21
ATOM     21  C   LIG    1       -3.793   8.519  -2.971  0.00  0.00    +0.420 C 
BRANCH  21  26
ATOM     22  C   LIG    1       -6.622   4.875  -5.010  0.00  0.00    +0.170 C 
ATOM     23  C   LIG    1       -6.227   6.158  -4.324  0.00  0.00    -0.000 A 
ATOM     24  C   LIG    1       -7.072   7.105  -3.880  0.00  0.00    -0.070 A 
ATOM     25  C   LIG    1       -6.279   8.126  -3.308  0.00  0.00    -0.040 A 
ATOM     26  C   LIG    1       -4.997   7.742  -3.438  0.00  0.00    -0.040 A 
ATOM     27  O   LIG    1       -4.971   6.552  -4.059  0.00  0.00    -0.160 OA
ENDBRANCH  21  26
ENDBRANCH  17  21
ENDBRANCH  16  18
ENDBRANCH   1  16
TORSDOF 5
