REMARK  Name = ZINCrH000004jY4i.0
REMARK                            x       y       z     vdW  Elec       q    Type
REMARK                         _______ _______ _______ _____ _____    ______ ____
ROOT
ATOM      1  C   LIG    1       -0.382   5.861  -2.324  0.00  0.00    +0.290 C 
ATOM      2  N   LIG    1        0.805   5.744  -1.474  0.00  0.00    -0.610 N 
ATOM      3  C   LIG    1        2.015   6.095  -1.953  0.00  0.00    +0.570 C 
ATOM      4  O   LIG    1        3.015   5.881  -1.295  0.00  0.00    -0.530 OA
ENDROOT
BRANCH   3   5
ATOM      5  C   LIG    1        2.126   6.740  -3.276  0.00  0.00    -0.180 A 
ATOM      6  C   LIG    1        1.016   7.369  -3.844  0.00  0.00    +0.080 A 
ATOM      7  C   LIG    1        1.125   7.974  -5.076  0.00  0.00    -0.080 A 
ATOM      8  C   LIG    1        2.335   7.949  -5.760  0.00  0.00    +0.160 A 
ATOM      9  C   LIG    1        3.441   7.319  -5.200  0.00  0.00    -0.020 A 
ATOM     10  C   LIG    1        3.341   6.717  -3.966  0.00  0.00    +0.120 A 
BRANCH   8  11
ATOM     11  O   LIG    1        2.437   8.541  -6.977  0.00  0.00    -0.310 OA
BRANCH  11  12
ATOM     12  C   LIG    1        1.262   9.170  -7.493  0.00  0.00    +0.320 C 
BRANCH  12  13
ATOM     13  C   LIG    1        1.564   9.768  -8.843  0.00  0.00    +0.050 A 
ATOM     14  C   LIG    1        2.769   9.687  -9.416  0.00  0.00    -0.040 A 
ATOM     15  S   LIG    1        2.685  10.510 -10.972  0.00  0.00    +0.140 S 
ATOM     16  C   LIG    1        1.038  10.880 -10.697  0.00  0.00    +0.240 A 
ATOM     17  N   LIG    1        0.660  10.407  -9.557  0.00  0.00    -0.470 NA
ENDBRANCH  12  13
ENDBRANCH  11  12
ENDBRANCH   8  11
ENDBRANCH   3   5
BRANCH   2  18
ATOM     18  C   LIG    1        0.677   5.246  -0.102  0.00  0.00    +0.350 C 
BRANCH  18  19
ATOM     19  C   LIG    1        0.835   3.747  -0.095  0.00  0.00    -0.100 A 
ATOM     20  C   LIG    1       -0.274   2.937  -0.247  0.00  0.00    +0.040 A 
ATOM     21  C   LIG    1       -0.134   1.561  -0.246  0.00  0.00    +0.040 A 
ATOM     22  C   LIG    1        1.118   0.992  -0.083  0.00  0.00    +0.040 A 
ATOM     23  O   LIG    1        1.521  -0.312  -0.043  0.00  0.00    -0.310 OA
ATOM     24  C   LIG    1        2.836  -0.289   0.545  0.00  0.00    +0.430 C 
ATOM     25  O   LIG    1        3.339   1.017   0.207  0.00  0.00    -0.310 OA
ATOM     26  C   LIG    1        2.236   1.809   0.071  0.00  0.00    +0.030 A 
ATOM     27  C   LIG    1        2.088   3.186   0.064  0.00  0.00    +0.070 A 
ENDBRANCH  18  19
ENDBRANCH   2  18
TORSDOF 6
