REMARK  Name = ZINCkj000005hz2q.0
REMARK                            x       y       z     vdW  Elec       q    Type
REMARK                         _______ _______ _______ _____ _____    ______ ____
ROOT
ATOM      1  C   LIG    1       -4.491   1.670  -1.418  0.00  0.00    +0.150 C 
ATOM      2  C   LIG    1       -4.631   0.148  -1.342  0.00  0.00    +0.050 C 
ATOM      3  C   LIG    1       -3.241  -0.494  -1.328  0.00  0.00    +0.050 C 
ATOM      4  C   LIG    1       -2.475  -0.016  -0.096  0.00  0.00    +0.280 C 
ATOM      5  N   LIG    1       -2.462   1.453  -0.080  0.00  0.00    -0.610 N 
ATOM      6  C   LIG    1       -1.300   2.128   0.020  0.00  0.00    +0.580 C 
ATOM      7  O   LIG    1       -1.306   3.341   0.092  0.00  0.00    -0.510 OA
ATOM      8  C   LIG    1       -3.739   2.172  -0.181  0.00  0.00    +0.310 C 
ENDROOT
BRANCH   6   9
ATOM      9  C   LIG    1       -0.018   1.393   0.042  0.00  0.00    -0.210 A 
ATOM     10  C   LIG    1        1.032   1.772  -0.802  0.00  0.00    +0.410 A 
ATOM     11  N   LIG    1        2.183   1.136  -0.795  0.00  0.00    -0.450 NA
ATOM     12  C   LIG    1        2.406   0.108   0.007  0.00  0.00    +0.240 A 
ATOM     13  O   LIG    1        3.446  -0.714   0.232  0.00  0.00    +0.090 OA
ATOM     14  N   LIG    1        3.218  -1.546   1.079  0.00  0.00    -0.300 NA
ATOM     15  C   LIG    1        2.022  -1.460   1.581  0.00  0.00    +0.070 A 
ATOM     16  C   LIG    1        1.413  -2.333   2.649  0.00  0.00    +0.190 C 
ATOM     17  C   LIG    1        1.393  -0.332   0.887  0.00  0.00    -0.220 A 
ATOM     18  C   LIG    1        0.166   0.312   0.910  0.00  0.00    +0.200 A 
ENDBRANCH   6   9
BRANCH   1  20
ATOM     19  C   LIG    1       -5.689   3.735  -1.654  0.00  0.00    +0.340 C 
ATOM     20  N   LIG    1       -5.824   2.284  -1.464  0.00  0.00    -0.500 N 
ATOM     21  H   LIG    1       -6.309   2.102  -0.598  0.00  0.00    +0.430 HD
ATOM     22  H   LIG    1       -6.349   1.892  -2.232  0.00  0.00    +0.430 HD
ENDBRANCH   1  20
TORSDOF 2
