REMARK  Name = ZINCrm000000GqhE.1
REMARK                            x       y       z     vdW  Elec       q    Type
REMARK                         _______ _______ _______ _____ _____    ______ ____
ROOT
ATOM      1  C   LIG    1       -2.029   0.234  -8.164  0.00  0.00    +0.140 C 
ATOM      2  C   LIG    1       -2.609   1.614  -7.755  0.00  0.00    +0.060 C 
ATOM      3  C   LIG    1       -2.266   1.702  -6.253  0.00  0.00    +0.260 C 
ATOM      4  N   LIG    1       -1.142   0.787  -6.008  0.00  0.00    -0.610 N 
ATOM      5  C   LIG    1       -0.559   0.561  -4.814  0.00  0.00    +0.540 C 
ATOM      6  O   LIG    1        0.366  -0.218  -4.728  0.00  0.00    -0.520 OA
ATOM      7  C   LIG    1       -0.753   0.163  -7.286  0.00  0.00    +0.280 C 
ENDROOT
BRANCH   1  11
ATOM      8  N   LIG    1       -1.824  -0.826 -12.251  0.00  0.00    -0.390 N 
ATOM      9  C   LIG    1       -0.621  -1.009 -11.429  0.00  0.00    +0.280 C 
ATOM     10  C   LIG    1       -1.014  -1.048  -9.950  0.00  0.00    +0.200 C 
ATOM     11  N   LIG    1       -1.686   0.209  -9.592  0.00  0.00    -0.530 NA
ATOM     12  C   LIG    1       -2.879   0.419 -10.424  0.00  0.00    +0.220 C 
ATOM     13  C   LIG    1       -2.471   0.445 -11.899  0.00  0.00    +0.270 C 
ATOM     14  H   LIG    1       -2.465  -1.587 -12.083  0.00  0.00    +0.420 HD
BRANCH   8  16
ATOM     15  C   LIG    1       -2.681  -0.492 -14.520  0.00  0.00    +0.080 C 
ATOM     16  C   LIG    1       -1.448  -0.807 -13.671  0.00  0.00    +0.250 C 
ENDBRANCH   8  16
ENDBRANCH   1  11
BRANCH   5  17
ATOM     17  C   LIG    1       -1.058   1.277  -3.585  0.00  0.00    +0.070 C 
BRANCH  17  18
ATOM     18  C   LIG    1       -0.231   0.844  -2.372  0.00  0.00    +0.290 C 
BRANCH  18  19
ATOM     19  N   LIG    1       -0.717   1.542  -1.174  0.00  0.00    -0.380 N 
ATOM     20  C   LIG    1       -0.005   1.039   0.011  0.00  0.00    +0.270 C 
ATOM     21  C   LIG    1       -0.722   1.541   1.265  0.00  0.00    +0.120 C 
ATOM     22  C   LIG    1       -0.933   3.031   1.169  0.00  0.00    -0.090 A 
ATOM     23  C   LIG    1       -1.253   3.732   2.321  0.00  0.00    +0.040 A 
ATOM     24  C   LIG    1       -1.457   5.097   2.272  0.00  0.00    +0.050 A 
ATOM     25  C   LIG    1       -1.340   5.767   1.069  0.00  0.00    +0.040 A 
ATOM     26  C   LIG    1       -1.020   5.070  -0.079  0.00  0.00    +0.040 A 
ATOM     27  C   LIG    1       -0.815   3.699  -0.032  0.00  0.00    -0.140 A 
ATOM     28  C   LIG    1       -0.466   2.979  -1.308  0.00  0.00    +0.310 C 
ATOM     29  H   LIG    1       -1.707   1.381  -1.066  0.00  0.00    +0.430 HD
ENDBRANCH  18  19
ENDBRANCH  17  18
ENDBRANCH   5  17
TORSDOF 5
