REMARK  Name = ZINCrm000000GqhE.0
REMARK                            x       y       z     vdW  Elec       q    Type
REMARK                         _______ _______ _______ _____ _____    ______ ____
ROOT
ATOM      1  C   LIG    1        3.499   2.024   1.237  0.00  0.00    +0.140 C 
ATOM      2  C   LIG    1        4.210   1.597   2.548  0.00  0.00    +0.060 C 
ATOM      3  C   LIG    1        5.247   2.719   2.761  0.00  0.00    +0.260 C 
ATOM      4  N   LIG    1        4.775   3.896   2.017  0.00  0.00    -0.610 N 
ATOM      5  C   LIG    1        5.414   5.080   1.933  0.00  0.00    +0.540 C 
ATOM      6  O   LIG    1        4.929   5.986   1.287  0.00  0.00    -0.520 OA
ATOM      7  C   LIG    1        3.489   3.567   1.377  0.00  0.00    +0.280 C 
ENDROOT
BRANCH   1  11
ATOM      8  N   LIG    1        0.002  -0.004   0.002  0.00  0.00    -0.390 N 
ATOM      9  C   LIG    1       -0.018   1.465   0.010  0.00  0.00    +0.280 C 
ATOM     10  C   LIG    1        1.418   1.994  -0.001  0.00  0.00    +0.200 C 
ATOM     11  N   LIG    1        2.132   1.490   1.181  0.00  0.00    -0.530 NA
ATOM     12  C   LIG    1        2.138   0.021   1.199  0.00  0.00    +0.220 C 
ATOM     13  C   LIG    1        0.697  -0.493   1.200  0.00  0.00    +0.270 C 
ATOM     14  H   LIG    1        0.485  -0.329  -0.822  0.00  0.00    +0.420 HD
BRANCH   8  16
ATOM     15  C   LIG    1       -1.358  -2.038   0.112  0.00  0.00    +0.080 C 
ATOM     16  C   LIG    1       -1.376  -0.512  -0.006  0.00  0.00    +0.250 C 
ENDBRANCH   8  16
ENDBRANCH   1  11
BRANCH   5  17
ATOM     17  C   LIG    1        6.729   5.279   2.640  0.00  0.00    +0.070 C 
BRANCH  17  18
ATOM     18  C   LIG    1        7.236   6.700   2.385  0.00  0.00    +0.290 C 
BRANCH  18  19
ATOM     19  N   LIG    1        8.519   6.893   3.074  0.00  0.00    -0.380 N 
ATOM     20  C   LIG    1        8.955   8.290   2.920  0.00  0.00    +0.270 C 
ATOM     21  C   LIG    1       10.111   8.549   3.887  0.00  0.00    +0.120 C 
ATOM     22  C   LIG    1       11.162   7.481   3.722  0.00  0.00    -0.090 A 
ATOM     23  C   LIG    1       12.427   7.707   4.243  0.00  0.00    +0.040 A 
ATOM     24  C   LIG    1       13.413   6.749   4.117  0.00  0.00    +0.050 A 
ATOM     25  C   LIG    1       13.139   5.560   3.467  0.00  0.00    +0.040 A 
ATOM     26  C   LIG    1       11.880   5.335   2.947  0.00  0.00    +0.040 A 
ATOM     27  C   LIG    1       10.888   6.296   3.072  0.00  0.00    -0.140 A 
ATOM     28  C   LIG    1        9.530   6.010   2.487  0.00  0.00    +0.310 C 
ATOM     29  H   LIG    1        8.411   6.678   4.054  0.00  0.00    +0.430 HD
ENDBRANCH  18  19
ENDBRANCH  17  18
ENDBRANCH   5  17
TORSDOF 5
