REMARK  Name = ZINCqH0000036ml5.0
REMARK                            x       y       z     vdW  Elec       q    Type
REMARK                         _______ _______ _______ _____ _____    ______ ____
ROOT
ATOM      1  N   LIG    1        4.132  -1.137  -1.315  0.00  0.00    -0.570 N 
ATOM      2  C   LIG    1        3.974  -2.355  -1.869  0.00  0.00    +0.550 C 
ATOM      3  O   LIG    1        3.187  -3.145  -1.387  0.00  0.00    -0.470 OA
ENDROOT
BRANCH   2   4
ATOM      4  C   LIG    1        4.762  -2.732  -3.068  0.00  0.00    -0.030 A 
ATOM      5  C   LIG    1        6.072  -3.101  -2.955  0.00  0.00    +0.000 A 
ATOM      6  C   LIG    1        6.822  -3.467  -4.155  0.00  0.00    +0.540 A 
ATOM      7  N   LIG    1        6.242  -3.446  -5.367  0.00  0.00    -0.630 N 
ATOM      8  H   LIG    1        6.762  -3.693  -6.147  0.00  0.00    +0.420 HD
ATOM      9  C   LIG    1        4.922  -3.079  -5.524  0.00  0.00    +0.180 A 
ATOM     10  C   LIG    1        4.340  -3.063  -6.789  0.00  0.00    -0.020 A 
ATOM     11  C   LIG    1        3.015  -2.711  -6.929  0.00  0.00    +0.080 A 
ATOM     12  C   LIG    1        2.257  -2.355  -5.822  0.00  0.00    -0.010 A 
ATOM     13  C   LIG    1        2.810  -2.357  -4.572  0.00  0.00    +0.070 A 
ATOM     14  O   LIG    1        7.990  -3.797  -4.054  0.00  0.00    -0.520 OA
ATOM     15  C   LIG    1        4.149  -2.722  -4.405  0.00  0.00    -0.100 A 
ENDBRANCH   2   4
BRANCH   1  16
ATOM     16  C   LIG    1        4.914  -0.111  -2.010  0.00  0.00    +0.220 C 
ATOM     17  C   LIG    1        5.127  -0.284  -3.515  0.00  0.00    +0.010 C 
ATOM     18  C   LIG    1        6.289  -0.514  -2.547  0.00  0.00    +0.000 C 
ENDBRANCH   1  16
BRANCH   1  19
ATOM     19  C   LIG    1        3.521  -0.838  -0.017  0.00  0.00    +0.360 C 
BRANCH  19  25
ATOM     20  C   LIG    1        1.077  -1.143  -0.491  0.00  0.00    +0.150 A 
ATOM     21  C   LIG    1       -0.197  -0.631  -0.686  0.00  0.00    -0.090 A 
ATOM     22  C   LIG    1       -0.409   0.733  -0.621  0.00  0.00    +0.050 A 
ATOM     23  C   LIG    1        0.647   1.586  -0.360  0.00  0.00    -0.040 A 
ATOM     24  C   LIG    1        1.918   1.078  -0.165  0.00  0.00    +0.060 A 
ATOM     25  C   LIG    1        2.136  -0.285  -0.230  0.00  0.00    -0.150 A 
BRANCH  20  27
ATOM     26  C   LIG    1        0.153  -3.308  -0.829  0.00  0.00    +0.230 C 
ATOM     27  O   LIG    1        1.289  -2.484  -0.556  0.00  0.00    -0.270 OA
ENDBRANCH  20  27
ENDBRANCH  19  25
ENDBRANCH   1  19
TORSDOF 5
