REMARK  Name = ZINCpe00000MAN51.2
REMARK                            x       y       z     vdW  Elec       q    Type
REMARK                         _______ _______ _______ _____ _____    ______ ____
ROOT
ATOM      1  C   LIG    1       -1.448  -0.721   8.000  0.00  0.00    +0.200 C 
ATOM      2  N   LIG    1       -0.280  -0.332   7.199  0.00  0.00    -0.540 NA
ATOM      3  C   LIG    1        0.966  -0.788   7.828  0.00  0.00    +0.170 C 
ATOM      4  C   LIG    1        2.159  -0.229   7.050  0.00  0.00    +0.060 C 
ATOM      5  C   LIG    1        2.095  -0.705   5.600  0.00  0.00    +0.160 C 
ATOM      6  O   LIG    1        2.223  -2.126   5.544  0.00  0.00    -0.370 OA
ATOM      7  C   LIG    1        2.254  -2.657   4.217  0.00  0.00    +0.210 C 
ATOM      8  C   LIG    1        0.932  -2.335   3.511  0.00  0.00    +0.250 C 
ATOM      9  N   LIG    1        0.677  -0.891   3.633  0.00  0.00    -0.590 N 
ATOM     10  C   LIG    1        0.378  -0.143   2.553  0.00  0.00    +0.580 C 
ATOM     11  O   LIG    1        0.268   1.063   2.660  0.00  0.00    -0.530 OA
ATOM     12  C   LIG    1        0.764  -0.289   4.975  0.00  0.00    +0.240 C 
ATOM     13  C   LIG    1       -0.392  -0.837   5.825  0.00  0.00    +0.160 C 
ENDROOT
BRANCH  10  14
ATOM     14  C   LIG    1        0.184  -0.789   1.237  0.00  0.00    -0.090 A 
ATOM     15  C   LIG    1       -0.697  -1.863   1.107  0.00  0.00    +0.040 A 
ATOM     16  C   LIG    1       -0.869  -2.465  -0.123  0.00  0.00    +0.020 A 
ATOM     17  C   LIG    1       -0.175  -2.002  -1.226  0.00  0.00    +0.030 A 
ATOM     18  C   LIG    1        0.696  -0.934  -1.105  0.00  0.00    +0.030 A 
ATOM     19  C   LIG    1        0.877  -0.323   0.118  0.00  0.00    -0.070 A 
BRANCH  19  20
ATOM     20  C   LIG    1        1.826   0.841   0.248  0.00  0.00    +0.380 C 
BRANCH  20  21
ATOM     21  N   LIG    1        3.117   0.364   0.749  0.00  0.00    -0.370 N 
ATOM     22  C   LIG    1        4.320   0.544   0.175  0.00  0.00    +0.470 A 
ATOM     23  N   LIG    1        5.220  -0.030   0.932  0.00  0.00    -0.540 NA
ATOM     24  C   LIG    1        4.632  -0.591   1.988  0.00  0.00    +0.400 A 
ATOM     25  N   LIG    1        3.345  -0.376   1.920  0.00  0.00    -0.310 NA
ENDBRANCH  20  21
ENDBRANCH  19  20
ENDBRANCH  10  14
TORSDOF 3
