REMARK  Name = ZINCrg000000ta7p.0
REMARK                            x       y       z     vdW  Elec       q    Type
REMARK                         _______ _______ _______ _____ _____    ______ ____
ROOT
ATOM      1  O   LIG    1        0.989  -8.710  -1.395  0.00  0.00    -0.460 OA
ATOM      2  C   LIG    1        1.698  -8.088  -2.156  0.00  0.00    +0.520 C 
ATOM      3  N   LIG    1        2.508  -8.744  -3.010  0.00  0.00    -0.690 N 
ATOM      4  H   LIG    1        3.076  -8.246  -3.619  0.00  0.00    +0.410 HD
ATOM      5  C   LIG    1        2.531 -10.092  -3.017  0.00  0.00    +0.690 C 
ATOM      6  N   LIG    1        3.342 -10.748  -3.871  0.00  0.00    -0.730 N 
ATOM      7  H   LIG    1        3.909 -10.250  -4.480  0.00  0.00    +0.400 HD
ATOM      8  O   LIG    1        1.820 -10.715  -2.253  0.00  0.00    -0.530 OA
ENDROOT
BRANCH   6   9
ATOM      9  C   LIG    1        3.366 -12.212  -3.878  0.00  0.00    +0.340 C 
BRANCH   9  10
ATOM     10  C   LIG    1        4.348 -12.693  -4.916  0.00  0.00    -0.110 A 
ATOM     11  C   LIG    1        3.925 -12.929  -6.211  0.00  0.00    +0.020 A 
ATOM     12  C   LIG    1        4.826 -13.365  -7.163  0.00  0.00    +0.010 A 
ATOM     13  C   LIG    1        6.148 -13.575  -6.819  0.00  0.00    +0.010 A 
ATOM     14  C   LIG    1        6.570 -13.344  -5.523  0.00  0.00    +0.010 A 
ATOM     15  C   LIG    1        5.670 -12.903  -4.572  0.00  0.00    +0.020 A 
ENDBRANCH   9  10
ENDBRANCH   6   9
BRANCH   2  16
ATOM     16  C   LIG    1        1.672  -6.581  -2.148  0.00  0.00    +0.070 C 
BRANCH  16  17
ATOM     17  C   LIG    1        0.676  -6.093  -1.095  0.00  0.00    +0.210 C 
BRANCH  17  18
ATOM     18  N   LIG    1        0.651  -4.625  -1.087  0.00  0.00    -0.540 NA
ATOM     19  C   LIG    1       -0.110  -4.117   0.063  0.00  0.00    +0.190 C 
ATOM     20  C   LIG    1       -0.179  -2.589  -0.009  0.00  0.00    +0.220 C 
ATOM     21  N   LIG    1        1.184  -2.040  -0.020  0.00  0.00    -0.470 N 
ATOM     22  C   LIG    1        1.945  -2.548  -1.170  0.00  0.00    +0.210 C 
ATOM     23  C   LIG    1        2.014  -4.075  -1.098  0.00  0.00    +0.190 C 
BRANCH  21  24
ATOM     24  C   LIG    1        1.161  -0.650  -0.013  0.00  0.00    +0.270 A 
ATOM     25  C   LIG    1        2.354   0.069  -0.020  0.00  0.00    +0.210 A 
ATOM     26  N   LIG    1        2.328   1.388  -0.013  0.00  0.00    -0.420 NA
ATOM     27  C   LIG    1        1.170   2.027   0.002  0.00  0.00    +0.180 A 
ATOM     28  C   LIG    1       -0.016   1.318   0.009  0.00  0.00    +0.250 A 
ATOM     29  N   LIG    1        0.002  -0.004   0.002  0.00  0.00    -0.480 NA
ENDBRANCH  21  24
ENDBRANCH  17  18
ENDBRANCH  16  17
ENDBRANCH   2  16
TORSDOF 6
