REMARK  Name = ZINCrD0000073CS6.0
REMARK                            x       y       z     vdW  Elec       q    Type
REMARK                         _______ _______ _______ _____ _____    ______ ____
ROOT
ATOM      1  C   LIG    1       -0.735   1.594   1.279  0.00  0.00    +0.200 C 
ATOM      2  C   LIG    1       -0.009   1.105   0.024  0.00  0.00    +0.070 C 
ENDROOT
BRANCH   1   3
ATOM      3  C   LIG    1       -2.145   1.063   1.282  0.00  0.00    +0.520 C 
ATOM      4  N   LIG    1       -3.016   1.458   0.332  0.00  0.00    -0.660 N 
ATOM      5  H   LIG    1       -2.755   2.132  -0.315  0.00  0.00    +0.420 HD
ATOM      6  O   LIG    1       -2.497   0.281   2.140  0.00  0.00    -0.490 OA
BRANCH   4   7
ATOM      7  C   LIG    1       -4.298   0.894   0.279  0.00  0.00    +0.130 A 
ATOM      8  C   LIG    1       -4.950   0.540   1.451  0.00  0.00    +0.090 A 
ATOM      9  C   LIG    1       -6.215  -0.015   1.398  0.00  0.00    +0.050 A 
ATOM     10  C   LIG    1       -6.832  -0.219   0.176  0.00  0.00    +0.090 A 
ATOM     11  C   LIG    1       -6.184   0.133  -0.998  0.00  0.00    +0.050 A 
ATOM     12  F   LIG    1       -6.788  -0.068  -2.190  0.00  0.00    -0.110 F 
ATOM     13  F   LIG    1       -8.069  -0.762   0.128  0.00  0.00    -0.120 F 
ATOM     14  C   LIG    1       -4.920   0.694  -0.949  0.00  0.00    +0.070 A 
ATOM     15  F   LIG    1       -4.289   1.043  -2.091  0.00  0.00    -0.110 F 
ENDBRANCH   4   7
ENDBRANCH   1   3
BRANCH   1  16
ATOM     16  O   LIG    1       -0.036   1.117   2.459  0.00  0.00    -0.320 OA
BRANCH  16  17
ATOM     17  C   LIG    1        0.932   1.910   2.959  0.00  0.00    +0.510 C 
ATOM     18  O   LIG    1        1.185   2.971   2.423  0.00  0.00    -0.480 OA
BRANCH  17  23
ATOM     19  C   LIG    1        3.394   1.905   5.808  0.00  0.00    +0.100 A 
ATOM     20  C   LIG    1        3.097   0.694   6.409  0.00  0.00    -0.020 A 
ATOM     21  C   LIG    1        2.101  -0.119   5.892  0.00  0.00    +0.040 A 
ATOM     22  C   LIG    1        1.392   0.272   4.778  0.00  0.00    +0.070 A 
ATOM     23  C   LIG    1        1.684   1.490   4.155  0.00  0.00    -0.120 A 
ATOM     24  C   LIG    1        2.691   2.311   4.678  0.00  0.00    +0.130 A 
BRANCH  19  26
ATOM     25  C   LIG    1        5.054   2.216   7.482  0.00  0.00    +0.250 C 
ATOM     26  O   LIG    1        4.374   2.696   6.321  0.00  0.00    -0.300 OA
ENDBRANCH  19  26
BRANCH  24  27
ATOM     27  O   LIG    1        2.980   3.498   4.085  0.00  0.00    -0.310 OA
ATOM     28  C   LIG    1        2.260   4.644   4.543  0.00  0.00    +0.240 C 
ENDBRANCH  24  27
ENDBRANCH  17  23
ENDBRANCH  16  17
ENDBRANCH   1  16
TORSDOF 7
