REMARK  Name = ZINCpk00000kb06X.0
REMARK                            x       y       z     vdW  Elec       q    Type
REMARK                         _______ _______ _______ _____ _____    ______ ____
ROOT
ATOM      1  C   LIG    1       -1.254   1.379  -2.274  0.00  0.00    +0.550 C 
ATOM      2  N   LIG    1       -0.911   1.665  -1.002  0.00  0.00    -0.650 N 
ATOM      3  C   LIG    1       -0.013   1.086   0.008  0.00  0.00    +0.320 C 
ATOM      4  C   LIG    1       -0.930   1.679   1.087  0.00  0.00    -0.010 C 
ATOM      5  C   LIG    1       -0.186   2.276   2.283  0.00  0.00    +0.100 C 
ATOM      6  C   LIG    1       -1.269   2.694  -0.015  0.00  0.00    +0.310 C 
ATOM      7  O   LIG    1       -0.761   0.423  -2.835  0.00  0.00    -0.520 OA
ENDROOT
BRANCH   4   8
ATOM      8  C   LIG    1       -2.078   0.786   1.480  0.00  0.00    +0.190 A 
ATOM      9  N   LIG    1       -1.984  -0.411   1.985  0.00  0.00    -0.270 NA
ATOM     10  N   LIG    1       -3.162  -0.882   2.200  0.00  0.00    -0.280 NA
ATOM     11  C   LIG    1       -4.057   0.008   1.837  0.00  0.00    +0.270 A 
ATOM     12  O   LIG    1       -3.386   1.084   1.379  0.00  0.00    -0.210 OA
BRANCH  11  13
ATOM     13  C   LIG    1       -5.524  -0.141   1.919  0.00  0.00    +0.050 A 
ATOM     14  C   LIG    1       -6.196  -1.228   2.388  0.00  0.00    +0.240 A 
ATOM     15  N   LIG    1       -7.527  -0.942   2.285  0.00  0.00    -0.460 N 
ATOM     16  C   LIG    1       -7.635   0.305   1.760  0.00  0.00    +0.420 A 
ATOM     17  C   LIG    1       -8.635  -1.819   2.671  0.00  0.00    +0.350 C 
ATOM     18  N   LIG    1       -6.440   0.780   1.548  0.00  0.00    -0.470 NA
ENDBRANCH  11  13
ENDBRANCH   4   8
BRANCH   1  19
ATOM     19  C   LIG    1       -2.249   2.247  -2.999  0.00  0.00    +0.000 C 
ATOM     20  C   LIG    1       -1.718   3.680  -3.073  0.00  0.00    +0.040 C 
BRANCH  19  21
ATOM     21  C   LIG    1       -2.460   1.708  -4.416  0.00  0.00    +0.020 C 
ATOM     22  C   LIG    1       -2.991   0.275  -4.342  0.00  0.00    +0.020 C 
BRANCH  21  23
ATOM     23  C   LIG    1       -3.471   2.589  -5.152  0.00  0.00    +0.160 C 
BRANCH  23  25
ATOM     24  C   LIG    1       -4.504   2.917  -7.290  0.00  0.00    +0.200 C 
ATOM     25  O   LIG    1       -3.580   2.156  -6.510  0.00  0.00    -0.390 OA
ENDBRANCH  23  25
ENDBRANCH  21  23
ENDBRANCH  19  21
ENDBRANCH   1  19
TORSDOF 6
