REMARK  Name = ZINCrH000004skU0.0
REMARK                            x       y       z     vdW  Elec       q    Type
REMARK                         _______ _______ _______ _____ _____    ______ ____
ROOT
ATOM      1  C   LIG    1        2.419  -0.245   0.203  0.00  0.00    +0.520 C 
ATOM      2  N   LIG    1        2.389   1.099   0.120  0.00  0.00    -0.660 N 
ATOM      3  H   LIG    1        3.211   1.595  -0.022  0.00  0.00    +0.420 HD
ATOM      4  O   LIG    1        1.384  -0.871   0.293  0.00  0.00    -0.510 OA
ENDROOT
BRANCH   2   5
ATOM      5  C   LIG    1        1.171   1.782   0.237  0.00  0.00    +0.150 A 
ATOM      6  C   LIG    1        1.127   3.020   0.864  0.00  0.00    +0.010 A 
ATOM      7  C   LIG    1       -0.075   3.691   0.986  0.00  0.00    +0.060 A 
ATOM      8  C   LIG    1       -1.236   3.136   0.474  0.00  0.00    +0.020 A 
ATOM      9  O   LIG    1       -2.525   3.589   0.461  0.00  0.00    -0.300 OA
ATOM     10  C   LIG    1       -3.336   2.432   0.183  0.00  0.00    +0.260 C 
ATOM     11  O   LIG    1       -2.457   1.569  -0.562  0.00  0.00    -0.300 OA
ATOM     12  C   LIG    1       -4.555   2.818  -0.657  0.00  0.00    +0.110 C 
ATOM     13  C   LIG    1       -3.774   1.758   1.485  0.00  0.00    +0.060 C 
ATOM     14  C   LIG    1       -1.195   1.894  -0.155  0.00  0.00    +0.050 A 
ATOM     15  C   LIG    1        0.009   1.220  -0.272  0.00  0.00    +0.050 A 
ENDBRANCH   2   5
BRANCH   1  16
ATOM     16  C   LIG    1        3.739  -0.972   0.186  0.00  0.00    +0.080 C 
BRANCH  16  17
ATOM     17  C   LIG    1        3.490  -2.481   0.145  0.00  0.00    +0.200 C 
BRANCH  17  22
ATOM     18  C   LIG    1        0.992  -5.444  -2.955  0.00  0.00    +0.160 C 
ATOM     19  C   LIG    1        1.576  -4.131  -2.501  0.00  0.00    +0.070 A 
ATOM     20  C   LIG    1        1.454  -3.003  -3.207  0.00  0.00    -0.070 A 
ATOM     21  S   LIG    1        2.275  -1.719  -2.322  0.00  0.00    +0.150 S 
ATOM     22  C   LIG    1        2.700  -2.827  -1.091  0.00  0.00    -0.010 A 
ATOM     23  N   LIG    1        2.252  -4.003  -1.377  0.00  0.00    -0.420 NA
ENDBRANCH  17  22
BRANCH  17  24
ATOM     24  C   LIG    1        4.830  -3.219   0.117  0.00  0.00    +0.480 C 
ATOM     25  F   LIG    1        5.594  -2.758  -0.960  0.00  0.00    -0.170 F 
ATOM     26  F   LIG    1        4.603  -4.592  -0.025  0.00  0.00    -0.150 F 
ATOM     27  F   LIG    1        5.518  -2.981   1.312  0.00  0.00    -0.170 F 
ENDBRANCH  17  24
BRANCH  17  28
ATOM     28  O   LIG    1        2.754  -2.874   1.305  0.00  0.00    -0.520 OA
ATOM     29  H   LIG    1        1.891  -2.444   1.388  0.00  0.00    +0.410 HD
ENDBRANCH  17  28
ENDBRANCH  16  17
ENDBRANCH   1  16
TORSDOF 6
