REMARK  Name = ZINCpe000000UjP2.0
REMARK                            x       y       z     vdW  Elec       q    Type
REMARK                         _______ _______ _______ _____ _____    ______ ____
ROOT
ATOM      1  N   LIG    1       -1.601  -1.201  -1.371  0.00  0.00    -0.740 N 
ATOM      2  H   LIG    1       -1.105  -0.817  -2.111  0.00  0.00    +0.400 HD
ATOM      3  C   LIG    1       -2.660  -1.999  -1.613  0.00  0.00    +0.710 C 
ATOM      4  N   LIG    1       -3.029  -2.264  -2.881  0.00  0.00    -0.740 N 
ATOM      5  H   LIG    1       -2.533  -1.879  -3.621  0.00  0.00    +0.400 HD
ATOM      6  O   LIG    1       -3.281  -2.481  -0.685  0.00  0.00    -0.590 OA
ENDROOT
BRANCH   1   7
ATOM      7  C   LIG    1       -1.200  -0.914   0.008  0.00  0.00    +0.420 C 
BRANCH   7  12
ATOM      8  N   LIG    1       -0.016   1.351   0.009  0.00  0.00    -0.470 N 
ATOM      9  C   LIG    1        1.281   1.743  -0.001  0.00  0.00    +0.380 A 
ATOM     10  N   LIG    1        2.013   0.662  -0.014  0.00  0.00    -0.290 NA
ATOM     11  N   LIG    1        1.253  -0.375  -0.012  0.00  0.00    -0.270 NA
ATOM     12  C   LIG    1        0.002  -0.004   0.002  0.00  0.00    +0.150 A 
BRANCH   8  14
ATOM     13  C   LIG    1       -1.677   2.408   1.460  0.00  0.00    +0.050 C 
ATOM     14  C   LIG    1       -1.198   2.216   0.020  0.00  0.00    +0.300 C 
ENDBRANCH   8  14
ENDBRANCH   7  12
ENDBRANCH   1   7
BRANCH   4  15
ATOM     15  C   LIG    1       -4.180  -3.132  -3.143  0.00  0.00    +0.270 C 
BRANCH  15  16
ATOM     16  C   LIG    1       -4.383  -3.267  -4.654  0.00  0.00    +0.270 C 
BRANCH  16  17
ATOM     17  C   LIG    1       -5.567  -4.160  -4.923  0.00  0.00    -0.110 A 
ATOM     18  C   LIG    1       -6.814  -3.607  -5.138  0.00  0.00    +0.040 A 
ATOM     19  C   LIG    1       -7.904  -4.429  -5.387  0.00  0.00    +0.100 A 
ATOM     20  C   LIG    1       -7.741  -5.805  -5.420  0.00  0.00    -0.030 A 
ATOM     21  C   LIG    1       -6.493  -6.359  -5.205  0.00  0.00    -0.030 A 
ATOM     22  C   LIG    1       -5.403  -5.537  -4.962  0.00  0.00    +0.110 A 
BRANCH  19  23
ATOM     23  O   LIG    1       -9.132  -3.884  -5.599  0.00  0.00    -0.320 OA
ATOM     24  C   LIG    1      -10.208  -4.790  -5.850  0.00  0.00    +0.250 C 
ENDBRANCH  19  23
BRANCH  22  25
ATOM     25  O   LIG    1       -4.174  -6.081  -4.756  0.00  0.00    -0.310 OA
ATOM     26  C   LIG    1       -4.078  -7.506  -4.809  0.00  0.00    +0.250 C 
ENDBRANCH  22  25
ENDBRANCH  16  17
BRANCH  16  27
ATOM     27  O   LIG    1       -4.621  -1.977  -5.220  0.00  0.00    -0.550 OA
ATOM     28  H   LIG    1       -5.402  -1.530  -4.866  0.00  0.00    +0.380 HD
ENDBRANCH  16  27
ENDBRANCH  15  16
ENDBRANCH   4  15
TORSDOF 9
