REMARK  Name = ZINCvU0000000GfD.0
REMARK                            x       y       z     vdW  Elec       q    Type
REMARK                         _______ _______ _______ _____ _____    ______ ____
ROOT
ATOM      1  N   LIG    1        2.324   5.137  -0.841  0.00  0.00    -0.590 N 
ATOM      2  C   LIG    1        2.533   6.217  -0.060  0.00  0.00    +0.570 C 
ATOM      3  C   LIG    1        2.807   5.795   1.325  0.00  0.00    +0.090 A 
ATOM      4  C   LIG    1        2.765   4.431   1.373  0.00  0.00    -0.240 A 
ATOM      5  C   LIG    1        3.011   3.711   2.627  0.00  0.00    +0.460 A 
ATOM      6  C   LIG    1        3.520   4.578   3.720  0.00  0.00    -0.200 A 
ATOM      7  C   LIG    1        3.989   4.016   4.907  0.00  0.00    +0.140 A 
ATOM      8  C   LIG    1        4.464   4.836   5.908  0.00  0.00    -0.060 A 
ATOM      9  C   LIG    1        4.473   6.214   5.733  0.00  0.00    +0.120 A 
ATOM     10  C   LIG    1        4.009   6.779   4.566  0.00  0.00    +0.040 A 
ATOM     11 CL   LIG    1        5.051   4.146   7.388  0.00  0.00    -0.050 Cl
ATOM     12  C   LIG    1        3.522   5.971   3.540  0.00  0.00    +0.150 A 
ATOM     13  O   LIG    1        2.816   2.516   2.760  0.00  0.00    -0.420 OA
ATOM     14  O   LIG    1        3.062   6.554   2.409  0.00  0.00    -0.180 OA
ATOM     15  O   LIG    1        2.500   7.369  -0.444  0.00  0.00    -0.480 OA
ATOM     16  C   LIG    1        2.452   3.935  -0.000  0.00  0.00    +0.350 C 
ENDROOT
BRANCH  16  17
ATOM     17  C   LIG    1        1.156   3.166   0.007  0.00  0.00    -0.110 A 
ATOM     18  C   LIG    1        1.174   1.783   0.000  0.00  0.00    +0.060 A 
ATOM     19  C   LIG    1       -0.013   1.076   0.008  0.00  0.00    -0.020 A 
ATOM     20  C   LIG    1       -1.223   1.754   0.017  0.00  0.00    +0.120 A 
ATOM     21  C   LIG    1       -1.238   3.141   0.029  0.00  0.00    -0.010 A 
ATOM     22  C   LIG    1       -0.049   3.844   0.022  0.00  0.00    +0.060 A 
BRANCH  20  23
ATOM     23  O   LIG    1       -2.392   1.060   0.019  0.00  0.00    -0.500 OA
ATOM     24  H   LIG    1       -2.726   0.854   0.903  0.00  0.00    +0.390 HD
ENDBRANCH  20  23
ENDBRANCH  16  17
BRANCH   1  25
ATOM     25  C   LIG    1        2.023   5.156  -2.275  0.00  0.00    +0.380 C 
BRANCH  25  30
ATOM     26  C   LIG    1       -3.699   5.399  -3.042  0.00  0.00    +0.090 C 
ATOM     27  C   LIG    1       -2.207   5.335  -2.841  0.00  0.00    -0.070 A 
ATOM     28  C   LIG    1       -1.473   6.502  -2.744  0.00  0.00    -0.010 A 
ATOM     29  C   LIG    1       -0.104   6.444  -2.560  0.00  0.00    +0.040 A 
ATOM     30  C   LIG    1        0.531   5.219  -2.474  0.00  0.00    -0.130 A 
ATOM     31  C   LIG    1       -0.203   4.052  -2.577  0.00  0.00    +0.040 A 
ATOM     32  C   LIG    1       -1.572   4.110  -2.755  0.00  0.00    +0.000 A 
ENDBRANCH  25  30
ENDBRANCH   1  25
TORSDOF 4
