REMARK  Name = ZINCtV00001bB3Sp.0
REMARK                            x       y       z     vdW  Elec       q    Type
REMARK                         _______ _______ _______ _____ _____    ______ ____
ROOT
ATOM      1  N   LIG    1        2.289   3.784   2.351  0.00  0.00    -0.460 NA
ATOM      2  C   LIG    1        2.085   4.280   1.152  0.00  0.00    +0.370 C 
ATOM      3  S   LIG    1        1.701   5.964   0.755  0.00  0.00    +0.020 S 
ATOM      4  C   LIG    1        1.609   5.686  -0.995  0.00  0.00    -0.220 C 
ATOM      5  C   LIG    1        1.898   4.256  -1.156  0.00  0.00    +0.560 C 
ATOM      6  O   LIG    1        1.922   3.715  -2.245  0.00  0.00    -0.470 OA
ATOM      7  C   LIG    1        1.338   6.593  -1.966  0.00  0.00    +0.210 C 
ATOM      8  N   LIG    1        2.126   3.596  -0.032  0.00  0.00    -0.530 N 
ENDROOT
BRANCH   7   9
ATOM      9  C   LIG    1        1.211   8.017  -1.627  0.00  0.00    -0.070 A 
ATOM     10  C   LIG    1        1.810   8.520  -0.467  0.00  0.00    +0.070 A 
ATOM     11  C   LIG    1        1.691   9.858  -0.158  0.00  0.00    +0.050 A 
ATOM     12  C   LIG    1        0.973  10.703  -0.986  0.00  0.00    +0.070 A 
ATOM     13  C   LIG    1        0.372  10.214  -2.134  0.00  0.00    -0.030 A 
ATOM     14 CL   LIG    1       -0.526  11.284  -3.164  0.00  0.00    -0.040 Cl
ATOM     15  C   LIG    1        0.486   8.877  -2.461  0.00  0.00    -0.010 A 
ATOM     16 CL   LIG    1       -0.268   8.265  -3.900  0.00  0.00    -0.030 Cl
ENDBRANCH   7   9
BRANCH   1  20
ATOM     17  C   LIG    1        2.063   6.240   5.673  0.00  0.00    -0.080 A 
ATOM     18  C   LIG    1        1.452   4.999   5.692  0.00  0.00    +0.030 A 
ATOM     19  C   LIG    1        1.523   4.175   4.588  0.00  0.00    +0.040 A 
ATOM     20  C   LIG    1        2.215   4.596   3.450  0.00  0.00    +0.090 A 
ATOM     21  C   LIG    1        2.833   5.848   3.440  0.00  0.00    -0.020 A 
ATOM     22  C   LIG    1        2.750   6.664   4.549  0.00  0.00    +0.030 A 
BRANCH  17  24
ATOM     23  C   LIG    1        3.164   6.849   7.810  0.00  0.00    +0.030 C 
ATOM     24  C   LIG    1        1.981   7.135   6.883  0.00  0.00    +0.050 C 
ENDBRANCH  17  24
ENDBRANCH   1  20
BRANCH   8  25
ATOM     25  C   LIG    1        2.422   2.162  -0.056  0.00  0.00    +0.310 C 
BRANCH  25  26
ATOM     26  C   LIG    1        1.118   1.369   0.056  0.00  0.00    +0.040 C 
BRANCH  26  27
ATOM     27  C   LIG    1        1.428  -0.129   0.031  0.00  0.00    +0.100 C 
BRANCH  27  28
ATOM     28  S   LIG    1       -0.118  -1.068   0.164  0.00  0.00    -0.260 S 
ATOM     29  C   LIG    1        0.447  -2.792   0.118  0.00  0.00    +0.140 C 
ENDBRANCH  27  28
ENDBRANCH  26  27
ENDBRANCH  25  26
ENDBRANCH   8  25
TORSDOF 7
