REMARK  Name = ZINCrH00000tj10s.0
REMARK                            x       y       z     vdW  Elec       q    Type
REMARK                         _______ _______ _______ _____ _____    ______ ____
ROOT
ATOM      1  C   LIG    1        1.301   1.699   2.743  0.00  0.00    +0.320 C 
ENDROOT
BRANCH   1   8
ATOM      2  C   LIG    1       -0.013   1.086   0.008  0.00  0.00    +0.130 C 
ATOM      3  C   LIG    1       -0.718   1.572   1.248  0.00  0.00    +0.020 A 
ATOM      4  C   LIG    1       -2.037   1.821   1.356  0.00  0.00    -0.030 A 
ATOM      5  C   LIG    1       -2.278   2.255   2.684  0.00  0.00    -0.110 A 
ATOM      6  C   LIG    1       -1.081   2.257   3.328  0.00  0.00    +0.070 A 
ATOM      7  C   LIG    1       -0.849   2.653   4.763  0.00  0.00    +0.140 C 
ATOM      8  N   LIG    1       -0.127   1.839   2.448  0.00  0.00    -0.430 N 
BRANCH   5   9
ATOM      9  C   LIG    1       -3.592   2.639   3.261  0.00  0.00    +0.160 A 
ATOM     10  C   LIG    1       -4.739   2.611   2.556  0.00  0.00    -0.090 A 
ATOM     11  S   LIG    1       -6.041   3.139   3.618  0.00  0.00    +0.110 S 
ATOM     12  C   LIG    1       -4.929   3.347   4.899  0.00  0.00    +0.050 A 
ATOM     13  C   LIG    1       -5.290   3.822   6.283  0.00  0.00    +0.180 C 
ATOM     14  N   LIG    1       -3.738   3.035   4.517  0.00  0.00    -0.470 NA
ENDBRANCH   5   9
ENDBRANCH   1   8
BRANCH   1  15
ATOM     15  C   LIG    1        2.006   2.995   2.440  0.00  0.00    +0.500 C 
ATOM     16  N   LIG    1        3.335   3.101   2.637  0.00  0.00    -0.720 N 
ATOM     17  H   LIG    1        3.838   2.343   2.974  0.00  0.00    +0.400 HD
ATOM     18  O   LIG    1        1.378   3.943   2.018  0.00  0.00    -0.510 OA
BRANCH  16  19
ATOM     19  C   LIG    1        4.021   4.362   2.342  0.00  0.00    +0.320 C 
ATOM     20  C   LIG    1        3.916   5.295   3.550  0.00  0.00    +0.030 C 
BRANCH  19  21
ATOM     21  C   LIG    1        5.473   4.086   2.045  0.00  0.00    -0.250 A 
ATOM     22  C   LIG    1        6.190   4.609   1.023  0.00  0.00    +0.110 A 
ATOM     23  N   LIG    1        7.444   4.118   1.108  0.00  0.00    -0.370 N 
ATOM     24  N   LIG    1        7.497   3.259   2.213  0.00  0.00    -0.290 NA
ATOM     25  C   LIG    1        8.553   4.426   0.201  0.00  0.00    +0.360 C 
ATOM     26  C   LIG    1        5.680   5.570  -0.020  0.00  0.00    +0.150 C 
ATOM     27  C   LIG    1        6.316   3.241   2.774  0.00  0.00    +0.080 A 
ATOM     28  C   LIG    1        5.929   2.446   3.994  0.00  0.00    +0.150 C 
ENDBRANCH  19  21
ENDBRANCH  16  19
ENDBRANCH   1  15
TORSDOF 5
