REMARK  Name = ZINCpk000000pIcJ.0
REMARK                            x       y       z     vdW  Elec       q    Type
REMARK                         _______ _______ _______ _____ _____    ______ ____
ROOT
ATOM      1  C   LIG    1        0.723  -5.636   5.066  0.00  0.00    +0.160 C 
ATOM      2  O   LIG    1        1.251  -4.296   5.003  0.00  0.00    -0.340 OA
ATOM      3  C   LIG    1        1.051  -3.906   3.635  0.00  0.00    +0.320 C 
ATOM      4  N   LIG    1       -0.109  -4.655   3.144  0.00  0.00    -0.740 N 
ATOM      5  H   LIG    1       -0.632  -4.439   2.356  0.00  0.00    +0.420 HD
ATOM      6  C   LIG    1        2.290  -4.253   2.810  0.00  0.00    +0.040 C 
ATOM      7  C   LIG    1        2.083  -3.785   1.367  0.00  0.00    +0.190 C 
ATOM      8  N   LIG    1        1.840  -2.337   1.352  0.00  0.00    -0.530 NA
ATOM      9  C   LIG    1        0.619  -1.994   2.092  0.00  0.00    +0.170 C 
ATOM     10  C   LIG    1        0.778  -2.404   3.558  0.00  0.00    +0.060 C 
ATOM     11  C   LIG    1       -0.327  -5.697   3.977  0.00  0.00    +0.500 C 
ATOM     12  O   LIG    1       -1.203  -6.529   3.872  0.00  0.00    -0.500 OA
ENDROOT
BRANCH   1  14
ATOM     13  C   LIG    1        1.177  -5.912   7.507  0.00  0.00    +0.030 C 
ATOM     14  C   LIG    1        0.087  -5.892   6.433  0.00  0.00    +0.050 C 
ENDBRANCH   1  14
BRANCH   8  15
ATOM     15  C   LIG    1        1.782  -1.827  -0.025  0.00  0.00    +0.280 C 
BRANCH  15  16
ATOM     16  C   LIG    1        1.292  -0.402  -0.012  0.00  0.00    +0.080 A 
ATOM     17  C   LIG    1        2.066   0.708  -0.014  0.00  0.00    -0.090 A 
ATOM     18  C   LIG    1        1.220   1.822   0.000  0.00  0.00    +0.230 A 
ATOM     19  N   LIG    1       -0.017   1.397   0.010  0.00  0.00    -0.280 NA
ATOM     20  N   LIG    1        0.002  -0.004   0.002  0.00  0.00    -0.370 N 
BRANCH  20  21
ATOM     21  C   LIG    1       -1.171  -0.882   0.008  0.00  0.00    +0.250 C 
ATOM     22  C   LIG    1       -2.031  -0.596  -1.227  0.00  0.00    +0.010 C 
ATOM     23  C   LIG    1       -3.293  -1.462  -1.171  0.00  0.00    +0.210 C 
ATOM     24  O   LIG    1       -4.003  -1.190   0.039  0.00  0.00    -0.370 OA
ATOM     25  C   LIG    1       -3.264  -1.483   1.227  0.00  0.00    +0.210 C 
ATOM     26  C   LIG    1       -2.002  -0.618   1.268  0.00  0.00    -0.000 C 
ENDBRANCH  20  21
ENDBRANCH  15  16
ENDBRANCH   8  15
TORSDOF 4
