REMARK  Name = ZINCtV00000L6kaF.0
REMARK                            x       y       z     vdW  Elec       q    Type
REMARK                         _______ _______ _______ _____ _____    ______ ____
ROOT
ATOM      1  C   LIG    1       -0.153  10.206  -0.573  0.00  0.00    +0.080 A 
ATOM      2  C   LIG    1        0.980   9.437  -0.025  0.00  0.00    -0.040 A 
ATOM      3  N   LIG    1        0.578   8.100  -0.009  0.00  0.00    -0.340 N 
ATOM      4  C   LIG    1        1.000   6.794   0.121  0.00  0.00    +0.200 A 
ATOM      5  C   LIG    1       -0.079   5.980   0.034  0.00  0.00    +0.120 A 
ATOM      6  N   LIG    1       -1.185   6.769  -0.053  0.00  0.00    -0.460 N 
ATOM      7  C   LIG    1       -2.603   6.551   0.226  0.00  0.00    +0.310 C 
ATOM      8  C   LIG    1       -3.446   7.288  -0.778  0.00  0.00    +0.030 C 
ATOM      9  C   LIG    1       -3.601   8.748  -0.527  0.00  0.00    +0.030 C 
ATOM     10  C   LIG    1       -2.585   9.630  -1.241  0.00  0.00    +0.130 C 
ATOM     11  C   LIG    1       -0.752   8.083  -0.249  0.00  0.00    +0.270 A 
ATOM     12  C   LIG    1       -1.200   9.305  -0.710  0.00  0.00    -0.160 A 
ENDROOT
BRANCH   5  13
ATOM     13  C   LIG    1       -0.059   4.501   0.026  0.00  0.00    -0.030 A 
ATOM     14  C   LIG    1        0.717   3.807   0.955  0.00  0.00    +0.070 A 
ATOM     15  C   LIG    1        0.732   2.427   0.944  0.00  0.00    +0.030 A 
ATOM     16  C   LIG    1       -0.020   1.732   0.012  0.00  0.00    -0.020 A 
ATOM     17  C   LIG    1       -0.788   2.416  -0.916  0.00  0.00    +0.030 A 
ATOM     18 CL   LIG    1        0.004  -0.004   0.003  0.00  0.00    -0.060 Cl
ATOM     19  C   LIG    1       -0.816   3.795  -0.910  0.00  0.00    +0.050 A 
ENDBRANCH   5  13
BRANCH   1  23
ATOM     20  C   LIG    1       -0.202  14.344  -1.535  0.00  0.00    +0.140 A 
ATOM     21  C   LIG    1       -0.041  13.941  -0.215  0.00  0.00    -0.010 A 
ATOM     22  C   LIG    1       -0.025  12.601   0.102  0.00  0.00    +0.090 A 
ATOM     23  C   LIG    1       -0.170  11.645  -0.907  0.00  0.00    -0.070 A 
ATOM     24  C   LIG    1       -0.325  12.054  -2.234  0.00  0.00    +0.080 A 
ATOM     25  C   LIG    1       -0.347  13.396  -2.541  0.00  0.00    -0.080 A 
BRANCH  20  27
ATOM     26  C   LIG    1       -0.386  16.010  -3.219  0.00  0.00    +0.250 C 
ATOM     27  O   LIG    1       -0.217  15.666  -1.843  0.00  0.00    -0.310 OA
ENDBRANCH  20  27
ENDBRANCH   1  23
BRANCH   2  28
ATOM     28  N   LIG    1        2.134   9.912   0.369  0.00  0.00    -0.240 NA
ATOM     29  O   LIG    1        2.987   9.160   0.804  0.00  0.00    -0.070 OA
ENDBRANCH   2  28
TORSDOF 4
