REMARK  Name = ZINCpe00000gMVM7.0
REMARK                            x       y       z     vdW  Elec       q    Type
REMARK                         _______ _______ _______ _____ _____    ______ ____
ROOT
ATOM      1  C   LIG    1       -1.591  -1.749  -0.592  0.00  0.00    +0.510 C 
ATOM      2  N   LIG    1       -1.097  -0.516  -0.821  0.00  0.00    -0.730 N 
ATOM      3  H   LIG    1       -1.468   0.032  -1.530  0.00  0.00    +0.400 HD
ATOM      4  O   LIG    1       -1.127  -2.434   0.294  0.00  0.00    -0.520 OA
ENDROOT
BRANCH   2   5
ATOM      5  C   LIG    1        0.002  -0.004   0.002  0.00  0.00    +0.260 C 
ATOM      6  C   LIG    1       -0.019   1.538   0.011  0.00  0.00    +0.050 C 
ATOM      7  C   LIG    1        1.477   1.939  -0.002  0.00  0.00    +0.000 C 
ATOM      8  C   LIG    1        2.107   0.881  -0.942  0.00  0.00    -0.010 C 
ATOM      9  C   LIG    1        1.353  -0.422  -0.604  0.00  0.00    +0.150 C 
BRANCH   9  10
ATOM     10  O   LIG    1        2.100  -1.186   0.345  0.00  0.00    -0.550 OA
ATOM     11  H   LIG    1        2.963  -1.480   0.022  0.00  0.00    +0.380 HD
ENDBRANCH   9  10
BRANCH   7  12
ATOM     12  C   LIG    1        1.657   3.347  -0.572  0.00  0.00    +0.330 C 
BRANCH  12  13
ATOM     13  N   LIG    1        3.063   3.743  -0.461  0.00  0.00    -0.370 N 
ATOM     14  C   LIG    1        3.853   4.161  -1.472  0.00  0.00    +0.220 A 
ATOM     15  C   LIG    1        5.075   4.430  -0.957  0.00  0.00    -0.120 A 
ATOM     16  C   LIG    1        5.031   4.167   0.416  0.00  0.00    +0.220 A 
ATOM     17  N   LIG    1        3.824   3.760   0.716  0.00  0.00    -0.290 NA
ENDBRANCH  12  13
ENDBRANCH   7  12
ENDBRANCH   2   5
BRANCH   1  18
ATOM     18  C   LIG    1       -2.721  -2.276  -1.439  0.00  0.00    +0.060 C 
BRANCH  18  19
ATOM     19  C   LIG    1       -3.091  -3.687  -0.975  0.00  0.00    +0.040 C 
BRANCH  19  20
ATOM     20  C   LIG    1       -4.238  -4.222  -1.835  0.00  0.00    +0.330 C 
BRANCH  20  24
ATOM     21  C   LIG    1       -6.404  -8.039   0.595  0.00  0.00    +0.190 C 
ATOM     22  C   LIG    1       -5.539  -7.221  -0.329  0.00  0.00    +0.220 A 
ATOM     23  N   LIG    1       -5.539  -5.916  -0.412  0.00  0.00    -0.320 NA
ATOM     24  N   LIG    1       -4.591  -5.572  -1.391  0.00  0.00    -0.380 N 
ATOM     25  C   LIG    1       -4.078  -6.729  -1.844  0.00  0.00    +0.280 A 
ATOM     26  C   LIG    1       -3.023  -6.872  -2.910  0.00  0.00    +0.190 C 
ATOM     27  N   LIG    1       -4.652  -7.710  -1.195  0.00  0.00    -0.540 NA
ENDBRANCH  20  24
ENDBRANCH  19  20
ENDBRANCH  18  19
ENDBRANCH   1  18
TORSDOF 8
