REMARK  Name = ZINCrH000004tS3A.0
REMARK                            x       y       z     vdW  Elec       q    Type
REMARK                         _______ _______ _______ _____ _____    ______ ____
ROOT
ATOM      1  O   LIG    1        5.707   4.005  -1.349  0.00  0.00    -0.510 OA
ATOM      2  C   LIG    1        5.064   3.971  -2.377  0.00  0.00    +0.520 C 
ATOM      3  N   LIG    1        3.837   3.412  -2.386  0.00  0.00    -0.670 N 
ATOM      4  H   LIG    1        3.351   3.324  -3.221  0.00  0.00    +0.410 HD
ENDROOT
BRANCH   3   5
ATOM      5  C   LIG    1        3.266   2.959  -1.192  0.00  0.00    +0.150 A 
ATOM      6  C   LIG    1        4.067   2.400  -0.206  0.00  0.00    +0.050 A 
ATOM      7  C   LIG    1        3.500   1.954   0.972  0.00  0.00    +0.030 A 
ATOM      8  C   LIG    1        2.136   2.064   1.169  0.00  0.00    +0.020 A 
ATOM      9  C   LIG    1        1.335   2.621   0.189  0.00  0.00    -0.120 A 
ATOM     10  C   LIG    1        1.895   3.065  -0.992  0.00  0.00    +0.020 A 
BRANCH   9  11
ATOM     11  C   LIG    1       -0.151   2.740   0.409  0.00  0.00    +0.270 C 
BRANCH  11  12
ATOM     12  C   LIG    1       -0.816   1.390   0.131  0.00  0.00    +0.420 C 
ATOM     13  F   LIG    1       -0.569   1.012  -1.193  0.00  0.00    -0.180 F 
ATOM     14  F   LIG    1       -2.196   1.500   0.335  0.00  0.00    -0.170 F 
ATOM     15  F   LIG    1       -0.292   0.425   0.998  0.00  0.00    -0.180 F 
ENDBRANCH  11  12
BRANCH  11  16
ATOM     16  O   LIG    1       -0.404   3.126   1.761  0.00  0.00    -0.520 OA
ATOM     17  H   LIG    1       -0.067   2.501   2.418  0.00  0.00    +0.390 HD
ENDBRANCH  11  16
ENDBRANCH   9  11
ENDBRANCH   3   5
BRANCH   2  18
ATOM     18  C   LIG    1        5.636   4.553  -3.644  0.00  0.00    +0.070 C 
BRANCH  18  19
ATOM     19  C   LIG    1        7.029   5.119  -3.361  0.00  0.00    +0.090 C 
ATOM     20  C   LIG    1        6.914   6.295  -2.392  0.00  0.00    +0.090 C 
ATOM     21  C   LIG    1        6.298   7.477  -3.090  0.00  0.00    +0.520 C 
ATOM     22  N   LIG    1        6.557   7.722  -4.388  0.00  0.00    -0.670 N 
ATOM     23  H   LIG    1        6.162   8.495  -4.820  0.00  0.00    +0.410 HD
ATOM     24  C   LIG    1        7.393   6.870  -5.117  0.00  0.00    +0.170 A 
ATOM     25  C   LIG    1        7.965   7.303  -6.305  0.00  0.00    -0.020 A 
ATOM     26  C   LIG    1        8.790   6.456  -7.020  0.00  0.00    +0.050 A 
ATOM     27  C   LIG    1        9.046   5.180  -6.553  0.00  0.00    -0.010 A 
ATOM     28  C   LIG    1        8.476   4.746  -5.370  0.00  0.00    +0.050 A 
ATOM     29  O   LIG    1        5.558   8.217  -2.477  0.00  0.00    -0.520 OA
ATOM     30  C   LIG    1        7.652   5.588  -4.651  0.00  0.00    -0.120 A 
ENDBRANCH  18  19
ENDBRANCH   2  18
TORSDOF 6
