REMARK  Name = ZINCrH000004skZO.0
REMARK                            x       y       z     vdW  Elec       q    Type
REMARK                         _______ _______ _______ _____ _____    ______ ____
ROOT
ATOM      1  C   LIG    1       -0.848   3.339   1.444  0.00  0.00    +0.260 A 
ATOM      2  C   LIG    1       -0.334   4.255   0.530  0.00  0.00    -0.080 A 
ATOM      3  C   LIG    1       -0.478   5.605   0.750  0.00  0.00    +0.110 A 
ATOM      4  C   LIG    1       -1.132   6.059   1.899  0.00  0.00    -0.190 A 
ATOM      5  C   LIG    1       -1.643   5.137   2.820  0.00  0.00    +0.070 A 
ATOM      6 CL   LIG    1       -2.456   5.694   4.248  0.00  0.00    -0.030 Cl
ATOM      7  C   LIG    1       -1.499   3.786   2.590  0.00  0.00    -0.060 A 
ENDROOT
BRANCH   4   8
ATOM      8  C   LIG    1       -1.282   7.506   2.141  0.00  0.00    +0.560 C 
ATOM      9  N   LIG    1       -0.790   8.392   1.253  0.00  0.00    -0.730 N 
ATOM     10  H   LIG    1       -0.336   8.079   0.455  0.00  0.00    +0.400 HD
ATOM     11  O   LIG    1       -1.851   7.899   3.141  0.00  0.00    -0.520 OA
BRANCH   9  12
ATOM     12  C   LIG    1       -0.940   9.830   1.494  0.00  0.00    +0.260 C 
BRANCH  12  13
ATOM     13  C   LIG    1       -0.298  10.609   0.344  0.00  0.00    -0.030 C 
ATOM     14  C   LIG    1       -0.343  12.106   0.654  0.00  0.00    +0.030 C 
ATOM     15  C   LIG    1       -1.066  10.333  -0.950  0.00  0.00    +0.020 C 
ENDBRANCH  12  13
ENDBRANCH   9  12
ENDBRANCH   4   8
BRANCH   1  16
ATOM     16  N   LIG    1       -0.704   1.975   1.216  0.00  0.00    -0.730 N 
ATOM     17  H   LIG    1       -1.058   1.337   1.854  0.00  0.00    +0.410 HD
BRANCH  16  18
ATOM     18  C   LIG    1       -0.018   1.503   0.010  0.00  0.00    +0.360 C 
BRANCH  18  25
ATOM     19  C   LIG    1       -0.477  -5.059  -0.787  0.00  0.00    +0.170 C 
ATOM     20  C   LIG    1        0.193  -4.109   0.172  0.00  0.00    +0.080 A 
ATOM     21  C   LIG    1        0.918  -4.571   1.176  0.00  0.00    +0.000 A 
ATOM     22  S   LIG    1        1.507  -3.136   2.034  0.00  0.00    +0.190 S 
ATOM     23  C   LIG    1        0.708  -1.992   0.942  0.00  0.00    +0.320 A 
ATOM     24  N   LIG    1        0.677  -0.672   0.930  0.00  0.00    -0.500 NA
ATOM     25  C   LIG    1        0.002  -0.004   0.002  0.00  0.00    +0.190 A 
ATOM     26  C   LIG    1       -0.684  -0.706  -0.966  0.00  0.00    -0.110 A 
ATOM     27  C   LIG    1       -0.646  -2.102  -0.954  0.00  0.00    +0.530 A 
ATOM     28  O   LIG    1       -1.245  -2.738  -1.807  0.00  0.00    -0.510 OA
ATOM     29  N   LIG    1        0.060  -2.752   0.017  0.00  0.00    -0.460 N 
ENDBRANCH  18  25
ENDBRANCH  16  18
ENDBRANCH   1  16
TORSDOF 6
