REMARK  Name = ZINCtV00001bB37q.0
REMARK                            x       y       z     vdW  Elec       q    Type
REMARK                         _______ _______ _______ _____ _____    ______ ____
ROOT
ATOM      1  C   LIG    1       -2.781   9.434   0.075  0.00  0.00    +0.280 A 
ATOM      2  N   LIG    1       -2.613   8.150   0.073  0.00  0.00    -0.450 NA
ATOM      3  C   LIG    1       -3.732   7.418   0.074  0.00  0.00    +0.090 A 
ATOM      4  C   LIG    1       -4.887   8.144   0.088  0.00  0.00    -0.080 A 
ATOM      5  S   LIG    1       -4.500   9.809   0.093  0.00  0.00    +0.170 S 
ENDROOT
BRANCH   1   8
ATOM      6  C   LIG    1        0.638  10.990   0.051  0.00  0.00    +0.110 C 
ATOM      7  C   LIG    1       -0.472   9.970   0.057  0.00  0.00    +0.510 C 
ATOM      8  N   LIG    1       -1.758  10.374   0.071  0.00  0.00    -0.480 N 
ATOM      9  O   LIG    1       -0.208   8.787   0.048  0.00  0.00    -0.470 OA
BRANCH   8  10
ATOM     10  C   LIG    1       -2.062  11.741   0.080  0.00  0.00    +0.100 A 
ATOM     11  C   LIG    1       -2.208  12.413   1.287  0.00  0.00    +0.030 A 
ATOM     12  C   LIG    1       -2.503  13.763   1.293  0.00  0.00    +0.020 A 
ATOM     13  C   LIG    1       -2.664  14.442   0.100  0.00  0.00    +0.040 A 
ATOM     14  C   LIG    1       -2.525  13.774  -1.104  0.00  0.00    -0.080 A 
ATOM     15  C   LIG    1       -2.701  14.519  -2.402  0.00  0.00    +0.100 C 
ATOM     16  C   LIG    1       -2.225  12.427  -1.117  0.00  0.00    -0.060 A 
ATOM     17  C   LIG    1       -2.073  11.700  -2.428  0.00  0.00    +0.100 C 
ENDBRANCH   8  10
ENDBRANCH   1   8
BRANCH   3  18
ATOM     18  C   LIG    1       -3.718   5.953   0.066  0.00  0.00    +0.170 C 
ATOM     19  C   LIG    1       -2.537   5.287   0.052  0.00  0.00    -0.060 C 
BRANCH  19  20
ATOM     20  C   LIG    1       -2.523   3.873   0.045  0.00  0.00    +0.420 C 
ATOM     21  O   LIG    1       -3.572   3.254   0.051  0.00  0.00    -0.440 OA
BRANCH  20  22
ATOM     22  C   LIG    1       -1.236   3.146   0.030  0.00  0.00    -0.140 A 
ATOM     23  C   LIG    1       -0.032   3.852   0.023  0.00  0.00    +0.110 A 
ATOM     24  C   LIG    1        1.167   3.167   0.008  0.00  0.00    -0.050 A 
ATOM     25  C   LIG    1        1.177   1.782   0.000  0.00  0.00    +0.080 A 
ATOM     26  C   LIG    1       -0.013   1.076   0.008  0.00  0.00    +0.040 A 
ATOM     27 CL   LIG    1        2.665   4.044  -0.001  0.00  0.00    -0.050 Cl
ATOM     28  C   LIG    1       -1.219   1.748   0.017  0.00  0.00    +0.010 A 
ATOM     29 CL   LIG    1       -2.710   0.860   0.020  0.00  0.00    -0.030 Cl
ENDBRANCH  20  22
ENDBRANCH  19  20
ENDBRANCH   3  18
TORSDOF 5
