REMARK  Name = ZINCrD000000CNyY.0
REMARK                            x       y       z     vdW  Elec       q    Type
REMARK                         _______ _______ _______ _____ _____    ______ ____
ROOT
ATOM      1  C   LIG    1        1.119   1.700   0.007  0.00  0.00    +0.530 C 
ATOM      2  N   LIG    1       -0.011   0.966   0.007  0.00  0.00    -0.660 N 
ATOM      3  H   LIG    1        0.040  -0.003   0.004  0.00  0.00    +0.420 HD
ATOM      4  O   LIG    1        1.057   2.909  -0.074  0.00  0.00    -0.480 OA
ENDROOT
BRANCH   1   9
ATOM      5  O   LIG    1        4.806   3.059   1.672  0.00  0.00    -0.490 OA
ATOM      6  C   LIG    1        4.002   2.209   1.352  0.00  0.00    +0.550 C 
ATOM      7  C   LIG    1        3.308   1.271   2.314  0.00  0.00    +0.110 C 
ATOM      8  C   LIG    1        2.624   0.206   1.400  0.00  0.00    +0.120 C 
ATOM      9  C   LIG    1        2.460   1.020   0.106  0.00  0.00    +0.120 C 
ATOM     10  S   LIG    1        2.850  -0.012  -1.355  0.00  0.00    -0.070 S 
ATOM     11  C   LIG    1        3.775   1.260  -2.182  0.00  0.00    -0.120 A 
ATOM     12  C   LIG    1        4.252   1.365  -3.472  0.00  0.00    +0.080 A 
ATOM     13  C   LIG    1        4.916   2.513  -3.871  0.00  0.00    +0.030 A 
ATOM     14  C   LIG    1        5.089   3.545  -2.968  0.00  0.00    +0.050 A 
ATOM     15  C   LIG    1        4.633   3.434  -1.672  0.00  0.00    +0.030 A 
ATOM     16  C   LIG    1        3.984   2.272  -1.240  0.00  0.00    +0.150 A 
ATOM     17  N   LIG    1        3.600   1.965   0.082  0.00  0.00    -0.550 N 
ENDBRANCH   1   9
BRANCH   2  18
ATOM     18  C   LIG    1       -1.258   1.601   0.007  0.00  0.00    +0.140 A 
ATOM     19  C   LIG    1       -1.431   2.793  -0.686  0.00  0.00    +0.060 A 
ATOM     20  C   LIG    1       -2.661   3.424  -0.690  0.00  0.00    +0.040 A 
ATOM     21  C   LIG    1       -3.726   2.873  -0.006  0.00  0.00    +0.050 A 
ATOM     22  C   LIG    1       -3.563   1.676   0.693  0.00  0.00    -0.010 A 
ATOM     23  C   LIG    1       -2.323   1.037   0.693  0.00  0.00    +0.060 A 
BRANCH  22  24
ATOM     24  C   LIG    1       -4.702   1.084   1.426  0.00  0.00    +0.210 A 
ATOM     25  N   LIG    1       -4.687  -0.030   2.120  0.00  0.00    -0.280 NA
ATOM     26  N   LIG    1       -5.855  -0.234   2.620  0.00  0.00    -0.290 NA
ATOM     27  C   LIG    1       -6.655   0.734   2.268  0.00  0.00    +0.420 A 
ATOM     28  O   LIG    1       -5.948   1.591   1.511  0.00  0.00    -0.220 OA
ENDBRANCH  22  24
ENDBRANCH   2  18
TORSDOF 3
