REMARK  Name = ZINCpk00000y6yPj.0
REMARK                            x       y       z     vdW  Elec       q    Type
REMARK                         _______ _______ _______ _____ _____    ______ ____
ROOT
ATOM      1  C   LIG    1        1.512  -1.723   0.778  0.00  0.00    +0.510 C 
ATOM      2  N   LIG    1        2.693  -2.372   0.807  0.00  0.00    -0.600 N 
ATOM      3  C   LIG    1        3.814  -1.836   0.011  0.00  0.00    +0.250 C 
ATOM      4  C   LIG    1        4.597  -2.947  -0.711  0.00  0.00    +0.020 C 
ATOM      5  C   LIG    1        3.644  -3.978  -1.263  0.00  0.00    +0.030 C 
ATOM      6  C   LIG    1        3.447  -5.088  -0.234  0.00  0.00    +0.170 C 
ATOM      7  C   LIG    1        2.413  -4.804   0.773  0.00  0.00    -0.020 C 
ATOM      8  C   LIG    1        2.810  -3.562   1.619  0.00  0.00    +0.290 C 
ATOM      9  O   LIG    1        0.574  -2.142   1.423  0.00  0.00    -0.510 OA
ENDROOT
BRANCH   1  14
ATOM     10  C   LIG    1       -0.745   1.944  -1.233  0.00  0.00    +0.030 C 
ATOM     11  C   LIG    1       -0.017   1.428   0.010  0.00  0.00    +0.150 C 
ATOM     12  C   LIG    1        1.448   1.915  -0.002  0.00  0.00    +0.020 C 
ATOM     13  C   LIG    1        2.211   0.674   0.537  0.00  0.00    +0.020 C 
ATOM     14  C   LIG    1        1.358  -0.476  -0.054  0.00  0.00    +0.150 C 
ATOM     15  O   LIG    1        0.002  -0.004   0.002  0.00  0.00    -0.350 OA
ENDBRANCH   1  14
BRANCH   6  16
ATOM     16  N   LIG    1        3.082  -6.322  -0.943  0.00  0.00    -0.530 NA
ATOM     17  C   LIG    1        1.825  -6.151  -1.684  0.00  0.00    +0.190 C 
BRANCH  16  18
ATOM     18  C   LIG    1        2.995  -7.456  -0.014  0.00  0.00    +0.290 C 
BRANCH  18  19
ATOM     19  C   LIG    1        2.863  -8.737  -0.796  0.00  0.00    +0.370 A 
ATOM     20  N   LIG    1        1.660  -9.179  -1.103  0.00  0.00    -0.560 NA
ATOM     21  C   LIG    1        1.500 -10.299  -1.794  0.00  0.00    +0.350 A 
ATOM     22  C   LIG    1        2.615 -11.014  -2.186  0.00  0.00    -0.160 A 
ATOM     23  C   LIG    1        3.874 -10.521  -1.840  0.00  0.00    +0.440 A 
ATOM     24  N   LIG    1        3.953  -9.387  -1.149  0.00  0.00    -0.560 NA
BRANCH  23  25
ATOM     25  N   LIG    1        5.023 -11.201  -2.210  0.00  0.00    -0.840 N 
ATOM     26  H   LIG    1        4.956 -12.027  -2.713  0.00  0.00    +0.410 HD
ATOM     27  H   LIG    1        5.894 -10.851  -1.966  0.00  0.00    +0.410 HD
ENDBRANCH  23  25
ENDBRANCH  18  19
ENDBRANCH  16  18
ENDBRANCH   6  16
TORSDOF 5
