REMARK  Name = ZINCtV000002AHDo.0
REMARK                            x       y       z     vdW  Elec       q    Type
REMARK                         _______ _______ _______ _____ _____    ______ ____
ROOT
ATOM      1  C   LIG    1       -4.649  -0.329   1.830  0.00  0.00    +0.170 C 
ENDROOT
BRANCH   1   4
ATOM      2  C   LIG    1       -7.021   0.057   4.566  0.00  0.00    +0.110 A 
ATOM      3  N   LIG    1       -5.981  -0.371   3.909  0.00  0.00    -0.450 NA
ATOM      4  C   LIG    1       -5.815   0.087   2.689  0.00  0.00    +0.080 A 
ATOM      5  C   LIG    1       -6.748   0.940   2.255  0.00  0.00    -0.070 A 
ATOM      6  S   LIG    1       -7.930   1.167   3.543  0.00  0.00    +0.160 S 
BRANCH   2  13
ATOM      7  C   LIG    1       -8.532   0.201   6.546  0.00  0.00    +0.160 A 
ATOM      8  C   LIG    1       -8.866  -0.171   7.838  0.00  0.00    -0.050 A 
ATOM      9  C   LIG    1       -8.064  -1.055   8.534  0.00  0.00    +0.110 A 
ATOM     10  C   LIG    1       -6.925  -1.578   7.946  0.00  0.00    -0.130 A 
ATOM     11  C   LIG    1       -6.581  -1.221   6.657  0.00  0.00    +0.150 A 
ATOM     12 BR   LIG    1       -5.836  -2.785   8.911  0.00  0.00    -0.040 Br
ATOM     13  C   LIG    1       -7.384  -0.330   5.945  0.00  0.00    -0.050 A 
BRANCH   7  15
ATOM     14  C   LIG    1      -10.473   1.574   6.540  0.00  0.00    +0.250 C 
ATOM     15  O   LIG    1       -9.318   1.074   5.863  0.00  0.00    -0.310 OA
ENDBRANCH   7  15
ENDBRANCH   2  13
ENDBRANCH   1   4
BRANCH   1  16
ATOM     16  S   LIG    1       -3.266   0.814   2.093  0.00  0.00    -0.160 S 
BRANCH  16  17
ATOM     17  C   LIG    1       -1.981   0.160   0.993  0.00  0.00    +0.010 C 
ATOM     18  C   LIG    1       -1.554  -1.228   1.475  0.00  0.00    +0.080 C 
BRANCH  17  19
ATOM     19  C   LIG    1       -0.790   1.084   1.005  0.00  0.00    +0.540 C 
ATOM     20  N   LIG    1        0.048   1.117  -0.049  0.00  0.00    -0.680 N 
ATOM     21  H   LIG    1       -0.154   0.603  -0.846  0.00  0.00    +0.410 HD
ATOM     22  O   LIG    1       -0.587   1.798   1.964  0.00  0.00    -0.500 OA
BRANCH  20  23
ATOM     23  C   LIG    1        1.208   1.898   0.004  0.00  0.00    +0.130 A 
ATOM     24  C   LIG    1        1.172   3.227  -0.396  0.00  0.00    -0.070 A 
ATOM     25  C   LIG    1        2.317   3.996  -0.338  0.00  0.00    +0.010 A 
ATOM     26  C   LIG    1        3.503   3.441   0.107  0.00  0.00    +0.030 A 
ATOM     27  C   LIG    1        3.544   2.116   0.502  0.00  0.00    +0.010 A 
ATOM     28  C   LIG    1       -0.118   3.832  -0.887  0.00  0.00    +0.090 C 
ATOM     29  C   LIG    1        2.401   1.343   0.451  0.00  0.00    -0.070 A 
ATOM     30  C   LIG    1        2.446  -0.100   0.880  0.00  0.00    +0.090 C 
ENDBRANCH  20  23
ENDBRANCH  17  19
ENDBRANCH  16  17
ENDBRANCH   1  16
TORSDOF 7
