REMARK  Name = ZINCAx0000000aUr.0
REMARK                            x       y       z     vdW  Elec       q    Type
REMARK                         _______ _______ _______ _____ _____    ______ ____
ROOT
ATOM      1  C   LIG    1       -7.603  -0.244  -3.734  0.00  0.00    +0.160 C 
ENDROOT
BRANCH   1   2
ATOM      2  C   LIG    1       -7.649  -1.766  -3.580  0.00  0.00    +0.030 C 
ATOM      3  C   LIG    1       -8.014  -2.588  -4.813  0.00  0.00    -0.120 C 
ATOM      4  C   LIG    1       -7.337  -3.857  -5.344  0.00  0.00    +0.050 C 
ATOM      5  C   LIG    1       -6.926  -3.024  -6.571  0.00  0.00    +0.010 C 
ATOM      6  C   LIG    1       -8.134  -2.120  -6.268  0.00  0.00    +0.050 C 
ATOM      7  C   LIG    1       -9.014  -2.443  -3.678  0.00  0.00    -0.140 C 
ATOM      8  C   LIG    1      -10.401  -1.791  -3.694  0.00  0.00    +0.040 C 
ATOM      9  C   LIG    1      -10.650  -2.484  -2.343  0.00  0.00    +0.020 C 
ATOM     10  C   LIG    1       -9.604  -3.528  -2.770  0.00  0.00    +0.070 C 
ENDBRANCH   1   2
BRANCH   1  11
ATOM     11  N   LIG    1       -6.259   0.242  -3.392  0.00  0.00    -0.510 NA
ATOM     12  C   LIG    1       -6.166   1.697  -3.567  0.00  0.00    +0.180 C 
ATOM     13  C   LIG    1       -4.710   2.139  -3.377  0.00  0.00    +0.300 C 
ATOM     14  N   LIG    1       -4.235   1.636  -2.079  0.00  0.00    -0.620 N 
ATOM     15  C   LIG    1       -4.415   0.208  -1.778  0.00  0.00    +0.290 C 
ATOM     16  C   LIG    1       -3.646   2.462  -1.192  0.00  0.00    +0.520 C 
ATOM     17  O   LIG    1       -3.501   3.636  -1.459  0.00  0.00    -0.520 OA
ATOM     18  C   LIG    1       -5.887  -0.156  -2.028  0.00  0.00    +0.180 C 
BRANCH  16  19
ATOM     19  C   LIG    1       -3.166   1.926   0.132  0.00  0.00    +0.200 C 
BRANCH  19  20
ATOM     20  O   LIG    1       -2.582   2.986   0.892  0.00  0.00    -0.350 OA
BRANCH  20  21
ATOM     21  C   LIG    1       -2.092   2.583   2.172  0.00  0.00    +0.130 C 
ATOM     22  C   LIG    1       -0.922   3.489   2.615  0.00  0.00    +0.020 C 
ATOM     23  C   LIG    1       -1.429   4.148   3.917  0.00  0.00    +0.210 C 
ATOM     24  O   LIG    1       -2.434   3.241   4.422  0.00  0.00    -0.370 OA
ATOM     25  C   LIG    1       -3.168   2.800   3.259  0.00  0.00    +0.180 C 
ENDBRANCH  20  21
ENDBRANCH  19  20
ENDBRANCH  16  19
ENDBRANCH   1  11
BRANCH   1  27
ATOM     26  O   LIG    1       -7.029   0.402  -5.930  0.00  0.00    -0.510 OA
ATOM     27  C   LIG    1       -7.924   0.127  -5.159  0.00  0.00    +0.540 C 
ATOM     28  N   LIG    1       -9.205   0.154  -5.576  0.00  0.00    -0.740 N 
ATOM     29  H   LIG    1       -9.915  -0.136  -4.982  0.00  0.00    +0.400 HD
BRANCH  28  30
ATOM     30  C   LIG    1       -9.526   0.620  -6.927  0.00  0.00    +0.320 C 
BRANCH  30  31
ATOM     31  C   LIG    1      -11.016   0.551  -7.142  0.00  0.00    -0.120 A 
ATOM     32  C   LIG    1      -11.587  -0.597  -7.658  0.00  0.00    +0.070 A 
ATOM     33  C   LIG    1      -12.954  -0.663  -7.850  0.00  0.00    -0.010 A 
ATOM     34  C   LIG    1      -13.750   0.425  -7.536  0.00  0.00    +0.110 A 
ATOM     35  C   LIG    1      -13.176   1.577  -7.024  0.00  0.00    -0.010 A 
ATOM     36  F   LIG    1      -15.086   0.364  -7.729  0.00  0.00    -0.140 F 
ATOM     37  C   LIG    1      -11.810   1.639  -6.828  0.00  0.00    +0.070 A 
ENDBRANCH  30  31
ENDBRANCH  28  30
ENDBRANCH   1  27
TORSDOF 8
