REMARK  Name = ZINCpk00000y6y8g.0
REMARK                            x       y       z     vdW  Elec       q    Type
REMARK                         _______ _______ _______ _____ _____    ______ ____
ROOT
ATOM      1  C   LIG    1       -3.705   3.265   2.587  0.00  0.00    +0.390 C 
ENDROOT
BRANCH   1   4
ATOM      2  O   LIG    1       -2.785   1.076   3.865  0.00  0.00    -0.520 OA
ATOM      3  C   LIG    1       -2.596   2.132   4.437  0.00  0.00    +0.570 C 
ATOM      4  N   LIG    1       -3.019   3.285   3.881  0.00  0.00    -0.710 N 
ATOM      5  H   LIG    1       -2.869   4.127   4.338  0.00  0.00    +0.410 HD
BRANCH   3   6
ATOM      6  C   LIG    1       -1.904   2.151   5.743  0.00  0.00    -0.140 A 
ATOM      7  C   LIG    1       -1.681   3.362   6.401  0.00  0.00    +0.050 A 
ATOM      8  C   LIG    1       -1.038   3.373   7.621  0.00  0.00    +0.000 A 
ATOM      9  C   LIG    1       -0.605   2.188   8.189  0.00  0.00    +0.040 A 
ATOM     10  C   LIG    1       -0.819   0.984   7.540  0.00  0.00    +0.000 A 
ATOM     11  C   LIG    1       -1.465   0.959   6.322  0.00  0.00    +0.080 A 
ENDBRANCH   3   6
ENDBRANCH   1   4
BRANCH   1  12
ATOM     12  C   LIG    1       -4.915   4.162   2.647  0.00  0.00    +0.420 C 
ATOM     13  O   LIG    1       -5.304   4.724   1.643  0.00  0.00    -0.440 OA
BRANCH  12  14
ATOM     14  C   LIG    1       -5.597   4.347   3.870  0.00  0.00    -0.330 A 
ATOM     15  C   LIG    1       -6.703   5.138   4.053  0.00  0.00    +0.120 A 
ATOM     16  C   LIG    1       -7.164   5.132   5.345  0.00  0.00    -0.010 A 
ATOM     17  C   LIG    1       -6.462   4.373   6.198  0.00  0.00    -0.060 A 
ATOM     18  S   LIG    1       -5.161   3.606   5.404  0.00  0.00    +0.260 S 
ENDBRANCH  12  14
ENDBRANCH   1  12
BRANCH   1  19
ATOM     19  N   LIG    1       -2.792   3.745   1.541  0.00  0.00    -0.670 NA
ATOM     20  H   LIG    1       -3.235   4.448   0.969  0.00  0.00    +0.370 HD
BRANCH  19  21
ATOM     21  C   LIG    1       -2.300   2.631   0.720  0.00  0.00    +0.180 C 
ATOM     22  C   LIG    1       -1.895   3.152  -0.670  0.00  0.00    +0.070 C 
ATOM     23  C   LIG    1       -1.088   2.017  -1.351  0.00  0.00    -0.310 C 
ATOM     24  S   LIG    1       -0.017   1.417   0.010  0.00  0.00    +2.390 S 
ATOM     25  O   LIG    1        1.205   2.141   0.002  0.00  0.00    -0.930 OA
ATOM     26  O   LIG    1        0.002  -0.004   0.002  0.00  0.00    -0.940 OA
ATOM     27  C   LIG    1       -1.059   2.001   1.395  0.00  0.00    -0.290 C 
ENDBRANCH  19  21
ENDBRANCH   1  19
TORSDOF 6
