REMARK  Name = ZINCnE000001Qgmt.1
REMARK                            x       y       z     vdW  Elec       q    Type
REMARK                         _______ _______ _______ _____ _____    ______ ____
ROOT
ATOM      1  N   LIG    1        3.132   1.840   4.181  0.00  0.00    -0.660 NA
ATOM      2  C   LIG    1        3.506   2.158   5.436  0.00  0.00    +0.460 C 
ATOM      3  O   LIG    1        2.678   2.533   6.239  0.00  0.00    -0.590 OA
ENDROOT
BRANCH   1   8
ATOM      4  C   LIG    1       -0.013   1.086   0.008  0.00  0.00    +0.080 C 
ATOM      5  C   LIG    1       -0.718   1.572   1.248  0.00  0.00    -0.080 A 
ATOM      6  C   LIG    1        0.020   1.809   2.427  0.00  0.00    +0.150 A 
ATOM      7  N   LIG    1        1.343   1.661   2.638  0.00  0.00    -0.560 NA
ATOM      8  C   LIG    1        1.801   1.941   3.808  0.00  0.00    +0.410 A 
ATOM      9  S   LIG    1        0.500   2.467   4.866  0.00  0.00    -0.030 S 
ATOM     10  C   LIG    1       -0.664   2.260   3.560  0.00  0.00    -0.230 A 
ATOM     11  C   LIG    1       -2.041   2.466   3.517  0.00  0.00    +0.050 A 
ATOM     12  C   LIG    1       -2.741   2.227   2.354  0.00  0.00    -0.040 A 
ATOM     13  C   LIG    1       -2.073   1.786   1.221  0.00  0.00    +0.010 A 
ENDBRANCH   1   8
BRANCH   2  14
ATOM     14  C   LIG    1        4.953   2.049   5.842  0.00  0.00    +0.060 C 
BRANCH  14  15
ATOM     15  C   LIG    1        5.105   2.465   7.306  0.00  0.00    +0.290 C 
BRANCH  15  16
ATOM     16  N   LIG    1        6.512   2.359   7.701  0.00  0.00    -0.720 N 
ATOM     17  H   LIG    1        7.175   2.059   7.058  0.00  0.00    +0.400 HD
ATOM     18  C   LIG    1        6.886   2.677   8.956  0.00  0.00    +0.590 C 
ATOM     19  O   LIG    1        6.055   3.053   9.761  0.00  0.00    -0.530 OA
BRANCH  18  20
ATOM     20  C   LIG    1        8.294   2.570   9.350  0.00  0.00    -0.260 A 
ATOM     21  C   LIG    1        8.795   2.863  10.588  0.00  0.00    +0.090 A 
ATOM     22  C   LIG    1       10.153   2.673  10.683  0.00  0.00    +0.000 A 
ATOM     23  C   LIG    1       10.746   2.240   9.564  0.00  0.00    -0.060 A 
ATOM     24  S   LIG    1        9.607   2.038   8.310  0.00  0.00    +0.200 S 
ENDBRANCH  18  20
ENDBRANCH  15  16
ENDBRANCH  14  15
ENDBRANCH   2  14
TORSDOF 5
