REMARK  Name = ZINCbw00000004Db.0
REMARK                            x       y       z     vdW  Elec       q    Type
REMARK                         _______ _______ _______ _____ _____    ______ ____
ROOT
ATOM      1  C   LIG    1        1.689   2.229  -0.002  0.00  0.00    -0.060 A 
ATOM      2  C   LIG    1        2.651   1.223  -0.011  0.00  0.00    -0.010 A 
ATOM      3  C   LIG    1        3.988   1.547  -0.028  0.00  0.00    +0.090 A 
ATOM      4  C   LIG    1        4.380   2.890  -0.024  0.00  0.00    -0.040 A 
ATOM      5  C   LIG    1        3.412   3.898  -0.009  0.00  0.00    +0.090 A 
ATOM      6  C   LIG    1        2.076   3.567   0.001  0.00  0.00    +0.040 A 
ENDROOT
BRANCH   4   7
ATOM      7  C   LIG    1        5.771   3.231  -0.034  0.00  0.00    +0.250 C 
ATOM      8  N   LIG    1        6.874   3.501  -0.043  0.00  0.00    -0.410 NA
ENDBRANCH   4   7
BRANCH   1   9
ATOM      9  S   LIG    1       -0.022   1.810   0.012  0.00  0.00    -0.100 S 
BRANCH   9  11
ATOM     10  C   LIG    1       -1.433  -0.534   0.013  0.00  0.00    +0.080 C 
ATOM     11  C   LIG    1        0.002  -0.004   0.002  0.00  0.00    +0.060 C 
ENDBRANCH   9  11
ENDBRANCH   1   9
TORSDOF 3
