REMARK  Name = ZINCbu0000000GDt.0
REMARK                            x       y       z     vdW  Elec       q    Type
REMARK                         _______ _______ _______ _____ _____    ______ ____
ROOT
ATOM      1  C   LIG    1       -1.229   2.407   0.021  0.00  0.00    -0.170 A 
ATOM      2  C   LIG    1       -1.246   3.791   0.033  0.00  0.00    +0.110 A 
ATOM      3  C   LIG    1       -0.056   4.498   0.025  0.00  0.00    +0.030 A 
ATOM      4  C   LIG    1        1.149   3.822   0.011  0.00  0.00    +0.110 A 
ATOM      5  C   LIG    1        1.167   2.440   0.004  0.00  0.00    +0.060 A 
ATOM      6  F   LIG    1       -2.425   4.452   0.047  0.00  0.00    -0.130 F 
ATOM      7  C   LIG    1       -0.021   1.732   0.012  0.00  0.00    +0.010 A 
ATOM      8 CL   LIG    1        0.002  -0.004   0.002  0.00  0.00    -0.020 Cl
ENDROOT
BRANCH   1  10
ATOM      9  C   LIG    1       -3.146   1.689   1.419  0.00  0.00    +0.110 C 
ATOM     10  C   LIG    1       -2.524   1.636   0.023  0.00  0.00    +0.240 C 
BRANCH  10  11
ATOM     11  N   LIG    1       -3.450   2.233  -0.949  0.00  0.00    -0.640 N 
ATOM     12  H   LIG    1       -4.317   1.717  -0.948  0.00  0.00    +0.440 HD
ATOM     13  H   LIG    1       -3.039   2.198  -1.870  0.00  0.00    +0.440 HD
ATOM     14  H   LIG    1       -3.630   3.193  -0.697  0.00  0.00    +0.430 HD
ENDBRANCH  10  11
ENDBRANCH   1  10
TORSDOF 2
