REMARK  Name = ZINCtj0000002Stf.1
REMARK                            x       y       z     vdW  Elec       q    Type
REMARK                         _______ _______ _______ _____ _____    ______ ____
ROOT
ATOM      1  N   LIG    1        1.133  -4.756   0.855  0.00  0.00    -0.720 N 
ATOM      2  H   LIG    1        1.900  -4.190   1.036  0.00  0.00    +0.400 HD
ATOM      3  C   LIG    1        1.054  -5.982   1.409  0.00  0.00    +0.520 C 
ATOM      4  O   LIG    1        0.095  -6.689   1.183  0.00  0.00    -0.520 OA
ENDROOT
BRANCH   3   5
ATOM      5  C   LIG    1        2.158  -6.474   2.310  0.00  0.00    +0.000 C 
ATOM      6  C   LIG    1        3.477  -6.508   1.532  0.00  0.00    +0.080 C 
ATOM      7  C   LIG    1        4.575  -7.085   2.427  0.00  0.00    +0.270 C 
ATOM      8  N   LIG    1        4.213  -8.445   2.841  0.00  0.00    -0.380 N 
ATOM      9  C   LIG    1        2.988  -8.411   3.649  0.00  0.00    +0.260 C 
ATOM     10  H   LIG    1        4.058  -9.014   2.022  0.00  0.00    +0.430 HD
ATOM     11  C   LIG    1        1.827  -7.886   2.800  0.00  0.00    +0.090 C 
BRANCH   8  12
ATOM     12  C   LIG    1        5.305  -9.022   3.636  0.00  0.00    +0.200 C 
ATOM     13  C   LIG    1        6.593  -9.061   2.794  0.00  0.00    +0.090 C 
ATOM     14  C   LIG    1        7.594  -9.967   3.557  0.00  0.00    -0.280 C 
ATOM     15  S   LIG    1        6.535 -11.358   4.106  0.00  0.00    +2.410 S 
ATOM     16  O   LIG    1        6.846 -11.683   5.454  0.00  0.00    -0.900 OA
ATOM     17  O   LIG    1        6.539 -12.373   3.112  0.00  0.00    -0.900 OA
ATOM     18  C   LIG    1        4.941 -10.461   4.050  0.00  0.00    -0.320 C 
ENDBRANCH   8  12
ENDBRANCH   3   5
BRANCH   1  20
ATOM     19  C   LIG    1        0.304  -4.777  -1.446  0.00  0.00    +0.050 C 
ATOM     20  C   LIG    1        0.060  -4.277  -0.020  0.00  0.00    +0.290 C 
BRANCH  20  21
ATOM     21  C   LIG    1        0.040  -2.771  -0.013  0.00  0.00    -0.110 A 
ATOM     22  C   LIG    1       -1.168  -2.097   0.002  0.00  0.00    +0.060 A 
ATOM     23  C   LIG    1       -1.190  -0.716   0.010  0.00  0.00    +0.040 A 
ATOM     24  C   LIG    1        0.002  -0.004   0.002  0.00  0.00    +0.160 A 
ATOM     25  C   LIG    1        1.213  -0.683  -0.019  0.00  0.00    +0.010 A 
ATOM     26  C   LIG    1        1.228  -2.064  -0.021  0.00  0.00    +0.040 A 
BRANCH  24  27
ATOM     27  N   LIG    1       -0.017   1.398   0.010  0.00  0.00    -0.340 N 
ATOM     28  C   LIG    1        1.050   2.220   0.004  0.00  0.00    +0.480 A 
ATOM     29  N   LIG    1        0.612   3.453   0.015  0.00  0.00    -0.530 NA
ATOM     30  C   LIG    1       -0.721   3.459   0.028  0.00  0.00    +0.450 A 
ATOM     31  N   LIG    1       -1.152   2.224   0.019  0.00  0.00    -0.310 NA
ENDBRANCH  24  27
ENDBRANCH  20  21
ENDBRANCH   1  20
TORSDOF 5
