REMARK  Name = ZINCrH000008uzlw.0
REMARK                            x       y       z     vdW  Elec       q    Type
REMARK                         _______ _______ _______ _____ _____    ______ ____
ROOT
ATOM      1  C   LIG    1        0.925  -1.256  -3.438  0.00  0.00    +0.140 A 
ATOM      2  C   LIG    1        0.173  -0.807  -2.361  0.00  0.00    +0.040 A 
ATOM      3  C   LIG    1        0.799  -0.467  -1.177  0.00  0.00    -0.100 A 
ATOM      4  C   LIG    1        2.173  -0.569  -1.066  0.00  0.00    +0.020 A 
ATOM      5  C   LIG    1        2.925  -1.020  -2.136  0.00  0.00    +0.030 A 
ATOM      6  C   LIG    1        2.305  -1.362  -3.322  0.00  0.00    -0.110 A 
ATOM      7  C   LIG    1        3.126  -1.848  -4.489  0.00  0.00    +0.080 C 
ENDROOT
BRANCH   1   9
ATOM      8  C   LIG    1       -0.926  -2.171  -4.619  0.00  0.00    +0.520 C 
ATOM      9  N   LIG    1        0.295  -1.601  -4.639  0.00  0.00    -0.670 N 
ATOM     10  H   LIG    1        0.736  -1.429  -5.485  0.00  0.00    +0.410 HD
ATOM     11  O   LIG    1       -1.514  -2.310  -3.567  0.00  0.00    -0.510 OA
BRANCH   8  12
ATOM     12  C   LIG    1       -1.562  -2.634  -5.904  0.00  0.00    +0.050 C 
BRANCH  12  13
ATOM     13  C   LIG    1       -2.936  -3.239  -5.604  0.00  0.00    +0.130 C 
BRANCH  13  14
ATOM     14  C   LIG    1       -3.581  -3.710  -6.909  0.00  0.00    +0.040 C 
ATOM     15  N   LIG    1       -2.715  -4.014  -8.050  0.00  0.00    -0.120 NA
ATOM     16  N   LIG    1       -3.332  -2.942  -8.132  0.00  0.00    -0.120 NA
BRANCH  14  17
ATOM     17  C   LIG    1       -4.907  -4.462  -6.774  0.00  0.00    +0.120 C 
BRANCH  17  18
ATOM     18  C   LIG    1       -5.412  -4.858  -8.163  0.00  0.00    +0.160 C 
BRANCH  18  20
ATOM     19  C   LIG    1       -7.705  -6.158  -7.930  0.00  0.00    +0.030 C 
ATOM     20  C   LIG    1       -6.688  -5.581  -8.033  0.00  0.00    -0.190 C 
ENDBRANCH  18  20
ENDBRANCH  17  18
ENDBRANCH  14  17
ENDBRANCH  13  14
ENDBRANCH  12  13
ENDBRANCH   8  12
ENDBRANCH   1   9
BRANCH   3  21
ATOM     21  C   LIG    1       -0.017   0.021  -0.008  0.00  0.00    +0.330 C 
BRANCH  21  22
ATOM     22  C   LIG    1       -0.044   1.528  -0.008  0.00  0.00    +0.100 A 
ATOM     23  C   LIG    1       -1.257   2.189  -0.006  0.00  0.00    -0.020 A 
ATOM     24  C   LIG    1       -1.271   3.575  -0.001  0.00  0.00    +0.070 A 
ATOM     25  C   LIG    1       -0.059   4.247  -0.010  0.00  0.00    -0.030 A 
ATOM     26  C   LIG    1        1.115   3.518  -0.018  0.00  0.00    +0.260 A 
ATOM     27  N   LIG    1        1.091   2.200  -0.017  0.00  0.00    -0.470 NA
ENDBRANCH  21  22
BRANCH  21  28
ATOM     28  O   LIG    1        0.570  -0.445   1.209  0.00  0.00    -0.540 OA
ATOM     29  H   LIG    1        1.478  -0.143   1.349  0.00  0.00    +0.380 HD
ENDBRANCH  21  28
ENDBRANCH   3  21
TORSDOF 10
