REMARK  Name = ZINCrD0000073nk4.0
REMARK                            x       y       z     vdW  Elec       q    Type
REMARK                         _______ _______ _______ _____ _____    ______ ____
ROOT
ATOM      1  C   LIG    1        3.951  -4.705   0.107  0.00  0.00    +0.510 C 
ATOM      2  N   LIG    1        4.184  -6.021  -0.069  0.00  0.00    -0.670 N 
ATOM      3  H   LIG    1        3.441  -6.643  -0.112  0.00  0.00    +0.410 HD
ATOM      4  O   LIG    1        4.880  -3.940   0.256  0.00  0.00    -0.490 OA
ENDROOT
BRANCH   2   5
ATOM      5  C   LIG    1        5.497  -6.489  -0.190  0.00  0.00    +0.140 A 
ATOM      6  C   LIG    1        5.835  -7.744   0.302  0.00  0.00    -0.010 A 
ATOM      7  C   LIG    1        7.131  -8.210   0.184  0.00  0.00    +0.030 A 
ATOM      8  C   LIG    1        8.096  -7.433  -0.423  0.00  0.00    +0.010 A 
ATOM      9  C   LIG    1        7.766  -6.172  -0.920  0.00  0.00    -0.000 A 
ATOM     10  C   LIG    1        6.460  -5.704  -0.806  0.00  0.00    +0.060 A 
BRANCH   9  11
ATOM     11  C   LIG    1        8.802  -5.335  -1.573  0.00  0.00    +0.110 A 
ATOM     12  C   LIG    1       10.057  -5.769  -1.803  0.00  0.00    -0.070 A 
ATOM     13  S   LIG    1       10.943  -4.467  -2.593  0.00  0.00    +0.130 S 
ATOM     14  C   LIG    1        9.556  -3.469  -2.532  0.00  0.00    +0.050 A 
ATOM     15  C   LIG    1        9.491  -2.056  -3.053  0.00  0.00    +0.180 C 
ATOM     16  N   LIG    1        8.576  -4.093  -1.978  0.00  0.00    -0.460 NA
ENDBRANCH   9  11
ENDBRANCH   2   5
BRANCH   1  17
ATOM     17  C   LIG    1        2.537  -4.185   0.118  0.00  0.00    +0.270 C 
BRANCH  17  18
ATOM     18  O   LIG    1        2.551  -2.747   0.322  0.00  0.00    -0.330 OA
BRANCH  18  19
ATOM     19  C   LIG    1        1.358  -2.122   0.358  0.00  0.00    +0.530 C 
ATOM     20  O   LIG    1        0.334  -2.761   0.222  0.00  0.00    -0.500 OA
BRANCH  19  24
ATOM     21  C   LIG    1        1.262   2.037   0.943  0.00  0.00    +0.360 A 
ATOM     22  C   LIG    1        0.053   1.365   0.794  0.00  0.00    -0.040 A 
ATOM     23  C   LIG    1        0.059  -0.001   0.600  0.00  0.00    +0.190 A 
ATOM     24  C   LIG    1        1.296  -0.663   0.561  0.00  0.00    -0.230 A 
ATOM     25  C   LIG    1        2.467   0.081   0.719  0.00  0.00    +0.390 A 
ATOM     26  N   LIG    1        2.414   1.384   0.902  0.00  0.00    -0.550 NA
BRANCH  21  28
ATOM     27  C   LIG    1        2.533   4.013   1.280  0.00  0.00    +0.260 C 
ATOM     28  O   LIG    1        1.262   3.378   1.133  0.00  0.00    -0.300 OA
ENDBRANCH  21  28
ENDBRANCH  19  24
ENDBRANCH  18  19
ENDBRANCH  17  18
ENDBRANCH   1  17
TORSDOF 7
