REMARK  Name = ZINCrD000000BoEu.0
REMARK                            x       y       z     vdW  Elec       q    Type
REMARK                         _______ _______ _______ _____ _____    ______ ____
ROOT
ATOM      1  O   LIG    1       -0.519   5.045   2.076  0.00  0.00    -0.580 OA
ATOM      2  C   LIG    1       -0.480   3.835   2.199  0.00  0.00    +0.710 C 
ATOM      3  N   LIG    1       -0.871   3.042   1.182  0.00  0.00    -0.640 N 
ATOM      4  C   LIG    1       -0.726   1.581   1.266  0.00  0.00    +0.300 C 
ATOM      5  C   LIG    1       -0.008   1.090   0.004  0.00  0.00    +0.230 C 
ATOM      6  N   LIG    1       -0.724   1.576  -1.184  0.00  0.00    -0.430 N 
ATOM      7  C   LIG    1       -0.709   3.044  -1.251  0.00  0.00    +0.210 C 
ATOM      8  C   LIG    1       -1.456   3.615  -0.040  0.00  0.00    +0.330 C 
ATOM      9  N   LIG    1       -0.044   3.288   3.351  0.00  0.00    -0.740 N 
ATOM     10  H   LIG    1        0.056   2.326   3.424  0.00  0.00    +0.400 HD
ENDROOT
BRANCH   6  11
ATOM     11  C   LIG    1       -0.201   1.021  -2.342  0.00  0.00    +0.230 A 
ATOM     12  N   LIG    1        0.790   0.178  -2.410  0.00  0.00    -0.300 NA
ATOM     13  N   LIG    1        1.135  -0.227  -3.554  0.00  0.00    -0.170 NA
ATOM     14  C   LIG    1        0.484   0.221  -4.577  0.00  0.00    -0.120 A 
ATOM     15  S   LIG    1       -0.762   1.322  -3.988  0.00  0.00    +0.180 S 
BRANCH  14  16
ATOM     16  C   LIG    1        0.741  -0.139  -6.018  0.00  0.00    +0.570 C 
ATOM     17  F   LIG    1        1.173   0.996  -6.713  0.00  0.00    -0.160 F 
ATOM     18  F   LIG    1       -0.440  -0.618  -6.596  0.00  0.00    -0.160 F 
ATOM     19  F   LIG    1        1.727  -1.129  -6.083  0.00  0.00    -0.150 F 
ENDBRANCH  14  16
ENDBRANCH   6  11
BRANCH   9  20
ATOM     20  C   LIG    1        0.278   4.147   4.493  0.00  0.00    +0.350 C 
BRANCH  20  21
ATOM     21  C   LIG    1        0.738   3.295   5.648  0.00  0.00    -0.140 A 
ATOM     22  C   LIG    1       -0.137   2.993   6.675  0.00  0.00    +0.090 A 
ATOM     23  C   LIG    1        0.283   2.206   7.732  0.00  0.00    +0.030 A 
ATOM     24  C   LIG    1        1.581   1.730   7.768  0.00  0.00    +0.000 A 
ATOM     25  C   LIG    1        2.459   2.037   6.744  0.00  0.00    +0.000 A 
ATOM     26 CL   LIG    1        2.109   0.749   9.099  0.00  0.00    -0.050 Cl
ATOM     27  C   LIG    1        2.038   2.819   5.683  0.00  0.00    +0.130 A 
ATOM     28  F   LIG    1        2.894   3.120   4.682  0.00  0.00    -0.120 F 
ENDBRANCH  20  21
ENDBRANCH   9  20
TORSDOF 4
