REMARK  Name = ZINCvU00000005Fn.0
REMARK                            x       y       z     vdW  Elec       q    Type
REMARK                         _______ _______ _______ _____ _____    ______ ____
ROOT
ATOM      1  C   LIG    1        4.830   4.231  -0.261  0.00  0.00    -0.200 A 
ATOM      2  C   LIG    1        6.049   3.547  -0.268  0.00  0.00    +0.100 A 
ATOM      3  C   LIG    1        7.229   4.247  -0.380  0.00  0.00    -0.080 A 
ATOM      4  C   LIG    1        7.209   5.636  -0.474  0.00  0.00    +0.250 A 
ATOM      5  C   LIG    1        5.997   6.321  -0.462  0.00  0.00    -0.070 A 
ATOM      6  C   LIG    1        4.814   5.626  -0.356  0.00  0.00    +0.140 A 
ENDROOT
BRANCH   1   9
ATOM      7  N   LIG    1        3.581   2.139  -0.055  0.00  0.00    -0.660 N 
ATOM      8  H   LIG    1        4.426   1.669   0.018  0.00  0.00    +0.410 HD
ATOM      9  C   LIG    1        3.563   3.484  -0.147  0.00  0.00    +0.570 C 
ATOM     10  O   LIG    1        2.504   4.081  -0.135  0.00  0.00    -0.520 OA
BRANCH   7  16
ATOM     11  C   LIG    1        2.312   0.161   0.526  0.00  0.00    +0.090 A 
ATOM     12  C   LIG    1        1.121  -0.545   0.513  0.00  0.00    -0.060 A 
ATOM     13  C   LIG    1       -0.001   0.002  -0.084  0.00  0.00    +0.030 A 
ATOM     14  C   LIG    1        0.064   1.253  -0.669  0.00  0.00    +0.000 A 
ATOM     15  C   LIG    1        1.249   1.964  -0.660  0.00  0.00    +0.050 A 
ATOM     16  C   LIG    1        2.378   1.422  -0.064  0.00  0.00    +0.120 A 
BRANCH  11  18
ATOM     17  C   LIG    1        3.275  -1.673   1.696  0.00  0.00    +0.250 C 
ATOM     18  O   LIG    1        3.416  -0.376   1.112  0.00  0.00    -0.320 OA
ENDBRANCH  11  18
ENDBRANCH   7  16
ENDBRANCH   1   9
BRANCH   4  19
ATOM     19  N   LIG    1        8.403   6.341  -0.581  0.00  0.00    -0.720 N 
ATOM     20  H   LIG    1        8.391   7.309  -0.647  0.00  0.00    +0.410 HD
BRANCH  19  21
ATOM     21  C   LIG    1        9.680   5.622  -0.594  0.00  0.00    +0.250 C 
ATOM     22  C   LIG    1        9.993   5.164  -2.019  0.00  0.00    +0.050 C 
BRANCH  21  23
ATOM     23  C   LIG    1       10.775   6.535  -0.107  0.00  0.00    +0.520 C 
ATOM     24  N   LIG    1       12.044   6.086  -0.034  0.00  0.00    -0.670 N 
ATOM     25  H   LIG    1       12.264   5.198  -0.358  0.00  0.00    +0.420 HD
ATOM     26  O   LIG    1       10.516   7.674   0.218  0.00  0.00    -0.500 OA
BRANCH  24  27
ATOM     27  C   LIG    1       13.044   6.900   0.511  0.00  0.00    +0.170 A 
ATOM     28  C   LIG    1       13.004   8.274   0.318  0.00  0.00    +0.060 A 
ATOM     29  C   LIG    1       13.992   9.075   0.860  0.00  0.00    -0.010 A 
ATOM     30  C   LIG    1       15.024   8.508   1.587  0.00  0.00    +0.040 A 
ATOM     31  C   LIG    1       15.069   7.139   1.777  0.00  0.00    +0.070 A 
ATOM     32 CL   LIG    1       13.940  10.794   0.625  0.00  0.00    -0.050 Cl
ATOM     33  C   LIG    1       14.082   6.333   1.241  0.00  0.00    -0.060 A 
ATOM     34 CL   LIG    1       14.140   4.614   1.479  0.00  0.00    -0.050 Cl
ENDBRANCH  24  27
ENDBRANCH  21  23
ENDBRANCH  19  21
ENDBRANCH   4  19
TORSDOF 7
