REMARK  Name = ZINCqH0000064OOt.0
REMARK                            x       y       z     vdW  Elec       q    Type
REMARK                         _______ _______ _______ _____ _____    ______ ____
ROOT
ATOM      1  C   LIG    1       -1.258   2.333   1.067  0.00  0.00    +0.600 C 
ATOM      2  N   LIG    1       -0.111   1.683   0.784  0.00  0.00    -0.600 N 
ATOM      3  C   LIG    1        1.133   2.433   0.569  0.00  0.00    +0.290 C 
ATOM      4  C   LIG    1        1.687   2.084  -0.819  0.00  0.00    +0.050 C 
ATOM      5  C   LIG    1        1.756   0.559  -0.952  0.00  0.00    -0.110 C 
ATOM      6  C   LIG    1        3.047  -0.133  -0.516  0.00  0.00    +0.050 C 
ATOM      7  C   LIG    1        0.436  -0.175  -0.701  0.00  0.00    +0.070 C 
ATOM      8  C   LIG    1        2.703  -0.019  -2.003  0.00  0.00    +0.100 C 
ATOM      9  C   LIG    1       -0.092   0.218   0.684  0.00  0.00    +0.270 C 
ATOM     10  O   LIG    1       -1.247   3.536   1.246  0.00  0.00    -0.520 OA
ENDROOT
BRANCH   1  14
ATOM     11  C   LIG    1       -3.948  -0.074   1.223  0.00  0.00    +0.020 A 
ATOM     12  C   LIG    1       -4.668   1.062   1.345  0.00  0.00    -0.070 A 
ATOM     13  C   LIG    1       -3.761   2.133   1.310  0.00  0.00    -0.080 A 
ATOM     14  C   LIG    1       -2.518   1.589   1.157  0.00  0.00    -0.090 A 
ATOM     15  C   LIG    1       -4.095   3.598   1.418  0.00  0.00    +0.130 C 
ATOM     16  O   LIG    1       -2.652   0.247   1.110  0.00  0.00    -0.150 OA
BRANCH  11  18
ATOM     17  C   LIG    1       -4.840  -1.881  -0.223  0.00  0.00    +0.040 C 
ATOM     18  C   LIG    1       -4.509  -1.473   1.214  0.00  0.00    +0.140 C 
ENDBRANCH  11  18
ENDBRANCH   1  14
BRANCH   8  19
ATOM     19  N   LIG    1        2.280  -1.244  -2.696  0.00  0.00    -0.500 NA
ATOM     20  C   LIG    1        3.418  -1.890  -3.364  0.00  0.00    +0.200 C 
BRANCH  19  21
ATOM     21  C   LIG    1        1.200  -0.961  -3.651  0.00  0.00    +0.300 C 
BRANCH  21  22
ATOM     22  C   LIG    1        0.531  -2.252  -4.048  0.00  0.00    +0.060 A 
ATOM     23  N   LIG    1       -0.474  -2.781  -3.438  0.00  0.00    -0.460 NA
ATOM     24  C   LIG    1       -0.942  -3.915  -3.921  0.00  0.00    +0.220 A 
ATOM     25  C   LIG    1       -0.288  -4.372  -4.993  0.00  0.00    -0.080 A 
ATOM     26  S   LIG    1        1.000  -3.230  -5.370  0.00  0.00    +0.110 S 
ENDBRANCH  21  22
ENDBRANCH  19  21
ENDBRANCH   8  19
TORSDOF 5
