REMARK  Name = ZINCrH00000No4zY.0
REMARK                            x       y       z     vdW  Elec       q    Type
REMARK                         _______ _______ _______ _____ _____    ______ ____
ROOT
ATOM      1  C   LIG    1       -3.623   1.707   0.140  0.00  0.00    -0.180 A 
ATOM      2  C   LIG    1       -4.817   0.982   0.117  0.00  0.00    +0.130 A 
ATOM      3  C   LIG    1       -4.785  -0.391   0.004  0.00  0.00    -0.020 A 
ATOM      4  C   LIG    1       -3.574  -1.058  -0.092  0.00  0.00    +0.110 A 
ATOM      5  C   LIG    1       -2.386  -0.355  -0.076  0.00  0.00    -0.040 A 
ATOM      6  C   LIG    1       -2.398   1.029   0.037  0.00  0.00    +0.220 A 
ENDROOT
BRANCH   1   7
ATOM      7  C   LIG    1       -3.649   3.175   0.266  0.00  0.00    +0.530 C 
ATOM      8  O   LIG    1       -2.617   3.811   0.180  0.00  0.00    -0.520 OA
BRANCH   7   9
ATOM      9  O   LIG    1       -4.818   3.812   0.477  0.00  0.00    -0.330 OA
BRANCH   9  10
ATOM     10  C   LIG    1       -4.768   5.259   0.591  0.00  0.00    +0.240 C 
BRANCH  10  12
ATOM     11  O   LIG    1       -7.098   5.029   0.886  0.00  0.00    -0.420 OA
ATOM     12  C   LIG    1       -6.159   5.792   0.823  0.00  0.00    +0.400 C 
BRANCH  12  13
ATOM     13  C   LIG    1       -6.376   7.240   0.973  0.00  0.00    -0.170 A 
ATOM     14  C   LIG    1       -5.294   8.124   0.907  0.00  0.00    +0.050 A 
ATOM     15  C   LIG    1       -5.506   9.479   1.044  0.00  0.00    +0.000 A 
ATOM     16  C   LIG    1       -6.785   9.965   1.256  0.00  0.00    +0.050 A 
ATOM     17  C   LIG    1       -7.860   9.097   1.329  0.00  0.00    +0.000 A 
ATOM     18  C   LIG    1       -7.665   7.739   1.189  0.00  0.00    +0.080 A 
ENDBRANCH  12  13
ENDBRANCH  10  12
ENDBRANCH   9  10
ENDBRANCH   7   9
ENDBRANCH   1   7
BRANCH   6  19
ATOM     19  N   LIG    1       -1.202   1.739   0.052  0.00  0.00    -0.630 N 
ATOM     20  H   LIG    1       -1.214   2.709   0.042  0.00  0.00    +0.430 HD
BRANCH  19  21
ATOM     21  C   LIG    1       -0.012   1.071   0.083  0.00  0.00    +0.420 C 
ATOM     22  C   LIG    1        1.153   1.763   0.092  0.00  0.00    -0.220 C 
BRANCH  22  23
ATOM     23  C   LIG    1        2.376   1.077   0.118  0.00  0.00    +0.380 C 
ATOM     24  O   LIG    1        2.391  -0.138   0.131  0.00  0.00    -0.430 OA
BRANCH  23  25
ATOM     25  C   LIG    1        3.672   1.847   0.128  0.00  0.00    +0.430 C 
ATOM     26  F   LIG    1        4.393   1.530   1.285  0.00  0.00    -0.170 F 
ATOM     27  F   LIG    1        3.399   3.219   0.110  0.00  0.00    -0.170 F 
ATOM     28  F   LIG    1        4.426   1.505  -0.999  0.00  0.00    -0.170 F 
ENDBRANCH  23  25
ENDBRANCH  22  23
ENDBRANCH  19  21
ENDBRANCH   6  19
TORSDOF 9
