REMARK  Name = ZINCkj000005iFnd.1
REMARK                            x       y       z     vdW  Elec       q    Type
REMARK                         _______ _______ _______ _____ _____    ______ ____
ROOT
ATOM      1  C   LIG    1       -0.395   3.259  -2.960  0.00  0.00    +0.580 C 
ATOM      2  N   LIG    1       -0.224   2.878  -1.679  0.00  0.00    -0.740 N 
ATOM      3  H   LIG    1        0.286   3.437  -1.071  0.00  0.00    +0.400 HD
ATOM      4  O   LIG    1       -1.034   2.559  -3.722  0.00  0.00    -0.510 OA
ENDROOT
BRANCH   1   8
ATOM      5  C   LIG    1        1.305   6.880  -4.247  0.00  0.00    +0.360 A 
ATOM      6  C   LIG    1        0.587   6.125  -5.169  0.00  0.00    -0.030 A 
ATOM      7  C   LIG    1        0.019   4.933  -4.769  0.00  0.00    +0.180 A 
ATOM      8  C   LIG    1        0.191   4.526  -3.438  0.00  0.00    -0.250 A 
ATOM      9  C   LIG    1        0.921   5.341  -2.571  0.00  0.00    +0.340 A 
ATOM     10  N   LIG    1        1.450   6.468  -2.996  0.00  0.00    -0.540 NA
BRANCH   5  12
ATOM     11  C   LIG    1        2.591   8.782  -3.643  0.00  0.00    +0.270 C 
ATOM     12  O   LIG    1        1.865   8.051  -4.634  0.00  0.00    -0.300 OA
ENDBRANCH   5  12
ENDBRANCH   1   8
BRANCH   2  13
ATOM     13  C   LIG    1       -0.806   1.620  -1.204  0.00  0.00    +0.270 C 
ATOM     14  C   LIG    1       -2.235   1.858  -0.674  0.00  0.00    +0.070 C 
ATOM     15  C   LIG    1       -2.185   1.447   0.813  0.00  0.00    +0.280 C 
ATOM     16  N   LIG    1       -0.753   1.587   1.194  0.00  0.00    -0.400 N 
ATOM     17  H   LIG    1       -0.528   2.555   1.368  0.00  0.00    +0.430 HD
ATOM     18  C   LIG    1       -0.013   1.086   0.008  0.00  0.00    +0.280 C 
BRANCH  16  19
ATOM     19  C   LIG    1       -0.450   0.767   2.374  0.00  0.00    +0.290 C 
BRANCH  19  20
ATOM     20  C   LIG    1       -1.124   1.376   3.606  0.00  0.00    -0.090 C 
ATOM     21  C   LIG    1       -0.217   1.886   4.728  0.00  0.00    +0.050 C 
ATOM     22  C   LIG    1       -1.024   0.601   4.921  0.00  0.00    +0.070 C 
ENDBRANCH  19  20
ENDBRANCH  16  19
ENDBRANCH   2  13
TORSDOF 5
