REMARK  Name = ZINCkj000005iFnd.0
REMARK                            x       y       z     vdW  Elec       q    Type
REMARK                         _______ _______ _______ _____ _____    ______ ____
ROOT
ATOM      1  C   LIG    1        1.011  -2.490  -1.788  0.00  0.00    +0.580 C 
ATOM      2  N   LIG    1        1.168  -1.152  -1.847  0.00  0.00    -0.730 N 
ATOM      3  H   LIG    1        1.151  -0.699  -2.704  0.00  0.00    +0.410 HD
ATOM      4  O   LIG    1        1.032  -3.058  -0.713  0.00  0.00    -0.520 OA
ENDROOT
BRANCH   1   8
ATOM      5  C   LIG    1        0.454  -4.627  -5.363  0.00  0.00    +0.360 A 
ATOM      6  C   LIG    1        0.467  -5.337  -4.167  0.00  0.00    -0.030 A 
ATOM      7  C   LIG    1        0.649  -4.657  -2.980  0.00  0.00    +0.180 A 
ATOM      8  C   LIG    1        0.813  -3.265  -3.029  0.00  0.00    -0.250 A 
ATOM      9  C   LIG    1        0.782  -2.623  -4.268  0.00  0.00    +0.340 A 
ATOM     10  N   LIG    1        0.611  -3.312  -5.376  0.00  0.00    -0.540 NA
BRANCH   5  12
ATOM     11  C   LIG    1        0.271  -4.508  -7.727  0.00  0.00    +0.270 C 
ATOM     12  O   LIG    1        0.276  -5.290  -6.531  0.00  0.00    -0.300 OA
ENDBRANCH   5  12
ENDBRANCH   1   8
BRANCH   2  13
ATOM     13  C   LIG    1        1.364  -0.383  -0.615  0.00  0.00    +0.260 C 
ATOM     14  C   LIG    1        0.002  -0.004   0.002  0.00  0.00    +0.070 C 
ATOM     15  C   LIG    1       -0.019   1.540   0.011  0.00  0.00    +0.270 C 
ATOM     16  N   LIG    1        1.413   1.933  -0.001  0.00  0.00    -0.390 N 
ATOM     17  H   LIG    1        1.810   1.851   0.923  0.00  0.00    +0.430 HD
ATOM     18  C   LIG    1        2.051   0.963  -0.928  0.00  0.00    +0.280 C 
BRANCH  16  19
ATOM     19  C   LIG    1        1.565   3.304  -0.507  0.00  0.00    +0.290 C 
BRANCH  19  20
ATOM     20  C   LIG    1        0.928   4.285   0.478  0.00  0.00    -0.090 C 
ATOM     21  C   LIG    1       -0.274   5.097  -0.010  0.00  0.00    +0.050 C 
ATOM     22  C   LIG    1        1.082   5.779   0.187  0.00  0.00    +0.070 C 
ENDBRANCH  19  20
ENDBRANCH  16  19
ENDBRANCH   2  13
TORSDOF 5
