REMARK  Name = ZINCrH00000No4D8.0
REMARK                            x       y       z     vdW  Elec       q    Type
REMARK                         _______ _______ _______ _____ _____    ______ ____
ROOT
ATOM      1  C   LIG    1       -1.297   1.796   0.006  0.00  0.00    -0.210 A 
ATOM      2  C   LIG    1       -2.555   1.239  -0.089  0.00  0.00    +0.290 A 
ATOM      3  N   LIG    1       -3.454   2.239  -0.022  0.00  0.00    -0.310 N 
ATOM      4  N   LIG    1       -2.788   3.461   0.108  0.00  0.00    -0.270 NA
ATOM      5  C   LIG    1       -1.492   3.243   0.129  0.00  0.00    +0.170 A 
ENDROOT
BRANCH   5   6
ATOM      6  C   LIG    1       -0.429   4.269   0.254  0.00  0.00    -0.010 A 
ATOM      7  C   LIG    1       -0.555   5.298   1.186  0.00  0.00    +0.060 A 
ATOM      8  C   LIG    1        0.440   6.247   1.302  0.00  0.00    +0.020 A 
ATOM      9  C   LIG    1        1.558   6.184   0.487  0.00  0.00    -0.020 A 
ATOM     10  C   LIG    1        1.686   5.167  -0.443  0.00  0.00    +0.020 A 
ATOM     11 CL   LIG    1        2.803   7.385   0.633  0.00  0.00    -0.070 Cl
ATOM     12  C   LIG    1        0.699   4.210  -0.563  0.00  0.00    +0.100 A 
ENDBRANCH   5   6
BRANCH   3  13
ATOM     13  C   LIG    1       -4.845   2.079  -0.080  0.00  0.00    +0.150 A 
ATOM     14  C   LIG    1       -5.395   0.811  -0.216  0.00  0.00    -0.010 A 
ATOM     15  C   LIG    1       -6.766   0.657  -0.269  0.00  0.00    +0.050 A 
ATOM     16  C   LIG    1       -7.591   1.764  -0.196  0.00  0.00    +0.010 A 
ATOM     17  C   LIG    1       -7.047   3.029  -0.066  0.00  0.00    +0.040 A 
ATOM     18  C   LIG    1       -5.676   3.189  -0.008  0.00  0.00    +0.030 A 
ENDBRANCH   3  13
BRANCH   1  20
ATOM     19  N   LIG    1        1.093   1.722   0.188  0.00  0.00    -0.510 NA
ATOM     20  C   LIG    1       -0.012   1.078  -0.018  0.00  0.00    +0.340 C 
BRANCH  19  25
ATOM     21  O   LIG    1        5.416   2.409   1.503  0.00  0.00    -0.930 OA
ATOM     22  S   LIG    1        4.863   1.151   1.143  0.00  0.00    +2.390 S 
ATOM     23  C   LIG    1        4.704   1.056  -0.680  0.00  0.00    -0.310 C 
ATOM     24  C   LIG    1        3.281   1.622  -0.922  0.00  0.00    +0.090 C 
ATOM     25  C   LIG    1        2.373   1.009   0.158  0.00  0.00    +0.150 C 
ATOM     26  O   LIG    1        5.452  -0.047   1.630  0.00  0.00    -0.940 OA
ATOM     27  C   LIG    1        3.074   1.144   1.524  0.00  0.00    -0.300 C 
ENDBRANCH  19  25
ENDBRANCH   1  20
TORSDOF 4
