REMARK  Name = ZINCrH00000No4Qb.0
REMARK                            x       y       z     vdW  Elec       q    Type
REMARK                         _______ _______ _______ _____ _____    ______ ____
ROOT
ATOM      1  C   LIG    1       -1.011   1.529  -0.108  0.00  0.00    +0.100 A 
ATOM      2  C   LIG    1       -0.893   2.882  -0.385  0.00  0.00    +0.060 A 
ATOM      3  C   LIG    1       -2.019   3.625  -0.691  0.00  0.00    +0.010 A 
ATOM      4  C   LIG    1       -3.263   3.023  -0.722  0.00  0.00    +0.030 A 
ATOM      5  C   LIG    1       -3.389   1.674  -0.447  0.00  0.00    -0.010 A 
ATOM      6  C   LIG    1       -2.265   0.919  -0.145  0.00  0.00    +0.150 A 
ENDROOT
BRANCH   1   8
ATOM      7  C   LIG    1        1.152   1.343   0.868  0.00  0.00    +0.590 C 
ATOM      8  N   LIG    1        0.128   0.774   0.202  0.00  0.00    -0.650 N 
ATOM      9  H   LIG    1        0.180  -0.156  -0.066  0.00  0.00    +0.420 HD
ATOM     10  O   LIG    1        1.116   2.526   1.143  0.00  0.00    -0.500 OA
BRANCH   7  15
ATOM     11  O   LIG    1        5.341  -1.762   2.241  0.00  0.00    -0.510 OA
ATOM     12  C   LIG    1        4.415  -1.022   1.951  0.00  0.00    +0.480 A 
ATOM     13  C   LIG    1        4.455   0.343   2.310  0.00  0.00    -0.010 A 
ATOM     14  C   LIG    1        3.396   1.127   1.962  0.00  0.00    +0.140 A 
ATOM     15  C   LIG    1        2.321   0.527   1.263  0.00  0.00    +0.020 A 
ATOM     16  N   LIG    1        2.355  -0.753   0.968  0.00  0.00    -0.180 NA
ATOM     17  N   LIG    1        3.348  -1.503   1.285  0.00  0.00    -0.430 N 
ATOM     18  H   LIG    1        3.328  -2.441   1.041  0.00  0.00    +0.450 HD
ENDBRANCH   7  15
ENDBRANCH   1   8
BRANCH   6  19
ATOM     19  N   LIG    1       -2.390  -0.447   0.128  0.00  0.00    -0.680 N 
ATOM     20  H   LIG    1       -1.769  -0.879   0.734  0.00  0.00    +0.410 HD
BRANCH  19  21
ATOM     21  C   LIG    1       -3.409  -1.189  -0.474  0.00  0.00    +0.240 A 
ATOM     22  C   LIG    1       -4.093  -0.673  -1.568  0.00  0.00    -0.040 A 
ATOM     23  C   LIG    1       -5.096  -1.412  -2.164  0.00  0.00    +0.090 A 
ATOM     24  C   LIG    1       -5.428  -2.659  -1.667  0.00  0.00    -0.020 A 
ATOM     25  C   LIG    1       -4.752  -3.173  -0.575  0.00  0.00    +0.110 A 
ATOM     26  C   LIG    1       -3.745  -2.442   0.023  0.00  0.00    -0.250 A 
BRANCH  26  27
ATOM     27  C   LIG    1       -3.009  -3.004   1.212  0.00  0.00    +0.510 C 
ATOM     28  F   LIG    1       -3.176  -2.151   2.308  0.00  0.00    -0.180 F 
ATOM     29  F   LIG    1       -1.648  -3.114   0.909  0.00  0.00    -0.180 F 
ATOM     30  F   LIG    1       -3.522  -4.268   1.523  0.00  0.00    -0.170 F 
ENDBRANCH  26  27
ENDBRANCH  19  21
ENDBRANCH   6  19
TORSDOF 5
