REMARK  Name = ZINCtj0000004r2v.1
REMARK                            x       y       z     vdW  Elec       q    Type
REMARK                         _______ _______ _______ _____ _____    ______ ____
ROOT
ATOM      1  O   LIG    1        1.060  -0.596  -0.011  0.00  0.00    -0.520 OA
ATOM      2  C   LIG    1        0.002  -0.004   0.002  0.00  0.00    +0.510 C 
ATOM      3  N   LIG    1       -1.156  -0.694   0.009  0.00  0.00    -0.580 N 
ATOM      4  C   LIG    1       -2.446   0.010   0.032  0.00  0.00    +0.260 C 
ATOM      5  C   LIG    1       -3.285  -0.476  -1.162  0.00  0.00    +0.300 C 
ATOM      6  N   LIG    1       -3.280  -1.946  -1.170  0.00  0.00    -1.000 NA
ATOM      7  C   LIG    1       -1.990  -2.650  -1.187  0.00  0.00    +0.300 C 
ATOM      8  C   LIG    1       -1.151  -2.163   0.001  0.00  0.00    +0.300 C 
ENDROOT
BRANCH   2   9
ATOM      9  C   LIG    1       -0.018   1.503   0.010  0.00  0.00    +0.160 C 
ATOM     10  C   LIG    1       -0.708   2.025  -1.264  0.00  0.00    +0.090 C 
ATOM     11  C   LIG    1        0.356   2.895  -1.971  0.00  0.00    +0.090 C 
ATOM     12  C   LIG    1        1.324   3.264  -0.819  0.00  0.00    +0.270 C 
ATOM     13  N   LIG    1        1.365   2.026  -0.000  0.00  0.00    -0.380 N 
ATOM     14  H   LIG    1        1.989   1.351  -0.418  0.00  0.00    +0.430 HD
BRANCH  13  15
ATOM     15  C   LIG    1        1.799   2.337   1.368  0.00  0.00    +0.170 C 
ATOM     16  C   LIG    1        3.236   2.867   1.342  0.00  0.00    +0.020 C 
ATOM     17  C   LIG    1        3.707   3.115   2.777  0.00  0.00    +0.250 C 
ATOM     18  O   LIG    1        3.607   1.901   3.526  0.00  0.00    -0.370 OA
ATOM     19  C   LIG    1        2.278   1.385   3.625  0.00  0.00    +0.230 C 
ATOM     20  C   LIG    1        1.750   1.068   2.224  0.00  0.00    +0.020 C 
ENDBRANCH  13  15
ENDBRANCH   2   9
BRANCH   6  21
ATOM     21  S   LIG    1       -4.703  -2.793  -1.161  0.00  0.00    +2.600 S 
ATOM     22  O   LIG    1       -4.377  -4.032  -1.776  0.00  0.00    -0.940 OA
ATOM     23  O   LIG    1       -5.643  -1.906  -1.752  0.00  0.00    -0.940 OA
BRANCH  21  24
ATOM     24  C   LIG    1       -5.075  -3.035   0.598  0.00  0.00    -0.290 C 
BRANCH  24  25
ATOM     25  C   LIG    1       -6.363  -3.804   0.738  0.00  0.00    -0.110 A 
ATOM     26  C   LIG    1       -7.566  -3.128   0.820  0.00  0.00    +0.030 A 
ATOM     27  C   LIG    1       -8.748  -3.833   0.943  0.00  0.00    +0.010 A 
ATOM     28  C   LIG    1       -8.727  -5.214   0.996  0.00  0.00    +0.030 A 
ATOM     29  C   LIG    1       -7.523  -5.890   0.919  0.00  0.00    +0.020 A 
ATOM     30  C   LIG    1       -6.341  -5.185   0.790  0.00  0.00    +0.030 A 
ENDBRANCH  24  25
ENDBRANCH  21  24
ENDBRANCH   6  21
TORSDOF 5
