REMARK  Name = ZINCtj0000004r2v.0
REMARK                            x       y       z     vdW  Elec       q    Type
REMARK                         _______ _______ _______ _____ _____    ______ ____
ROOT
ATOM      1  O   LIG    1       -0.481  -0.459   1.488  0.00  0.00    -0.500 OA
ATOM      2  C   LIG    1        0.069   0.051   0.535  0.00  0.00    +0.510 C 
ATOM      3  N   LIG    1        0.743  -0.716  -0.345  0.00  0.00    -0.590 N 
ATOM      4  C   LIG    1        1.512  -0.103  -1.437  0.00  0.00    +0.270 C 
ATOM      5  C   LIG    1        2.960  -0.615  -1.358  0.00  0.00    +0.310 C 
ATOM      6  N   LIG    1        2.933  -2.080  -1.246  0.00  0.00    -1.000 NA
ATOM      7  C   LIG    1        2.160  -2.693  -0.157  0.00  0.00    +0.310 C 
ATOM      8  C   LIG    1        0.716  -2.182  -0.233  0.00  0.00    +0.300 C 
ENDROOT
BRANCH   2   9
ATOM      9  C   LIG    1       -0.001   1.543   0.334  0.00  0.00    +0.150 C 
ATOM     10  C   LIG    1        0.573   2.266   1.571  0.00  0.00    +0.100 C 
ATOM     11  C   LIG    1       -0.368   3.490   1.727  0.00  0.00    +0.080 C 
ATOM     12  C   LIG    1       -1.732   2.893   1.297  0.00  0.00    +0.270 C 
ATOM     13  N   LIG    1       -1.406   1.965   0.194  0.00  0.00    -0.370 N 
ATOM     14  H   LIG    1       -1.534   2.432  -0.692  0.00  0.00    +0.430 HD
BRANCH  13  15
ATOM     15  C   LIG    1       -2.284   0.789   0.261  0.00  0.00    +0.160 C 
ATOM     16  C   LIG    1       -2.076  -0.078  -0.984  0.00  0.00    -0.000 C 
ATOM     17  C   LIG    1       -3.051  -1.258  -0.943  0.00  0.00    +0.250 C 
ATOM     18  O   LIG    1       -4.390  -0.766  -0.863  0.00  0.00    -0.370 OA
ATOM     19  C   LIG    1       -4.656   0.013   0.305  0.00  0.00    +0.250 C 
ATOM     20  C   LIG    1       -3.746   1.244   0.315  0.00  0.00    +0.020 C 
ENDBRANCH  13  15
ENDBRANCH   2   9
BRANCH   6  21
ATOM     21  S   LIG    1        3.760  -3.023  -2.328  0.00  0.00    +2.600 S 
ATOM     22  O   LIG    1        4.032  -4.221  -1.612  0.00  0.00    -0.930 OA
ATOM     23  O   LIG    1        4.814  -2.188  -2.786  0.00  0.00    -0.940 OA
BRANCH  21  24
ATOM     24  C   LIG    1        2.569  -3.334  -3.660  0.00  0.00    -0.290 C 
BRANCH  24  25
ATOM     25  C   LIG    1        3.212  -4.193  -4.718  0.00  0.00    -0.110 A 
ATOM     26  C   LIG    1        3.880  -3.603  -5.775  0.00  0.00    +0.030 A 
ATOM     27  C   LIG    1        4.474  -4.391  -6.743  0.00  0.00    +0.010 A 
ATOM     28  C   LIG    1        4.391  -5.769  -6.660  0.00  0.00    +0.030 A 
ATOM     29  C   LIG    1        3.717  -6.358  -5.606  0.00  0.00    +0.020 A 
ATOM     30  C   LIG    1        3.128  -5.570  -4.636  0.00  0.00    +0.030 A 
ENDBRANCH  24  25
ENDBRANCH  21  24
ENDBRANCH   6  21
TORSDOF 5
