REMARK  Name = ZINCvU0000000HQU.0
REMARK                            x       y       z     vdW  Elec       q    Type
REMARK                         _______ _______ _______ _____ _____    ______ ____
ROOT
ATOM      1  C   LIG    1        5.249   4.006  -0.571  0.00  0.00    -0.000 A 
ATOM      2  C   LIG    1        6.455   3.314  -0.333  0.00  0.00    -0.200 A 
ATOM      3  C   LIG    1        7.845   3.730  -0.159  0.00  0.00    +0.160 A 
ATOM      4  N   LIG    1        8.549   2.656   0.035  0.00  0.00    -0.270 NA
ATOM      5  O   LIG    1        7.708   1.521   0.002  0.00  0.00    -0.080 OA
ATOM      6  C   LIG    1        8.366   5.143  -0.198  0.00  0.00    +0.220 C 
ATOM      7  C   LIG    1        6.436   1.912  -0.221  0.00  0.00    +0.310 A 
ATOM      8  N   LIG    1        5.296   1.251  -0.332  0.00  0.00    -0.450 NA
ATOM      9  C   LIG    1        4.147   1.869  -0.560  0.00  0.00    +0.250 A 
ATOM     10  C   LIG    1        4.080   3.259  -0.684  0.00  0.00    +0.000 A 
ENDROOT
BRANCH   9  11
ATOM     11  C   LIG    1        2.905   1.070  -0.680  0.00  0.00    -0.110 A 
ATOM     12  C   LIG    1        1.670   1.707  -0.792  0.00  0.00    +0.080 A 
ATOM     13  C   LIG    1        0.517   0.958  -0.904  0.00  0.00    +0.010 A 
ATOM     14  C   LIG    1        0.583  -0.424  -0.905  0.00  0.00    +0.080 A 
ATOM     15  C   LIG    1        1.803  -1.065  -0.795  0.00  0.00    -0.020 A 
ATOM     16  C   LIG    1        2.966  -0.326  -0.683  0.00  0.00    +0.150 A 
ATOM     17  F   LIG    1        4.159  -0.952  -0.574  0.00  0.00    -0.110 F 
ENDBRANCH   9  11
BRANCH   1  20
ATOM     18  N   LIG    1        4.053   6.129  -0.818  0.00  0.00    -0.650 N 
ATOM     19  H   LIG    1        3.224   5.627  -0.866  0.00  0.00    +0.420 HD
ATOM     20  C   LIG    1        5.228   5.480  -0.696  0.00  0.00    +0.560 C 
ATOM     21  O   LIG    1        6.270   6.106  -0.688  0.00  0.00    -0.500 OA
BRANCH  18  24
ATOM     22  C   LIG    1        5.049   9.601  -1.529  0.00  0.00    +0.130 A 
ATOM     23  C   LIG    1        5.076   8.217  -1.472  0.00  0.00    +0.000 A 
ATOM     24  C   LIG    1        4.029   7.528  -0.877  0.00  0.00    +0.160 A 
ATOM     25  C   LIG    1        2.950   8.230  -0.343  0.00  0.00    +0.080 A 
ATOM     26  C   LIG    1        2.931   9.614  -0.398  0.00  0.00    +0.010 A 
ATOM     27  C   LIG    1        3.976  10.299  -0.991  0.00  0.00    -0.040 A 
ATOM     28 CL   LIG    1        3.945  12.033  -1.063  0.00  0.00    -0.050 Cl
BRANCH  22  30
ATOM     29  C   LIG    1        7.147   9.497  -2.644  0.00  0.00    +0.240 C 
ATOM     30  O   LIG    1        6.075  10.278  -2.112  0.00  0.00    -0.300 OA
ENDBRANCH  22  30
BRANCH  25  31
ATOM     31  O   LIG    1        1.920   7.557   0.236  0.00  0.00    -0.320 OA
ATOM     32  C   LIG    1        0.847   8.341   0.763  0.00  0.00    +0.260 C 
ENDBRANCH  25  31
ENDBRANCH  18  24
ENDBRANCH   1  20
TORSDOF 5
