REMARK  Name = ZINCrD000000AqUV.0
REMARK                            x       y       z     vdW  Elec       q    Type
REMARK                         _______ _______ _______ _____ _____    ______ ____
ROOT
ATOM      1  O   LIG    1        1.213   6.323  -0.599  0.00  0.00    -0.510 OA
ATOM      2  C   LIG    1        1.665   6.240   0.523  0.00  0.00    +0.520 C 
ATOM      3  N   LIG    1        2.300   5.118   0.913  0.00  0.00    -0.720 N 
ATOM      4  H   LIG    1        2.662   5.052   1.811  0.00  0.00    +0.400 HD
ENDROOT
BRANCH   3   5
ATOM      5  C   LIG    1        2.445   3.997  -0.018  0.00  0.00    +0.290 C 
ATOM      6  C   LIG    1        3.661   3.163   0.382  0.00  0.00    +0.020 C 
ATOM      7  C   LIG    1        3.670   1.884  -0.464  0.00  0.00    +0.030 C 
ATOM      8  C   LIG    1        2.511   0.999  -0.012  0.00  0.00    +0.080 C 
ATOM      9  C   LIG    1        1.224   1.782   0.011  0.00  0.00    -0.070 A 
ATOM     10  C   LIG    1        0.033   1.068   0.034  0.00  0.00    -0.010 A 
ATOM     11  C   LIG    1       -1.179   1.727   0.055  0.00  0.00    +0.010 A 
ATOM     12  C   LIG    1       -1.209   3.109   0.067  0.00  0.00    -0.010 A 
ATOM     13  C   LIG    1       -0.027   3.820   0.045  0.00  0.00    +0.020 A 
ATOM     14  C   LIG    1        1.194   3.159   0.014  0.00  0.00    -0.100 A 
ENDBRANCH   3   5
BRANCH   2  15
ATOM     15  C   LIG    1        1.515   7.394   1.482  0.00  0.00    +0.230 C 
BRANCH  15  16
ATOM     16  O   LIG    1        0.811   8.459   0.840  0.00  0.00    -0.290 OA
BRANCH  16  17
ATOM     17  C   LIG    1        0.591   9.583   1.572  0.00  0.00    +0.100 A 
ATOM     18  C   LIG    1        1.039   9.655   2.883  0.00  0.00    -0.050 A 
ATOM     19  C   LIG    1        0.820  10.798   3.626  0.00  0.00    +0.050 A 
ATOM     20  C   LIG    1        0.142  11.872   3.064  0.00  0.00    +0.130 A 
ATOM     21  C   LIG    1       -0.310  11.797   1.753  0.00  0.00    +0.010 A 
ATOM     22  C   LIG    1       -0.086  10.655   1.010  0.00  0.00    +0.020 A 
BRANCH  20  23
ATOM     23  N   LIG    1       -0.085  13.030   3.819  0.00  0.00    -0.560 N 
ATOM     24  C   LIG    1       -0.679  14.262   3.286  0.00  0.00    +0.260 C 
ATOM     25  C   LIG    1       -0.334  15.363   4.314  0.00  0.00    +0.060 C 
ATOM     26  C   LIG    1       -0.155  14.540   5.610  0.00  0.00    +0.070 C 
ATOM     27  C   LIG    1        0.209  13.154   5.125  0.00  0.00    +0.510 C 
ATOM     28  O   LIG    1        0.697  12.283   5.813  0.00  0.00    -0.510 OA
ENDBRANCH  20  23
ENDBRANCH  16  17
ENDBRANCH  15  16
ENDBRANCH   2  15
TORSDOF 5
