REMARK  Name = ZINCbw0000000Hd6.0
REMARK                            x       y       z     vdW  Elec       q    Type
REMARK                         _______ _______ _______ _____ _____    ______ ____
ROOT
ATOM      1  C   LIG    1       -1.220   1.753   0.022  0.00  0.00    -0.020 A 
ATOM      2  C   LIG    1       -0.019   1.076   0.012  0.00  0.00    +0.000 A 
ATOM      3  C   LIG    1        1.174   1.777  -0.001  0.00  0.00    +0.050 A 
ATOM      4  C   LIG    1        1.173   3.160   0.003  0.00  0.00    -0.010 A 
ATOM      5  C   LIG    1       -0.020   3.852   0.020  0.00  0.00    +0.070 A 
ATOM      6  C   LIG    1       -1.230   3.151   0.032  0.00  0.00    -0.190 A 
ENDROOT
BRANCH   1   8
ATOM      7  C   LIG    1       -2.546   0.018  -1.153  0.00  0.00    +0.030 C 
ATOM      8  C   LIG    1       -2.519   0.988   0.030  0.00  0.00    +0.010 C 
ATOM      9  C   LIG    1       -2.639   0.201   1.337  0.00  0.00    +0.030 C 
ENDBRANCH   1   8
BRANCH   6  10
ATOM     10  C   LIG    1       -2.508   3.882   0.049  0.00  0.00    +0.490 C 
ATOM     11  O   LIG    1       -2.514   5.090   0.148  0.00  0.00    -0.460 OA
ENDBRANCH   6  10
TORSDOF 2
