REMARK  Name = ZINCAx0000000aKZ.0
REMARK                            x       y       z     vdW  Elec       q    Type
REMARK                         _______ _______ _______ _____ _____    ______ ____
ROOT
ATOM      1  N   LIG    1       -0.745   4.068  -0.452  0.00  0.00    -0.560 N 
ATOM      2  C   LIG    1       -0.571   2.742  -0.415  0.00  0.00    +0.710 C 
ATOM      3  N   LIG    1       -0.978   2.138  -1.547  0.00  0.00    -0.710 N 
ATOM      4  H   LIG    1       -0.946   1.188  -1.741  0.00  0.00    +0.440 HD
ATOM      5  C   LIG    1       -1.481   3.201  -2.434  0.00  0.00    +0.170 C 
ATOM      6  C   LIG    1       -0.659   3.260  -3.723  0.00  0.00    +0.100 C 
ATOM      7  O   LIG    1       -0.098   2.148   0.534  0.00  0.00    -0.530 OA
ATOM      8  C   LIG    1       -1.287   4.466  -1.620  0.00  0.00    +0.540 C 
ATOM      9  O   LIG    1       -1.562   5.599  -1.951  0.00  0.00    -0.450 OA
ENDROOT
BRANCH   5  10
ATOM     10  C   LIG    1       -2.939   2.986  -2.746  0.00  0.00    -0.090 A 
ATOM     11  C   LIG    1       -3.774   4.074  -2.919  0.00  0.00    +0.050 A 
ATOM     12  C   LIG    1       -5.114   3.883  -3.212  0.00  0.00    +0.030 A 
ATOM     13  C   LIG    1       -5.617   2.598  -3.319  0.00  0.00    +0.080 A 
ATOM     14  O   LIG    1       -6.936   2.397  -3.601  0.00  0.00    -0.320 OA
ATOM     15  C   LIG    1       -7.222   1.832  -4.883  0.00  0.00    +0.230 C 
ATOM     16  C   LIG    1       -7.114   0.316  -4.841  0.00  0.00    -0.010 C 
ATOM     17  C   LIG    1       -5.697  -0.156  -4.554  0.00  0.00    +0.230 C 
ATOM     18  O   LIG    1       -5.285   0.243  -3.245  0.00  0.00    -0.320 OA
ATOM     19  C   LIG    1       -4.779   1.506  -3.139  0.00  0.00    +0.070 A 
ATOM     20  C   LIG    1       -3.439   1.700  -2.852  0.00  0.00    +0.050 A 
ENDBRANCH   5  10
BRANCH   1  21
ATOM     21  C   LIG    1       -0.391   4.975   0.642  0.00  0.00    +0.370 C 
BRANCH  21  24
ATOM     22  N   LIG    1        1.577   6.290   1.361  0.00  0.00    -0.670 N 
ATOM     23  H   LIG    1        1.035   6.654   2.078  0.00  0.00    +0.420 HD
ATOM     24  C   LIG    1        1.032   5.442   0.467  0.00  0.00    +0.500 C 
ATOM     25  O   LIG    1        1.685   5.055  -0.479  0.00  0.00    -0.500 OA
BRANCH  22  29
ATOM     26  C   LIG    1        5.595   7.344   1.049  0.00  0.00    -0.150 A 
ATOM     27  C   LIG    1        4.662   8.273   1.518  0.00  0.00    +0.070 A 
ATOM     28  C   LIG    1        3.335   7.921   1.620  0.00  0.00    -0.020 A 
ATOM     29  C   LIG    1        2.922   6.643   1.256  0.00  0.00    +0.170 A 
ATOM     30  C   LIG    1        3.850   5.714   0.794  0.00  0.00    +0.010 A 
ATOM     31  C   LIG    1        5.178   6.061   0.685  0.00  0.00    +0.100 A 
BRANCH  26  33
ATOM     32  N   LIG    1        7.361   8.953   0.520  0.00  0.00    -0.610 N 
ATOM     33  C   LIG    1        7.019   7.718   0.938  0.00  0.00    +0.560 C 
ATOM     34  O   LIG    1        7.883   6.912   1.223  0.00  0.00    -0.530 OA
BRANCH  32  36
ATOM     35  C   LIG    1        9.352   8.999  -0.900  0.00  0.00    +0.020 C 
ATOM     36  C   LIG    1        8.771   9.346   0.473  0.00  0.00    +0.270 C 
ENDBRANCH  32  36
BRANCH  32  37
ATOM     37  C   LIG    1        6.322   9.902   0.113  0.00  0.00    +0.260 C 
ATOM     38  C   LIG    1        6.109  10.933   1.223  0.00  0.00    +0.020 C 
ENDBRANCH  32  37
ENDBRANCH  26  33
ENDBRANCH  22  29
ENDBRANCH  21  24
ENDBRANCH   1  21
TORSDOF 7
