REMARK  Name = ZINCrg000000olht.0
REMARK                            x       y       z     vdW  Elec       q    Type
REMARK                         _______ _______ _______ _____ _____    ______ ____
ROOT
ATOM      1  C   LIG    1        6.093  -0.686  -0.278  0.00  0.00    +0.260 C 
ATOM      2  C   LIG    1        6.065  -1.558  -1.534  0.00  0.00    +0.100 C 
ENDROOT
BRANCH   1   3
ATOM      3  N   LIG    1        7.188   0.283  -0.380  0.00  0.00    -0.400 N 
ATOM      4  C   LIG    1        7.342   1.219  -1.336  0.00  0.00    +0.530 A 
ATOM      5  N   LIG    1        8.432   1.908  -1.107  0.00  0.00    -0.500 NA
ATOM      6  C   LIG    1        9.034   1.449  -0.008  0.00  0.00    +0.320 A 
ATOM      7  N   LIG    1       10.192   1.797   0.670  0.00  0.00    -0.510 N 
ATOM      8  C   LIG    1       11.027   2.894   0.175  0.00  0.00    +0.340 C 
ATOM      9  C   LIG    1       10.550   1.129   1.783  0.00  0.00    +0.710 A 
ATOM     10  O   LIG    1       11.569   1.448   2.364  0.00  0.00    -0.530 OA
ATOM     11  N   LIG    1        9.809   0.117   2.267  0.00  0.00    -0.550 N 
ATOM     12  C   LIG    1       10.244  -0.578   3.481  0.00  0.00    +0.350 C 
ATOM     13  C   LIG    1        8.672  -0.268   1.652  0.00  0.00    +0.600 A 
ATOM     14  O   LIG    1        8.009  -1.186   2.101  0.00  0.00    -0.520 OA
ATOM     15  C   LIG    1        8.259   0.405   0.482  0.00  0.00    -0.160 A 
ENDBRANCH   1   3
BRANCH   1  18
ATOM     16  N   LIG    1        3.631  -0.643  -0.038  0.00  0.00    -0.650 N 
ATOM     17  H   LIG    1        3.651  -1.611   0.022  0.00  0.00    +0.420 HD
ATOM     18  C   LIG    1        4.783   0.048  -0.147  0.00  0.00    +0.510 C 
ATOM     19  O   LIG    1        4.766   1.261  -0.139  0.00  0.00    -0.500 OA
BRANCH  16  25
ATOM     20  C   LIG    1        1.278  -0.532  -0.598  0.00  0.00    +0.110 A 
ATOM     21  C   LIG    1        0.070   0.144  -0.568  0.00  0.00    -0.060 A 
ATOM     22  C   LIG    1       -0.015   1.381   0.044  0.00  0.00    +0.040 A 
ATOM     23  C   LIG    1        1.104   1.946   0.628  0.00  0.00    -0.010 A 
ATOM     24  C   LIG    1        2.314   1.277   0.602  0.00  0.00    +0.070 A 
ATOM     25  C   LIG    1        2.406   0.036  -0.010  0.00  0.00    +0.110 A 
BRANCH  20  26
ATOM     26  O   LIG    1        1.364  -1.749  -1.199  0.00  0.00    -0.320 OA
BRANCH  26  28
ATOM     27  C   LIG    1        0.456  -3.637  -2.404  0.00  0.00    +0.070 C 
ATOM     28  C   LIG    1        0.167  -2.271  -1.780  0.00  0.00    +0.180 C 
ENDBRANCH  26  28
ENDBRANCH  20  26
ENDBRANCH  16  25
ENDBRANCH   1  18
TORSDOF 5
