REMARK  Name = ZINCrD000000AI6R.0
REMARK                            x       y       z     vdW  Elec       q    Type
REMARK                         _______ _______ _______ _____ _____    ______ ____
ROOT
ATOM      1  O   LIG    1        0.098   5.546   0.040  0.00  0.00    -0.550 OA
ATOM      2  C   LIG    1       -1.108   5.389   0.042  0.00  0.00    +0.720 C 
ATOM      3  N   LIG    1       -1.626   4.145   0.033  0.00  0.00    -0.640 N 
ATOM      4  H   LIG    1       -2.588   4.020   0.034  0.00  0.00    +0.420 HD
ATOM      5  N   LIG    1       -1.926   6.460   0.053  0.00  0.00    -0.680 N 
ATOM      6  H   LIG    1       -2.886   6.338  -0.013  0.00  0.00    +0.410 HD
ENDROOT
BRANCH   3   7
ATOM      7  C   LIG    1       -0.775   3.031   0.021  0.00  0.00    +0.320 A 
ATOM      8  N   LIG    1       -1.155   1.775   0.006  0.00  0.00    -0.310 NA
ATOM      9  N   LIG    1       -0.012   0.966   0.001  0.00  0.00    -0.460 N 
ATOM     10  H   LIG    1        0.001  -0.004  -0.007  0.00  0.00    +0.440 HD
ATOM     11  C   LIG    1        1.079   1.783   0.005  0.00  0.00    +0.140 A 
ATOM     12  C   LIG    1        0.625   3.071   0.018  0.00  0.00    -0.060 A 
BRANCH  11  13
ATOM     13  C   LIG    1        2.495   1.353  -0.001  0.00  0.00    -0.090 A 
ATOM     14  C   LIG    1        2.826  -0.006  -0.007  0.00  0.00    +0.060 A 
ATOM     15  C   LIG    1        4.165  -0.355  -0.019  0.00  0.00    -0.030 A 
ATOM     16  C   LIG    1        5.125   0.641  -0.012  0.00  0.00    +0.270 A 
ATOM     17  N   LIG    1        4.783   1.916  -0.001  0.00  0.00    -0.480 NA
ATOM     18  C   LIG    1        3.522   2.297   0.004  0.00  0.00    +0.310 A 
ENDBRANCH  11  13
ENDBRANCH   3   7
BRANCH   5  19
ATOM     19  C   LIG    1       -1.391   7.749   0.160  0.00  0.00    +0.170 A 
ATOM     20  C   LIG    1       -2.077   8.731   0.863  0.00  0.00    -0.010 A 
ATOM     21  C   LIG    1       -1.544  10.000   0.971  0.00  0.00    +0.050 A 
ATOM     22  C   LIG    1       -0.334  10.297   0.372  0.00  0.00    -0.130 A 
ATOM     23  C   LIG    1        0.349   9.322  -0.333  0.00  0.00    +0.050 A 
ATOM     24  C   LIG    1       -0.176   8.050  -0.441  0.00  0.00    +0.030 A 
BRANCH  22  25
ATOM     25  C   LIG    1        0.242  11.685   0.486  0.00  0.00    +0.350 C 
BRANCH  25  26
ATOM     26  N   LIG    1       -0.234  12.505  -0.630  0.00  0.00    -0.450 N 
ATOM     27  C   LIG    1       -1.368  13.271  -0.649  0.00  0.00    +0.110 A 
ATOM     28  C   LIG    1       -1.425  13.853  -1.862  0.00  0.00    +0.140 A 
ATOM     29  N   LIG    1       -0.354  13.454  -2.564  0.00  0.00    -0.500 NA
ATOM     30  C   LIG    1        0.367  12.651  -1.831  0.00  0.00    +0.380 A 
ENDBRANCH  25  26
ENDBRANCH  22  25
ENDBRANCH   5  19
TORSDOF 5
