REMARK  Name = ZINCpk00000ebCBf.0
REMARK                            x       y       z     vdW  Elec       q    Type
REMARK                         _______ _______ _______ _____ _____    ______ ____
ROOT
ATOM      1  O   LIG    1       -4.637  -4.280   0.730  0.00  0.00    -0.510 OA
ATOM      2  C   LIG    1       -3.959  -3.864   1.650  0.00  0.00    +0.560 C 
ATOM      3  N   LIG    1       -2.839  -3.159   1.396  0.00  0.00    -0.720 N 
ATOM      4  H   LIG    1       -2.298  -2.827   2.129  0.00  0.00    +0.400 HD
ENDROOT
BRANCH   2   5
ATOM      5  C   LIG    1       -4.361  -4.132   3.042  0.00  0.00    -0.080 A 
ATOM      6  C   LIG    1       -3.596  -3.670   4.102  0.00  0.00    +0.090 A 
ATOM      7  C   LIG    1       -3.968  -3.912   5.419  0.00  0.00    +0.020 A 
ATOM      8  C   LIG    1       -5.083  -4.615   5.747  0.00  0.00    +0.120 A 
ATOM      9  C   LIG    1       -5.922  -5.131   4.744  0.00  0.00    +0.020 A 
ATOM     10  N   LIG    1       -7.043  -5.833   4.697  0.00  0.00    -0.260 NA
ATOM     11  N   LIG    1       -7.364  -6.020   3.464  0.00  0.00    -0.200 N 
ATOM     12  H   LIG    1       -8.151  -6.511   3.182  0.00  0.00    +0.480 HD
ATOM     13  N   LIG    1       -6.526  -5.486   2.645  0.00  0.00    -0.240 NA
ATOM     14  C   LIG    1       -5.572  -4.895   3.336  0.00  0.00    +0.060 A 
ENDBRANCH   2   5
BRANCH   3  15
ATOM     15  C   LIG    1       -2.439  -2.893   0.012  0.00  0.00    +0.340 C 
BRANCH  15  16
ATOM     16  C   LIG    1       -1.162  -2.092   0.003  0.00  0.00    -0.030 A 
ATOM     17  C   LIG    1        0.073  -2.725  -0.012  0.00  0.00    -0.050 A 
ATOM     18  C   LIG    1        1.223  -1.961  -0.020  0.00  0.00    +0.300 A 
ATOM     19  N   LIG    1        1.160  -0.643  -0.013  0.00  0.00    -0.530 NA
ATOM     20  C   LIG    1        0.002  -0.004   0.002  0.00  0.00    +0.320 A 
ATOM     21  C   LIG    1       -1.195  -0.708   0.015  0.00  0.00    -0.020 A 
BRANCH  20  22
ATOM     22  O   LIG    1       -0.016   1.353   0.009  0.00  0.00    -0.290 OA
BRANCH  22  23
ATOM     23  C   LIG    1        1.248   2.019   0.001  0.00  0.00    +0.170 C 
ATOM     24  C   LIG    1        1.115   3.450  -0.587  0.00  0.00    +0.030 C 
ATOM     25  C   LIG    1        2.280   4.174   0.134  0.00  0.00    +0.210 C 
ATOM     26  O   LIG    1        2.313   3.608   1.454  0.00  0.00    -0.380 OA
ATOM     27  C   LIG    1        1.731   2.299   1.440  0.00  0.00    +0.200 C 
ENDBRANCH  22  23
ENDBRANCH  20  22
ENDBRANCH  15  16
ENDBRANCH   3  15
TORSDOF 5
