REMARK  Name = ZINCb80000002uYk.0
REMARK                            x       y       z     vdW  Elec       q    Type
REMARK                         _______ _______ _______ _____ _____    ______ ____
ROOT
ATOM      1  C   LIG    1       -1.384   3.882   3.935  0.00  0.00    +0.360 C 
ATOM      2  N   LIG    1       -1.310   2.794   2.957  0.00  0.00    -0.370 N 
ATOM      3  C   LIG    1       -0.468   2.728   1.905  0.00  0.00    +0.250 A 
ATOM      4  C   LIG    1       -0.718   1.572   1.248  0.00  0.00    -0.250 A 
ATOM      5  C   LIG    1       -1.743   0.905   1.926  0.00  0.00    +0.250 A 
ATOM      6  N   LIG    1       -2.099   1.637   2.951  0.00  0.00    -0.290 NA
ENDROOT
BRANCH   4   7
ATOM      7  C   LIG    1       -0.013   1.086   0.008  0.00  0.00    +0.140 C 
BRANCH   7   8
ATOM      8  C   LIG    1       -0.753   1.593  -1.232  0.00  0.00    +0.260 C 
BRANCH   8   9
ATOM      9  N   LIG    1       -0.067   1.120  -2.437  0.00  0.00    -0.020 N 
ATOM     10  O   LIG    1        0.134   1.886  -3.363  0.00  0.00    -0.170 OA
ATOM     11  O   LIG    1        0.302  -0.038  -2.513  0.00  0.00    -0.160 OA
ENDBRANCH   8   9
ENDBRANCH   7   8
ENDBRANCH   4   7
TORSDOF 3
