REMARK  Name = ZINCpe00000VVGlZ.0
REMARK                            x       y       z     vdW  Elec       q    Type
REMARK                         _______ _______ _______ _____ _____    ______ ____
ROOT
ATOM      1  C   LIG    1        0.064  -2.471   2.987  0.00  0.00    +0.340 C 
ATOM      2  C   LIG    1        0.054  -3.999   2.768  0.00  0.00    +0.060 C 
ATOM      3  C   LIG    1       -0.542  -4.142   1.343  0.00  0.00    +0.050 C 
ATOM      4  C   LIG    1        0.041  -2.898   0.632  0.00  0.00    +0.260 C 
ATOM      5  N   LIG    1        0.043  -1.840   1.659  0.00  0.00    -0.610 N 
ATOM      6  C   LIG    1        0.022  -0.514   1.420  0.00  0.00    +0.520 C 
ATOM      7  O   LIG    1        0.021   0.269   2.346  0.00  0.00    -0.510 OA
ENDROOT
BRANCH   1  10
ATOM      8  C   LIG    1        2.653  -1.421   5.231  0.00  0.00    +0.180 A 
ATOM      9  N   LIG    1        1.385  -1.669   5.009  0.00  0.00    -0.470 NA
ATOM     10  C   LIG    1        1.313  -2.067   3.726  0.00  0.00    +0.170 A 
ATOM     11  N   LIG    1        2.518  -2.035   3.241  0.00  0.00    -0.370 NA
ATOM     12  O   LIG    1        3.303  -1.666   4.089  0.00  0.00    +0.080 OA
BRANCH   8  14
ATOM     13  C   LIG    1        3.670  -2.152   7.371  0.00  0.00    +0.050 C 
ATOM     14  C   LIG    1        3.262  -0.945   6.525  0.00  0.00    +0.180 C 
ENDBRANCH   8  14
ENDBRANCH   1  10
BRANCH   6  15
ATOM     15  C   LIG    1        0.002  -0.004   0.002  0.00  0.00    +0.410 C 
BRANCH  15  16
ATOM     16  N   LIG    1       -0.018   1.461   0.010  0.00  0.00    -0.420 N 
ATOM     17  N   LIG    1       -1.160   2.273   0.019  0.00  0.00    -0.280 NA
ATOM     18  C   LIG    1       -0.764   3.525   0.028  0.00  0.00    +0.300 A 
ATOM     19  C   LIG    1       -1.482   4.747   0.041  0.00  0.00    +0.040 A 
ATOM     20  C   LIG    1       -0.800   5.918   0.040  0.00  0.00    +0.110 A 
ATOM     21  C   LIG    1        0.610   5.909   0.026  0.00  0.00    -0.020 A 
ATOM     22  C   LIG    1        1.287   4.747   0.015  0.00  0.00    +0.300 A 
ATOM     23  N   LIG    1        0.618   3.546   0.015  0.00  0.00    -0.480 N 
ATOM     24  C   LIG    1        1.060   2.272   0.004  0.00  0.00    +0.650 A 
ATOM     25  O   LIG    1        2.225   1.917  -0.009  0.00  0.00    -0.530 OA
ENDBRANCH  15  16
ENDBRANCH   6  15
TORSDOF 4
