REMARK  Name = ZINCkj000005lonf.0
REMARK                            x       y       z     vdW  Elec       q    Type
REMARK                         _______ _______ _______ _____ _____    ______ ____
ROOT
ATOM      1  C   LIG    1       -4.179  -0.950   1.093  0.00  0.00    -0.010 C 
ATOM      2  C   LIG    1       -4.234  -1.858  -0.139  0.00  0.00    +0.050 C 
ATOM      3  C   LIG    1       -5.575  -2.597  -0.157  0.00  0.00    +0.060 C 
ATOM      4  C   LIG    1       -5.739  -3.379   1.148  0.00  0.00    +0.250 C 
ATOM      5  N   LIG    1       -5.704  -2.452   2.286  0.00  0.00    -0.380 N 
ATOM      6  H   LIG    1       -5.866  -2.964   3.140  0.00  0.00    +0.420 HD
ATOM      7  C   LIG    1       -4.394  -1.793   2.352  0.00  0.00    +0.270 C 
ENDROOT
BRANCH   1   8
ATOM      8  C   LIG    1       -2.812  -0.267   1.164  0.00  0.00    +0.300 C 
BRANCH   8   9
ATOM      9  N   LIG    1       -2.656   0.633   0.018  0.00  0.00    -1.130 NA
ATOM     10  H   LIG    1       -3.256   0.560  -0.741  0.00  0.00    +0.420 HD
BRANCH   9  11
ATOM     11  S   LIG    1       -1.456   1.774   0.019  0.00  0.00    +2.800 S 
ATOM     12  O   LIG    1       -1.547   2.452  -1.227  0.00  0.00    -0.970 OA
ATOM     13  O   LIG    1       -1.535   2.438   1.272  0.00  0.00    -0.980 OA
BRANCH  11  14
ATOM     14  N   LIG    1       -0.011   0.966   0.007  0.00  0.00    -1.260 NA
ATOM     15  H   LIG    1        0.822   1.462   0.002  0.00  0.00    +0.430 HD
ATOM     16  H   LIG    1        0.002  -0.004   0.002  0.00  0.00    +0.410 HD
ENDBRANCH  11  14
ENDBRANCH   9  11
ENDBRANCH   8   9
ENDBRANCH   1   8
BRANCH   5  17
ATOM     17  C   LIG    1       -6.753  -1.438   2.121  0.00  0.00    +0.320 C 
BRANCH  17  18
ATOM     18  C   LIG    1       -8.106  -2.100   2.176  0.00  0.00    -0.150 A 
ATOM     19  C   LIG    1       -8.790  -2.372   1.006  0.00  0.00    +0.060 A 
ATOM     20  C   LIG    1      -10.029  -2.985   1.056  0.00  0.00    +0.030 A 
ATOM     21  C   LIG    1      -10.589  -3.314   2.276  0.00  0.00    +0.080 A 
ATOM     22  C   LIG    1       -9.908  -3.038   3.447  0.00  0.00    +0.050 A 
ATOM     23  C   LIG    1       -8.666  -2.430   3.397  0.00  0.00    -0.020 A 
ATOM     24 CL   LIG    1       -7.810  -2.083   4.867  0.00  0.00    -0.050 Cl
ENDBRANCH  17  18
ENDBRANCH   5  17
TORSDOF 6
