REMARK  Name = ZINCkj000005lonf.1
REMARK                            x       y       z     vdW  Elec       q    Type
REMARK                         _______ _______ _______ _____ _____    ______ ____
ROOT
ATOM      1  C   LIG    1       -0.696   1.851   1.035  0.00  0.00    -0.010 C 
ATOM      2  C   LIG    1       -0.027   1.473  -0.290  0.00  0.00    +0.050 C 
ATOM      3  C   LIG    1       -0.900   1.962  -1.450  0.00  0.00    +0.060 C 
ATOM      4  C   LIG    1       -2.300   1.360  -1.316  0.00  0.00    +0.250 C 
ATOM      5  N   LIG    1       -2.897   1.779  -0.042  0.00  0.00    -0.380 N 
ATOM      6  H   LIG    1       -2.915   2.786   0.004  0.00  0.00    +0.420 HD
ATOM      7  C   LIG    1       -2.105   1.253   1.076  0.00  0.00    +0.260 C 
ENDROOT
BRANCH   1   8
ATOM      8  C   LIG    1        0.130   1.299   2.199  0.00  0.00    +0.290 C 
BRANCH   8   9
ATOM      9  N   LIG    1        1.439   1.957   2.224  0.00  0.00    -1.130 NA
ATOM     10  H   LIG    1        1.744   2.459   1.452  0.00  0.00    +0.420 HD
BRANCH   9  11
ATOM     11  S   LIG    1        2.397   1.843   3.570  0.00  0.00    +2.800 S 
ATOM     12  O   LIG    1        1.568   2.156   4.681  0.00  0.00    -0.980 OA
ATOM     13  O   LIG    1        3.595   2.547   3.271  0.00  0.00    -0.970 OA
BRANCH  11  14
ATOM     14  N   LIG    1        2.821   0.251   3.737  0.00  0.00    -1.260 NA
ATOM     15  H   LIG    1        3.387  -0.026   4.474  0.00  0.00    +0.430 HD
ATOM     16  H   LIG    1        2.502  -0.406   3.098  0.00  0.00    +0.410 HD
ENDBRANCH  11  14
ENDBRANCH   9  11
ENDBRANCH   8   9
ENDBRANCH   1   8
BRANCH   5  17
ATOM     17  C   LIG    1       -4.270   1.263   0.047  0.00  0.00    +0.320 C 
BRANCH  17  18
ATOM     18  C   LIG    1       -4.931   1.804   1.288  0.00  0.00    -0.150 A 
ATOM     19  C   LIG    1       -5.050   1.008   2.411  0.00  0.00    +0.060 A 
ATOM     20  C   LIG    1       -5.651   1.506   3.552  0.00  0.00    +0.040 A 
ATOM     21  C   LIG    1       -6.144   2.797   3.567  0.00  0.00    +0.080 A 
ATOM     22  C   LIG    1       -6.030   3.593   2.442  0.00  0.00    +0.050 A 
ATOM     23  C   LIG    1       -5.423   3.097   1.302  0.00  0.00    -0.030 A 
ATOM     24 CL   LIG    1       -5.280   4.096  -0.110  0.00  0.00    -0.060 Cl
ENDBRANCH  17  18
ENDBRANCH   5  17
TORSDOF 6
