REMARK  Name = ZINCvU00000004gD.0
REMARK                            x       y       z     vdW  Elec       q    Type
REMARK                         _______ _______ _______ _____ _____    ______ ____
ROOT
ATOM      1  C   LIG    1        6.249  -0.644  -0.130  0.00  0.00    +0.520 C 
ATOM      2  N   LIG    1        5.043  -0.042  -0.159  0.00  0.00    -0.680 N 
ATOM      3  H   LIG    1        4.238  -0.574  -0.255  0.00  0.00    +0.410 HD
ATOM      4  O   LIG    1        7.260   0.025  -0.097  0.00  0.00    -0.490 OA
ENDROOT
BRANCH   2   5
ATOM      5  C   LIG    1        4.955   1.343  -0.049  0.00  0.00    +0.180 A 
ATOM      6  C   LIG    1        5.941   2.151  -0.597  0.00  0.00    +0.030 A 
ATOM      7  C   LIG    1        5.852   3.525  -0.486  0.00  0.00    +0.050 A 
ATOM      8  C   LIG    1        4.779   4.107   0.170  0.00  0.00    +0.000 A 
ATOM      9  C   LIG    1        3.787   3.322   0.715  0.00  0.00    +0.060 A 
ATOM     10  C   LIG    1        3.866   1.930   0.617  0.00  0.00    -0.180 A 
BRANCH  10  11
ATOM     11  C   LIG    1        2.811   1.084   1.202  0.00  0.00    +0.440 C 
ATOM     12  O   LIG    1        1.736   0.980   0.645  0.00  0.00    -0.440 OA
BRANCH  11  13
ATOM     13  C   LIG    1        3.061   0.361   2.467  0.00  0.00    -0.170 A 
ATOM     14  C   LIG    1        2.032  -0.359   3.078  0.00  0.00    +0.070 A 
ATOM     15  C   LIG    1        2.270  -1.026   4.262  0.00  0.00    +0.000 A 
ATOM     16  C   LIG    1        3.528  -0.993   4.837  0.00  0.00    +0.050 A 
ATOM     17  C   LIG    1        4.552  -0.281   4.237  0.00  0.00    +0.000 A 
ATOM     18  C   LIG    1        4.326   0.396   3.057  0.00  0.00    +0.070 A 
ENDBRANCH  11  13
ENDBRANCH  10  11
ENDBRANCH   2   5
BRANCH   1  19
ATOM     19  C   LIG    1        6.340  -2.148  -0.140  0.00  0.00    +0.220 C 
BRANCH  19  21
ATOM     20  C   LIG    1        8.377  -2.174   1.170  0.00  0.00    +0.200 C 
ATOM     21  N   LIG    1        7.752  -2.554  -0.104  0.00  0.00    -0.520 NA
BRANCH  21  22
ATOM     22  C   LIG    1        7.892  -3.995  -0.350  0.00  0.00    +0.230 C 
BRANCH  22  23
ATOM     23  C   LIG    1        9.347  -4.331  -0.550  0.00  0.00    -0.050 A 
ATOM     24  C   LIG    1        9.895  -4.302  -1.819  0.00  0.00    +0.040 A 
ATOM     25  C   LIG    1       11.232  -4.605  -2.001  0.00  0.00    +0.070 A 
ATOM     26  C   LIG    1       12.017  -4.949  -0.917  0.00  0.00    -0.180 A 
ATOM     27  C   LIG    1       11.468  -4.983   0.351  0.00  0.00    +0.070 A 
ATOM     28  C   LIG    1       10.133  -4.675   0.535  0.00  0.00    +0.020 A 
BRANCH  26  29
ATOM     29  C   LIG    1       13.472  -5.285  -1.117  0.00  0.00    +0.510 C 
ATOM     30  F   LIG    1       14.194  -4.935   0.029  0.00  0.00    -0.180 F 
ATOM     31  F   LIG    1       13.969  -4.575  -2.215  0.00  0.00    -0.180 F 
ATOM     32  F   LIG    1       13.605  -6.658  -1.351  0.00  0.00    -0.180 F 
ENDBRANCH  26  29
ENDBRANCH  22  23
ENDBRANCH  21  22
ENDBRANCH  19  21
ENDBRANCH   1  19
TORSDOF 8
