REMARK  Name = ZINCrH000004oJjf.0
REMARK                            x       y       z     vdW  Elec       q    Type
REMARK                         _______ _______ _______ _____ _____    ______ ____
ROOT
ATOM      1  C   LIG    1       -5.760  -2.299  -0.264  0.00  0.00    +0.060 C 
ATOM      2  C   LIG    1       -6.024  -0.796  -0.148  0.00  0.00    +0.250 C 
ATOM      3  C   LIG    1       -7.068  -0.376  -1.188  0.00  0.00    +0.170 C 
ATOM      4  N   LIG    1       -7.204   1.087  -1.177  0.00  0.00    -0.530 NA
ATOM      5  C   LIG    1       -5.949   1.742  -1.571  0.00  0.00    +0.180 C 
ATOM      6  C   LIG    1       -4.858   1.409  -0.540  0.00  0.00    +0.270 C 
ATOM      7  N   LIG    1       -4.781  -0.054  -0.407  0.00  0.00    -0.620 N 
ATOM      8  C   LIG    1       -3.601  -0.697  -0.515  0.00  0.00    +0.710 C 
ATOM      9  N   LIG    1       -2.461   0.007  -0.659  0.00  0.00    -0.680 N 
ATOM     10  H   LIG    1       -2.480   0.976  -0.613  0.00  0.00    +0.410 HD
ATOM     11  O   LIG    1       -3.566  -1.912  -0.482  0.00  0.00    -0.570 OA
ENDROOT
BRANCH   9  12
ATOM     12  C   LIG    1       -1.248  -0.661  -0.875  0.00  0.00    +0.140 A 
ATOM     13  C   LIG    1       -1.023  -1.900  -0.294  0.00  0.00    +0.060 A 
ATOM     14  C   LIG    1        0.174  -2.557  -0.508  0.00  0.00    -0.010 A 
ATOM     15  C   LIG    1        1.151  -1.981  -1.300  0.00  0.00    +0.030 A 
ATOM     16  C   LIG    1        0.931  -0.748  -1.887  0.00  0.00    -0.060 A 
ATOM     17  C   LIG    1       -0.264  -0.081  -1.673  0.00  0.00    +0.100 A 
BRANCH  17  18
ATOM     18  O   LIG    1       -0.478   1.133  -2.245  0.00  0.00    -0.310 OA
BRANCH  18  19
ATOM     19  C   LIG    1        0.575   1.666  -3.050  0.00  0.00    +0.190 C 
BRANCH  19  20
ATOM     20  C   LIG    1        0.153   3.029  -3.605  0.00  0.00    +0.260 C 
ATOM     21  F   LIG    1        0.000   3.934  -2.550  0.00  0.00    -0.210 F 
ENDBRANCH  19  20
ENDBRANCH  18  19
ENDBRANCH  17  18
ENDBRANCH   9  12
BRANCH   4  22
ATOM     22  C   LIG    1       -8.315   1.519  -2.035  0.00  0.00    +0.220 C 
BRANCH  22  23
ATOM     23  C   LIG    1       -8.273   3.017  -2.196  0.00  0.00    -0.090 A 
ATOM     24  C   LIG    1       -8.956   3.827  -1.308  0.00  0.00    +0.020 A 
ATOM     25  C   LIG    1       -8.913   5.201  -1.452  0.00  0.00    +0.000 A 
ATOM     26  C   LIG    1       -8.196   5.765  -2.490  0.00  0.00    +0.000 A 
ATOM     27  C   LIG    1       -7.517   4.955  -3.381  0.00  0.00    +0.000 A 
ATOM     28  C   LIG    1       -7.556   3.581  -3.234  0.00  0.00    +0.000 A 
ENDBRANCH  22  23
ENDBRANCH   4  22
TORSDOF 6
