REMARK  Name = ZINCpe000000T1uV.0
REMARK                            x       y       z     vdW  Elec       q    Type
REMARK                         _______ _______ _______ _____ _____    ______ ____
ROOT
ATOM      1  C   LIG    1       -0.712   1.636  -1.242  0.00  0.00    +0.510 C 
ATOM      2  N   LIG    1       -1.967   1.225  -1.510  0.00  0.00    -0.610 N 
ATOM      3  C   LIG    1       -2.680   0.341  -0.579  0.00  0.00    +0.270 C 
ATOM      4  C   LIG    1       -3.180  -0.886  -1.341  0.00  0.00    +0.000 C 
ATOM      5  C   LIG    1       -4.014  -0.432  -2.542  0.00  0.00    +0.150 C 
ATOM      6  C   LIG    1       -3.143   0.402  -3.484  0.00  0.00    +0.040 C 
ATOM      7  C   LIG    1       -2.645   1.647  -2.743  0.00  0.00    +0.290 C 
ATOM      8  O   LIG    1       -0.166   2.436  -1.972  0.00  0.00    -0.520 OA
ENDROOT
BRANCH   1   9
ATOM      9  C   LIG    1        0.013   1.103  -0.033  0.00  0.00    +0.290 C 
BRANCH   9  10
ATOM     10  N   LIG    1        1.446   1.012  -0.324  0.00  0.00    -0.980 NA
ATOM     11  C   LIG    1        2.330   2.124  -0.705  0.00  0.00    +0.260 C 
ATOM     12  C   LIG    1        3.771   1.838  -0.232  0.00  0.00    +0.070 C 
ATOM     13  C   LIG    1        4.020   0.358  -0.643  0.00  0.00    -0.310 C 
ATOM     14  S   LIG    1        2.376  -0.375  -0.291  0.00  0.00    +2.560 S 
ATOM     15  O   LIG    1        1.913  -1.157  -1.384  0.00  0.00    -0.950 OA
ATOM     16  O   LIG    1        2.296  -0.844   1.048  0.00  0.00    -0.950 OA
ENDBRANCH   9  10
BRANCH   9  18
ATOM     17  C   LIG    1       -1.696   2.083   1.503  0.00  0.00    +0.030 C 
ATOM     18  C   LIG    1       -0.208   2.046   1.151  0.00  0.00    -0.020 C 
ATOM     19  C   LIG    1        0.589   1.545   2.358  0.00  0.00    +0.040 C 
ENDBRANCH   9  18
ENDBRANCH   1   9
BRANCH   5  20
ATOM     20  O   LIG    1       -4.506  -1.579  -3.239  0.00  0.00    -0.360 OA
BRANCH  20  21
ATOM     21  C   LIG    1       -5.777  -2.040  -2.775  0.00  0.00    +0.140 C 
ATOM     22  C   LIG    1       -5.922  -3.559  -3.017  0.00  0.00    +0.030 C 
ATOM     23  C   LIG    1       -7.133  -3.673  -3.969  0.00  0.00    +0.200 C 
ATOM     24  O   LIG    1       -7.201  -2.393  -4.635  0.00  0.00    -0.370 OA
ATOM     25  C   LIG    1       -6.917  -1.413  -3.608  0.00  0.00    +0.190 C 
ENDBRANCH  20  21
ENDBRANCH   5  20
TORSDOF 5
