REMARK  Name = ZINCpk000005SjAc.0
REMARK                            x       y       z     vdW  Elec       q    Type
REMARK                         _______ _______ _______ _____ _____    ______ ____
ROOT
ATOM      1  N   LIG    1        0.839  10.031  -2.094  0.00  0.00    -0.530 NA
ATOM      2  C   LIG    1        0.983   9.014  -3.143  0.00  0.00    +0.170 C 
ATOM      3  C   LIG    1       -0.134   7.975  -2.999  0.00  0.00    +0.300 C 
ATOM      4  N   LIG    1       -0.115   7.455  -1.623  0.00  0.00    -0.620 N 
ATOM      5  C   LIG    1       -0.123   8.422  -0.515  0.00  0.00    +0.280 C 
ATOM      6  C   LIG    1       -0.094   6.129  -1.385  0.00  0.00    +0.520 C 
ATOM      7  O   LIG    1       -0.092   5.346  -2.311  0.00  0.00    -0.530 OA
ATOM      8  C   LIG    1        0.999   9.444  -0.757  0.00  0.00    +0.160 C 
ENDROOT
BRANCH   1   9
ATOM      9  C   LIG    1        1.784  11.137  -2.299  0.00  0.00    +0.240 C 
BRANCH   9  14
ATOM     10  C   LIG    1        1.744  14.549   2.290  0.00  0.00    +0.320 C 
ATOM     11  N   LIG    1        1.759  13.673   1.116  0.00  0.00    -0.500 N 
ATOM     12  C   LIG    1        0.837  13.849   0.136  0.00  0.00    +0.290 A 
ATOM     13  C   LIG    1        0.830  13.051  -0.958  0.00  0.00    -0.060 A 
ATOM     14  C   LIG    1        1.783  12.031  -1.086  0.00  0.00    +0.020 A 
ATOM     15  C   LIG    1        2.706  11.852  -0.097  0.00  0.00    -0.100 A 
ATOM     16  C   LIG    1        2.687  12.702   1.022  0.00  0.00    +0.510 A 
ATOM     17  O   LIG    1        3.510  12.556   1.912  0.00  0.00    -0.550 OA
ENDBRANCH   9  14
ENDBRANCH   1   9
BRANCH   6  18
ATOM     18  C   LIG    1       -0.074   5.619   0.033  0.00  0.00    +0.120 C 
BRANCH  18  19
ATOM     19  C   LIG    1       -0.054   4.112   0.024  0.00  0.00    -0.080 A 
ATOM     20  C   LIG    1        1.153   3.438   0.009  0.00  0.00    +0.050 A 
ATOM     21  C   LIG    1        1.173   2.056   0.002  0.00  0.00    -0.010 A 
ATOM     22  C   LIG    1       -0.016   1.347   0.009  0.00  0.00    +0.100 A 
ATOM     23  C   LIG    1       -1.224   2.023   0.019  0.00  0.00    -0.010 A 
ATOM     24  F   LIG    1        0.002  -0.004   0.002  0.00  0.00    -0.140 F 
ATOM     25  C   LIG    1       -1.242   3.405   0.032  0.00  0.00    +0.050 A 
ENDBRANCH  18  19
ENDBRANCH   6  18
TORSDOF 4
