REMARK  Name = ZINCrD0000074Luk.0
REMARK                            x       y       z     vdW  Elec       q    Type
REMARK                         _______ _______ _______ _____ _____    ______ ____
ROOT
ATOM      1  N   LIG    1       -2.047   7.911  -1.376  0.00  0.00    -0.730 N 
ATOM      2  H   LIG    1       -2.356   8.272  -0.530  0.00  0.00    +0.400 HD
ENDROOT
BRANCH   1   3
ATOM      3  C   LIG    1       -2.515   8.445  -2.575  0.00  0.00    +0.380 A 
ATOM      4  C   LIG    1       -2.062   7.924  -3.782  0.00  0.00    -0.060 A 
ATOM      5  C   LIG    1       -2.537   8.458  -4.967  0.00  0.00    +0.060 A 
ATOM      6  C   LIG    1       -3.447   9.511  -4.902  0.00  0.00    +0.100 A 
ATOM      7  C   LIG    1       -3.850   9.982  -3.662  0.00  0.00    +0.290 A 
ATOM      8  N   LIG    1       -3.381   9.445  -2.551  0.00  0.00    -0.520 NA
BRANCH   6   9
ATOM      9  N   LIG    1       -3.950  10.086  -6.077  0.00  0.00    -0.930 N 
ATOM     10  C   LIG    1       -4.472  11.453  -6.222  0.00  0.00    +0.260 C 
ATOM     11  C   LIG    1       -5.536  11.498  -7.335  0.00  0.00    +0.100 C 
ATOM     12  C   LIG    1       -4.907  10.682  -8.502  0.00  0.00    -0.290 C 
ATOM     13  S   LIG    1       -4.061   9.347  -7.570  0.00  0.00    +2.560 S 
ATOM     14  O   LIG    1       -4.922   8.234  -7.371  0.00  0.00    -0.940 OA
ATOM     15  O   LIG    1       -2.717   9.186  -8.005  0.00  0.00    -0.950 OA
ENDBRANCH   6   9
ENDBRANCH   1   3
BRANCH   1  16
ATOM     16  C   LIG    1       -1.089   6.803  -1.392  0.00  0.00    +0.250 C 
BRANCH  16  17
ATOM     17  C   LIG    1       -0.741   6.409   0.045  0.00  0.00    +0.110 C 
BRANCH  17  26
ATOM     18  C   LIG    1       -2.514   0.962   0.019  0.00  0.00    +0.080 C 
ATOM     19  C   LIG    1       -1.228   1.746   0.017  0.00  0.00    -0.110 A 
ATOM     20  C   LIG    1       -0.013   1.076   0.008  0.00  0.00    +0.030 A 
ATOM     21  C   LIG    1        1.175   1.774   0.000  0.00  0.00    -0.010 A 
ATOM     22  C   LIG    1        1.159   3.165   0.008  0.00  0.00    +0.090 A 
ATOM     23  N   LIG    1        2.147   4.124   0.004  0.00  0.00    -0.590 N 
ATOM     24  H   LIG    1        3.099   3.943  -0.006  0.00  0.00    +0.410 HD
ATOM     25  C   LIG    1        1.583   5.371   0.017  0.00  0.00    +0.090 A 
ATOM     26  C   LIG    1        0.245   5.269   0.029  0.00  0.00    -0.170 A 
ATOM     27  C   LIG    1        2.352   6.668   0.016  0.00  0.00    +0.140 C 
ATOM     28  C   LIG    1       -0.075   3.840   0.023  0.00  0.00    -0.090 A 
ATOM     29  C   LIG    1       -1.267   3.112   0.031  0.00  0.00    +0.050 A 
ENDBRANCH  17  26
ENDBRANCH  16  17
ENDBRANCH   1  16
TORSDOF 5
