REMARK  Name = ZINCpe000000UDgc.0
REMARK                            x       y       z     vdW  Elec       q    Type
REMARK                         _______ _______ _______ _____ _____    ______ ____
ROOT
ATOM      1  C   LIG    1       -0.017   1.425   0.010  0.00  0.00    +0.200 C 
ENDROOT
BRANCH   1   2
ATOM      2  O   LIG    1        0.002  -0.004   0.002  0.00  0.00    -0.540 OA
ATOM      3  H   LIG    1       -0.876  -0.409   0.008  0.00  0.00    +0.380 HD
ENDBRANCH   1   2
BRANCH   1   4
ATOM      4  C   LIG    1       -0.757   1.932  -1.230  0.00  0.00    +0.270 C 
BRANCH   4   6
ATOM      5  C   LIG    1        0.990   2.269  -3.039  0.00  0.00    +0.290 C 
ATOM      6  N   LIG    1       -0.072   1.459  -2.435  0.00  0.00    -0.610 N 
ATOM      7  C   LIG    1       -0.417   0.280  -2.988  0.00  0.00    +0.540 C 
ATOM      8  O   LIG    1       -1.296  -0.390  -2.488  0.00  0.00    -0.520 OA
BRANCH   7   9
ATOM      9  C   LIG    1        0.288  -0.206  -4.228  0.00  0.00    +0.150 C 
ATOM     10  C   LIG    1       -0.298   0.493  -5.457  0.00  0.00    +0.200 C 
ATOM     11  O   LIG    1        0.322  -0.027  -6.636  0.00  0.00    -0.370 OA
ATOM     12  C   LIG    1        0.160  -1.438  -6.798  0.00  0.00    +0.180 C 
ATOM     13  C   LIG    1        0.752  -2.157  -5.583  0.00  0.00    +0.210 C 
ATOM     14  N   LIG    1        0.102  -1.659  -4.361  0.00  0.00    -0.660 NA
ATOM     15  H   LIG    1       -0.877  -1.900  -4.348  0.00  0.00    +0.350 HD
ENDBRANCH   7   9
ENDBRANCH   4   6
ENDBRANCH   1   4
BRANCH   1  16
ATOM     16  C   LIG    1       -0.733   1.918   1.269  0.00  0.00    +0.170 C 
BRANCH  16  17
ATOM     17  O   LIG    1        0.021   1.544   2.423  0.00  0.00    -0.300 OA
BRANCH  17  18
ATOM     18  C   LIG    1       -0.481   1.909   3.633  0.00  0.00    +0.160 A 
ATOM     19  C   LIG    1       -1.671   2.617   3.706  0.00  0.00    -0.070 A 
ATOM     20  C   LIG    1       -2.182   2.981   4.937  0.00  0.00    +0.110 A 
ATOM     21  C   LIG    1       -1.502   2.651   6.094  0.00  0.00    -0.220 A 
ATOM     22  C   LIG    1       -0.312   1.950   6.024  0.00  0.00    +0.110 A 
ATOM     23  C   LIG    1        0.200   1.578   4.795  0.00  0.00    -0.010 A 
BRANCH  21  24
ATOM     24  C   LIG    1       -2.058   3.055   7.435  0.00  0.00    +0.510 C 
ATOM     25  F   LIG    1       -1.671   2.120   8.402  0.00  0.00    -0.180 F 
ATOM     26  F   LIG    1       -3.454   3.104   7.366  0.00  0.00    -0.180 F 
ATOM     27  F   LIG    1       -1.564   4.317   7.784  0.00  0.00    -0.180 F 
ENDBRANCH  21  24
ENDBRANCH  17  18
ENDBRANCH  16  17
ENDBRANCH   1  16
TORSDOF 8
