REMARK  Name = ZINCpe00000VVGAZ.0
REMARK                            x       y       z     vdW  Elec       q    Type
REMARK                         _______ _______ _______ _____ _____    ______ ____
ROOT
ATOM      1  N   LIG    1       -4.408  -0.224  -2.321  0.00  0.00    -0.530 NA
ATOM      2  C   LIG    1       -4.384   1.238  -2.165  0.00  0.00    +0.200 C 
ATOM      3  C   LIG    1       -2.940   1.735  -2.261  0.00  0.00    +0.190 C 
ATOM      4  N   LIG    1       -2.131   1.084  -1.221  0.00  0.00    -0.530 NA
ATOM      5  C   LIG    1       -2.154  -0.377  -1.377  0.00  0.00    +0.190 C 
ATOM      6  C   LIG    1       -3.599  -0.874  -1.281  0.00  0.00    +0.180 C 
ENDROOT
BRANCH   1   8
ATOM      7  C   LIG    1       -6.571  -0.103  -3.464  0.00  0.00    +0.080 C 
ATOM      8  C   LIG    1       -5.786  -0.732  -2.311  0.00  0.00    +0.270 C 
BRANCH   8   9
ATOM      9  C   LIG    1       -5.770  -2.230  -2.472  0.00  0.00    +0.190 A 
ATOM     10  N   LIG    1       -6.467  -3.098  -1.779  0.00  0.00    -0.480 NA
ATOM     11  C   LIG    1       -6.133  -4.305  -2.269  0.00  0.00    +0.200 A 
ATOM     12  N   LIG    1       -5.261  -4.114  -3.214  0.00  0.00    -0.380 NA
ATOM     13  O   LIG    1       -5.038  -2.929  -3.346  0.00  0.00    +0.090 OA
BRANCH  11  14
ATOM     14  C   LIG    1       -6.668  -5.635  -1.806  0.00  0.00    +0.060 C 
ATOM     15  C   LIG    1       -6.001  -6.897  -2.358  0.00  0.00    +0.050 C 
ATOM     16  C   LIG    1       -7.399  -6.500  -2.835  0.00  0.00    +0.050 C 
ENDBRANCH  11  14
ENDBRANCH   8   9
ENDBRANCH   1   8
BRANCH   4  17
ATOM     17  C   LIG    1       -0.753   1.593  -1.232  0.00  0.00    +0.150 C 
BRANCH  17  18
ATOM     18  C   LIG    1       -0.013   1.086   0.008  0.00  0.00    +0.200 C 
BRANCH  18  19
ATOM     19  O   LIG    1       -0.682   1.547   1.184  0.00  0.00    -0.520 OA
ATOM     20  H   LIG    1       -0.732   2.510   1.256  0.00  0.00    +0.370 HD
ENDBRANCH  18  19
BRANCH  18  21
ATOM     21  C   LIG    1        1.423   1.615  -0.003  0.00  0.00    +0.290 C 
BRANCH  21  22
ATOM     22  N   LIG    1        2.166   1.035   1.118  0.00  0.00    -0.370 N 
ATOM     23  C   LIG    1        3.328   0.354   1.033  0.00  0.00    +0.210 A 
ATOM     24  C   LIG    1        3.684  -0.012   2.286  0.00  0.00    -0.120 A 
ATOM     25  C   LIG    1        2.707   0.462   3.167  0.00  0.00    +0.220 A 
ATOM     26  N   LIG    1        1.799   1.095   2.469  0.00  0.00    -0.270 NA
ENDBRANCH  21  22
ENDBRANCH  18  21
ENDBRANCH  17  18
ENDBRANCH   4  17
TORSDOF 8
