REMARK  Name = ZINCrD00000714F4.0
REMARK                            x       y       z     vdW  Elec       q    Type
REMARK                         _______ _______ _______ _____ _____    ______ ____
ROOT
ATOM      1  C   LIG    1       -0.044  13.618   1.166  0.00  0.00    +0.660 C 
ATOM      2  N   LIG    1       -0.396  12.633   0.317  0.00  0.00    -0.610 N 
ATOM      3  C   LIG    1        0.625  11.839  -0.385  0.00  0.00    +0.340 C 
ATOM      4  C   LIG    1        0.524  10.377   0.064  0.00  0.00    +0.310 C 
ATOM      5  N   LIG    1       -0.880   9.970   0.064  0.00  0.00    -0.450 N 
ATOM      6  C   LIG    1       -1.941  10.814   0.072  0.00  0.00    +0.170 A 
ATOM      7  N   LIG    1       -3.022  10.092   0.083  0.00  0.00    -0.270 NA
ATOM      8  N   LIG    1       -2.710   8.841   0.070  0.00  0.00    -0.250 NA
ATOM      9  C   LIG    1       -1.400   8.711   0.062  0.00  0.00    +0.250 A 
ATOM     10  C   LIG    1       -1.815  12.319   0.065  0.00  0.00    +0.450 C 
ATOM     11  O   LIG    1        1.131  13.862   1.361  0.00  0.00    -0.550 OA
ENDROOT
BRANCH   9  12
ATOM     12  C   LIG    1       -0.638   7.442   0.048  0.00  0.00    +0.090 A 
ATOM     13  N   LIG    1        0.667   7.306   0.035  0.00  0.00    -0.350 NA
ATOM     14  O   LIG    1        0.996   6.143   0.026  0.00  0.00    +0.130 OA
ATOM     15  C   LIG    1       -0.070   5.323   0.032  0.00  0.00    +0.030 A 
ATOM     16  C   LIG    1       -1.175   6.126   0.041  0.00  0.00    +0.010 A 
BRANCH  15  17
ATOM     17  C   LIG    1       -0.050   3.845   0.023  0.00  0.00    -0.030 A 
ATOM     18  C   LIG    1        1.166   3.160   0.008  0.00  0.00    +0.040 A 
ATOM     19  C   LIG    1        1.178   1.781   0.000  0.00  0.00    +0.010 A 
ATOM     20  C   LIG    1       -0.013   1.076   0.008  0.00  0.00    +0.030 A 
ATOM     21  C   LIG    1       -1.222   1.748   0.017  0.00  0.00    +0.010 A 
ATOM     22  C   LIG    1       -1.247   3.127   0.031  0.00  0.00    +0.040 A 
ENDBRANCH  15  17
ENDBRANCH   9  12
BRANCH   1  23
ATOM     23  O   LIG    1       -0.994  14.332   1.799  0.00  0.00    -0.360 OA
BRANCH  23  25
ATOM     24  C   LIG    1        0.289  16.399   1.919  0.00  0.00    +0.040 C 
ATOM     25  C   LIG    1       -0.542  15.378   2.699  0.00  0.00    +0.140 C 
ATOM     26  C   LIG    1        0.316  14.763   3.807  0.00  0.00    +0.040 C 
ATOM     27  C   LIG    1       -1.754  16.075   3.321  0.00  0.00    +0.080 C 
ENDBRANCH  23  25
ENDBRANCH   1  23
TORSDOF 4
