REMARK  Name = ZINCtV00000L6jkw.0
REMARK                            x       y       z     vdW  Elec       q    Type
REMARK                         _______ _______ _______ _____ _____    ______ ____
ROOT
ATOM      1  C   LIG    1        3.779   3.655  -2.030  0.00  0.00    +0.480 A 
ATOM      2  C   LIG    1        4.068   2.438  -1.452  0.00  0.00    -0.260 A 
ATOM      3  C   LIG    1        4.747   1.457  -2.160  0.00  0.00    +0.110 A 
ATOM      4  C   LIG    1        5.131   1.704  -3.478  0.00  0.00    -0.110 A 
ATOM      5  C   LIG    1        4.812   3.008  -4.072  0.00  0.00    +0.360 A 
ATOM      6  N   LIG    1        5.054   3.506  -5.271  0.00  0.00    -0.500 NA
ATOM      7  C   LIG    1        4.561   4.765  -5.348  0.00  0.00    +0.110 A 
ATOM      8  C   LIG    1        4.542   5.726  -6.366  0.00  0.00    +0.040 A 
ATOM      9  C   LIG    1        3.951   6.948  -6.141  0.00  0.00    +0.030 A 
ATOM     10  C   LIG    1        3.372   7.235  -4.913  0.00  0.00    -0.010 A 
ATOM     11  C   LIG    1        3.381   6.300  -3.899  0.00  0.00    +0.040 A 
ATOM     12  C   LIG    1        3.973   5.062  -4.106  0.00  0.00    -0.010 A 
ATOM     13  C   LIG    1        5.061   0.133  -1.513  0.00  0.00    +0.120 C 
ATOM     14  N   LIG    1        4.143   3.938  -3.316  0.00  0.00    -0.420 N 
ENDROOT
BRANCH   1  15
ATOM     15  N   LIG    1        3.110   4.604  -1.296  0.00  0.00    -0.700 N 
ATOM     16  H   LIG    1        2.920   4.447  -0.358  0.00  0.00    +0.420 HD
BRANCH  15  17
ATOM     17  C   LIG    1        2.684   5.854  -1.931  0.00  0.00    +0.210 C 
ATOM     18  C   LIG    1        3.865   6.826  -1.987  0.00  0.00    +0.070 C 
BRANCH  17  20
ATOM     19  C   LIG    1        0.324   5.562  -1.164  0.00  0.00    +0.030 C 
ATOM     20  C   LIG    1        1.549   6.478  -1.117  0.00  0.00    +0.020 C 
ENDBRANCH  17  20
ENDBRANCH  15  17
ENDBRANCH   1  15
BRANCH   4  21
ATOM     21  C   LIG    1        5.828   0.708  -4.235  0.00  0.00    +0.280 C 
ATOM     22  N   LIG    1        6.380  -0.082  -4.835  0.00  0.00    -0.420 NA
ENDBRANCH   4  21
BRANCH   2  23
ATOM     23  C   LIG    1        3.647   2.172  -0.030  0.00  0.00    +0.160 C 
BRANCH  23  24
ATOM     24  C   LIG    1        4.836   2.324   0.883  0.00  0.00    -0.070 A 
ATOM     25  C   LIG    1        5.535   1.207   1.300  0.00  0.00    +0.040 A 
ATOM     26  C   LIG    1        6.626   1.347   2.137  0.00  0.00    +0.020 A 
ATOM     27  C   LIG    1        7.019   2.604   2.558  0.00  0.00    +0.020 A 
ATOM     28  C   LIG    1        6.321   3.722   2.142  0.00  0.00    +0.030 A 
ATOM     29  C   LIG    1        5.229   3.583   1.304  0.00  0.00    -0.040 A 
ATOM     30 CL   LIG    1        4.351   4.986   0.780  0.00  0.00    -0.060 Cl
ENDBRANCH  23  24
ENDBRANCH   2  23
TORSDOF 6
