REMARK  Name = ZINCb80000002oSY.0
REMARK                            x       y       z     vdW  Elec       q    Type
REMARK                         _______ _______ _______ _____ _____    ______ ____
ROOT
ATOM      1  N   LIG    1        1.077   1.993   0.003  0.00  0.00    -0.620 N 
ATOM      2  C   LIG    1        0.711   3.415   0.003  0.00  0.00    +0.260 C 
ATOM      3  C   LIG    1       -0.768   3.460   0.446  0.00  0.00    +0.000 C 
ATOM      4  C   LIG    1       -1.266   2.058   0.019  0.00  0.00    +0.050 C 
ATOM      5  C   LIG    1       -0.014   1.209   0.009  0.00  0.00    +0.520 C 
ATOM      6  O   LIG    1        0.002  -0.004   0.002  0.00  0.00    -0.530 OA
ENDROOT
BRANCH   1   8
ATOM      7  C   LIG    1        2.695   0.643   1.244  0.00  0.00    +0.030 C 
ATOM      8  C   LIG    1        2.454   1.494  -0.004  0.00  0.00    +0.240 C 
ATOM      9  C   LIG    1        2.681   0.641  -1.254  0.00  0.00    +0.030 C 
ENDBRANCH   1   8
BRANCH   3  10
ATOM     10  C   LIG    1       -1.529   4.559  -0.298  0.00  0.00    +0.190 C 
BRANCH  10  11
ATOM     11  O   LIG    1       -2.859   4.650   0.218  0.00  0.00    -0.570 OA
ATOM     12  H   LIG    1       -3.400   5.329  -0.208  0.00  0.00    +0.380 HD
ENDBRANCH  10  11
ENDBRANCH   3  10
TORSDOF 3
