REMARK  Name = ZINCrD000000CILW.1
REMARK                            x       y       z     vdW  Elec       q    Type
REMARK                         _______ _______ _______ _____ _____    ______ ____
ROOT
ATOM      1  O   LIG    1        2.103  -7.558   2.221  0.00  0.00    -0.510 OA
ATOM      2  C   LIG    1        1.901  -7.245   1.062  0.00  0.00    +0.600 C 
ATOM      3  N   LIG    1        2.195  -5.999   0.640  0.00  0.00    -0.600 N 
ATOM      4  C   LIG    1        2.657  -4.977   1.588  0.00  0.00    +0.310 C 
ATOM      5  C   LIG    1        1.764  -3.739   1.453  0.00  0.00    +0.020 C 
ATOM      6  C   LIG    1        1.752  -3.282  -0.007  0.00  0.00    +0.270 C 
ATOM      7  C   LIG    1        1.173  -4.393  -0.887  0.00  0.00    +0.030 C 
ATOM      8  C   LIG    1        2.059  -5.638  -0.778  0.00  0.00    +0.300 C 
ENDROOT
BRANCH   2   9
ATOM      9  C   LIG    1        1.339  -8.221   0.127  0.00  0.00    -0.020 A 
ATOM     10  C   LIG    1        2.029  -8.922  -0.871  0.00  0.00    -0.100 A 
ATOM     11  C   LIG    1        3.347  -8.986  -1.337  0.00  0.00    +0.030 A 
ATOM     12  C   LIG    1        3.653  -9.820  -2.371  0.00  0.00    +0.110 A 
ATOM     13  C   LIG    1        2.679 -10.616  -2.980  0.00  0.00    +0.020 A 
ATOM     14  C   LIG    1        1.386 -10.604  -2.568  0.00  0.00    +0.110 A 
ATOM     15  F   LIG    1        4.927  -9.878  -2.818  0.00  0.00    -0.130 F 
ATOM     16  C   LIG    1        1.001  -9.760  -1.507  0.00  0.00    +0.050 A 
ATOM     17  N   LIG    1       -0.131  -9.495  -0.879  0.00  0.00    -0.260 NA
ATOM     18  N   LIG    1        0.040  -8.625   0.050  0.00  0.00    -0.310 N 
ATOM     19  H   LIG    1       -0.668  -8.296   0.625  0.00  0.00    +0.450 HD
ENDBRANCH   2   9
BRANCH   6  20
ATOM     20  N   LIG    1        0.925  -2.079  -0.135  0.00  0.00    -0.350 N 
ATOM     21  C   LIG    1       -0.414  -2.049  -0.297  0.00  0.00    +0.240 A 
ATOM     22  C   LIG    1       -0.793  -0.752  -0.367  0.00  0.00    -0.070 A 
ATOM     23  C   LIG    1        0.356   0.038  -0.252  0.00  0.00    -0.020 A 
ATOM     24  N   LIG    1        1.385  -0.756  -0.109  0.00  0.00    -0.230 NA
BRANCH  23  25
ATOM     25  C   LIG    1        0.398   1.544  -0.280  0.00  0.00    +0.560 C 
ATOM     26  F   LIG    1       -0.285   2.051   0.830  0.00  0.00    -0.170 F 
ATOM     27  F   LIG    1       -0.210   2.006  -1.453  0.00  0.00    -0.170 F 
ATOM     28  F   LIG    1        1.729   1.974  -0.245  0.00  0.00    -0.170 F 
ENDBRANCH  23  25
ENDBRANCH   6  20
TORSDOF 3
