REMARK  Name = ZINCrD000000CILW.0
REMARK                            x       y       z     vdW  Elec       q    Type
REMARK                         _______ _______ _______ _____ _____    ______ ____
ROOT
ATOM      1  O   LIG    1        1.632  -8.089   0.229  0.00  0.00    -0.520 OA
ATOM      2  C   LIG    1        1.901  -7.245   1.062  0.00  0.00    +0.610 C 
ATOM      3  N   LIG    1        1.907  -5.941   0.721  0.00  0.00    -0.600 N 
ATOM      4  C   LIG    1        2.081  -4.901   1.744  0.00  0.00    +0.300 C 
ATOM      5  C   LIG    1        0.926  -3.900   1.633  0.00  0.00    +0.030 C 
ATOM      6  C   LIG    1        0.855  -3.367   0.200  0.00  0.00    +0.270 C 
ATOM      7  C   LIG    1        0.587  -4.525  -0.764  0.00  0.00    +0.030 C 
ATOM      8  C   LIG    1        1.738  -5.532  -0.680  0.00  0.00    +0.310 C 
ENDROOT
BRANCH   2   9
ATOM      9  C   LIG    1        2.222  -7.647   2.443  0.00  0.00    +0.010 A 
ATOM     10  N   LIG    1        2.647  -6.866   3.413  0.00  0.00    -0.200 NA
ATOM     11  N   LIG    1        2.834  -7.515   4.505  0.00  0.00    -0.410 N 
ATOM     12  H   LIG    1        3.143  -7.116   5.333  0.00  0.00    +0.450 HD
ATOM     13  C   LIG    1        2.546  -8.847   4.347  0.00  0.00    +0.060 A 
ATOM     14  C   LIG    1        2.581  -9.959   5.182  0.00  0.00    +0.050 A 
ATOM     15  C   LIG    1        2.216 -11.193   4.694  0.00  0.00    +0.040 A 
ATOM     16  C   LIG    1        1.811 -11.344   3.372  0.00  0.00    +0.090 A 
ATOM     17  C   LIG    1        1.770 -10.254   2.527  0.00  0.00    +0.070 A 
ATOM     18  F   LIG    1        1.457 -12.564   2.912  0.00  0.00    -0.130 F 
ATOM     19  C   LIG    1        2.136  -9.000   3.008  0.00  0.00    -0.080 A 
ENDBRANCH   2   9
BRANCH   6  20
ATOM     20  N   LIG    1       -0.228  -2.386   0.097  0.00  0.00    -0.350 N 
ATOM     21  C   LIG    1       -1.530  -2.660  -0.128  0.00  0.00    +0.260 A 
ATOM     22  C   LIG    1       -2.201  -1.486  -0.146  0.00  0.00    -0.070 A 
ATOM     23  C   LIG    1       -1.277  -0.458   0.066  0.00  0.00    -0.020 A 
ATOM     24  N   LIG    1       -0.094  -0.996   0.216  0.00  0.00    -0.240 NA
BRANCH  23  25
ATOM     25  C   LIG    1       -1.591   1.015   0.120  0.00  0.00    +0.560 C 
ATOM     26  F   LIG    1       -2.412   1.277   1.222  0.00  0.00    -0.170 F 
ATOM     27  F   LIG    1       -2.251   1.395  -1.054  0.00  0.00    -0.170 F 
ATOM     28  F   LIG    1       -0.401   1.741   0.242  0.00  0.00    -0.170 F 
ENDBRANCH  23  25
ENDBRANCH   6  20
TORSDOF 3
