REMARK  Name = ZINCpe000027pHed.0
REMARK                            x       y       z     vdW  Elec       q    Type
REMARK                         _______ _______ _______ _____ _____    ______ ____
ROOT
ATOM      1  C   LIG    1       -0.729   1.579   1.267  0.00  0.00    +0.250 C 
ENDROOT
BRANCH   1   3
ATOM      2  C   LIG    1        0.559   3.644   1.388  0.00  0.00    +0.550 C 
ATOM      3  N   LIG    1       -0.645   3.040   1.336  0.00  0.00    -0.720 N 
ATOM      4  H   LIG    1       -1.455   3.573   1.343  0.00  0.00    +0.410 HD
ATOM      5  O   LIG    1        1.575   2.976   1.378  0.00  0.00    -0.510 OA
BRANCH   2   7
ATOM      6  C   LIG    1        1.831   5.707   1.509  0.00  0.00    +0.140 C 
ATOM      7  C   LIG    1        0.643   5.111   1.457  0.00  0.00    -0.100 C 
ENDBRANCH   2   7
ENDBRANCH   1   3
BRANCH   1   8
ATOM      8  C   LIG    1       -0.074   0.981   2.485  0.00  0.00    +0.500 C 
ATOM      9  N   LIG    1       -0.365  -0.282   2.855  0.00  0.00    -0.620 N 
ATOM     10  C   LIG    1       -1.319  -1.073   2.073  0.00  0.00    +0.290 C 
ATOM     11  O   LIG    1        0.716   1.635   3.132  0.00  0.00    -0.500 OA
BRANCH   9  12
ATOM     12  C   LIG    1        0.272  -0.864   4.039  0.00  0.00    +0.370 C 
BRANCH  12  13
ATOM     13  C   LIG    1       -0.574  -0.581   5.254  0.00  0.00    +0.150 A 
ATOM     14  C   LIG    1       -1.155  -1.607   5.918  0.00  0.00    -0.070 A 
ATOM     15  C   LIG    1       -1.942  -1.351   7.050  0.00  0.00    +0.120 A 
ATOM     16  C   LIG    1       -2.111  -0.063   7.467  0.00  0.00    -0.090 A 
ATOM     17  C   LIG    1       -1.493   0.978   6.754  0.00  0.00    +0.510 A 
ATOM     18  O   LIG    1       -1.636   2.134   7.116  0.00  0.00    -0.550 OA
ATOM     19  N   LIG    1       -0.739   0.699   5.673  0.00  0.00    -0.600 N 
ATOM     20  H   LIG    1       -0.312   1.422   5.188  0.00  0.00    +0.420 HD
ENDBRANCH  12  13
ENDBRANCH   9  12
ENDBRANCH   1   8
BRANCH   1  21
ATOM     21  C   LIG    1       -0.013   1.086   0.008  0.00  0.00    +0.050 C 
BRANCH  21  22
ATOM     22  C   LIG    1       -0.753   1.593  -1.232  0.00  0.00    -0.010 C 
ATOM     23  C   LIG    1       -2.147   0.961  -1.290  0.00  0.00    +0.000 C 
ATOM     24  C   LIG    1       -2.849   1.410  -2.575  0.00  0.00    +0.200 C 
ATOM     25  O   LIG    1       -2.055   1.043  -3.705  0.00  0.00    -0.380 OA
ATOM     26  C   LIG    1       -0.758   1.644  -3.727  0.00  0.00    +0.210 C 
ATOM     27  C   LIG    1        0.028   1.202  -2.490  0.00  0.00    -0.010 C 
ENDBRANCH  21  22
ENDBRANCH   1  21
TORSDOF 7
