REMARK  Name = ZINCrg00000fSj7B.0
REMARK                            x       y       z     vdW  Elec       q    Type
REMARK                         _______ _______ _______ _____ _____    ______ ____
ROOT
ATOM      1  N   LIG    1        8.506   3.624  -0.776  0.00  0.00    -1.000 NA
ATOM      2  C   LIG    1        8.322   3.089   0.580  0.00  0.00    +0.300 C 
ATOM      3  C   LIG    1        7.183   2.064   0.555  0.00  0.00    +0.030 C 
ATOM      4  C   LIG    1        5.931   2.713  -0.040  0.00  0.00    +0.250 C 
ATOM      5  C   LIG    1        6.217   3.152  -1.478  0.00  0.00    +0.000 C 
ATOM      6  C   LIG    1        7.344   4.189  -1.476  0.00  0.00    +0.300 C 
ENDROOT
BRANCH   4   7
ATOM      7  N   LIG    1        4.831   1.746  -0.035  0.00  0.00    -0.720 N 
ATOM      8  H   LIG    1        5.021   0.795  -0.042  0.00  0.00    +0.400 HD
ATOM      9  C   LIG    1        3.554   2.178  -0.020  0.00  0.00    +0.510 C 
ATOM     10  O   LIG    1        3.316   3.367  -0.011  0.00  0.00    -0.530 OA
BRANCH   9  11
ATOM     11  C   LIG    1        2.422   1.183  -0.015  0.00  0.00    +0.300 C 
BRANCH  11  12
ATOM     12  N   LIG    1        1.143   1.898   0.001  0.00  0.00    -0.720 N 
ATOM     13  H   LIG    1        1.130   2.868   0.007  0.00  0.00    +0.410 HD
ATOM     14  C   LIG    1       -0.014   1.209   0.009  0.00  0.00    +0.550 C 
ATOM     15  O   LIG    1        0.002  -0.004   0.002  0.00  0.00    -0.540 OA
BRANCH  14  16
ATOM     16  C   LIG    1       -1.330   1.944   0.019  0.00  0.00    -0.060 C 
ATOM     17  C   LIG    1       -2.180   1.853   1.287  0.00  0.00    +0.060 C 
ATOM     18  C   LIG    1       -2.609   1.105   0.022  0.00  0.00    +0.000 C 
ATOM     19  C   LIG    1       -3.814   1.650  -0.747  0.00  0.00    +0.060 C 
ENDBRANCH  14  16
ENDBRANCH  11  12
ENDBRANCH   9  11
ENDBRANCH   4   7
BRANCH   1  20
ATOM     20  S   LIG    1        9.994   3.591  -1.501  0.00  0.00    +2.690 S 
ATOM     21  O   LIG    1       10.950   3.529  -0.452  0.00  0.00    -0.950 OA
ATOM     22  O   LIG    1        9.984   4.617  -2.485  0.00  0.00    -0.950 OA
BRANCH  20  27
ATOM     23  C   LIG    1       10.407  -1.633  -4.493  0.00  0.00    +0.090 C 
ATOM     24  C   LIG    1       10.304  -0.328  -3.746  0.00  0.00    -0.030 A 
ATOM     25  C   LIG    1        9.794   0.791  -4.377  0.00  0.00    -0.010 A 
ATOM     26  C   LIG    1        9.699   1.988  -3.691  0.00  0.00    +0.120 A 
ATOM     27  C   LIG    1       10.115   2.065  -2.375  0.00  0.00    -0.680 A 
ATOM     28  C   LIG    1       10.630   0.947  -1.746  0.00  0.00    +0.120 A 
ATOM     29  C   LIG    1       10.720  -0.251  -2.430  0.00  0.00    -0.010 A 
ENDBRANCH  20  27
ENDBRANCH   1  20
TORSDOF 6
