REMARK  Name = ZINCpk00000xPeZF.0
REMARK                            x       y       z     vdW  Elec       q    Type
REMARK                         _______ _______ _______ _____ _____    ______ ____
ROOT
ATOM      1  N   LIG    1       -3.179  -2.470   0.862  0.00  0.00    -0.610 N 
ATOM      2  C   LIG    1       -2.460  -2.911  -0.343  0.00  0.00    +0.320 C 
ATOM      3  C   LIG    1       -1.038  -2.343  -0.297  0.00  0.00    +0.210 C 
ATOM      4  N   LIG    1       -1.101  -0.887  -0.109  0.00  0.00    -0.470 N 
ATOM      5  C   LIG    1       -1.720  -0.542   1.177  0.00  0.00    +0.220 C 
ATOM      6  C   LIG    1       -3.171  -1.037   1.192  0.00  0.00    +0.310 C 
ENDROOT
BRANCH   1  11
ATOM      7  C   LIG    1       -6.403  -0.797   5.050  0.00  0.00    +0.200 C 
ATOM      8  C   LIG    1       -5.784  -1.883   4.208  0.00  0.00    +0.270 A 
ATOM      9  N   LIG    1       -4.977  -1.685   3.191  0.00  0.00    -0.340 NA
ATOM     10  N   LIG    1       -4.629  -2.944   2.692  0.00  0.00    -0.310 N 
ATOM     11  C   LIG    1       -3.845  -3.380   1.665  0.00  0.00    +0.420 A 
ATOM     12  C   LIG    1       -3.719  -4.719   1.436  0.00  0.00    +0.100 A 
ATOM     13  N   LIG    1       -4.352  -5.607   2.198  0.00  0.00    -0.370 NA
ATOM     14  C   LIG    1       -5.120  -5.229   3.194  0.00  0.00    +0.270 A 
ATOM     15  C   LIG    1       -5.284  -3.860   3.471  0.00  0.00    +0.280 A 
ATOM     16  N   LIG    1       -5.972  -3.184   4.381  0.00  0.00    -0.530 NA
ENDBRANCH   1  11
BRANCH   4  17
ATOM     17  C   LIG    1        0.156  -0.316  -0.224  0.00  0.00    +0.370 A 
ATOM     18  C   LIG    1        1.274  -1.110  -0.486  0.00  0.00    -0.140 A 
ATOM     19  C   LIG    1        2.506  -0.494  -0.593  0.00  0.00    +0.350 A 
ATOM     20  N   LIG    1        2.586   0.821  -0.443  0.00  0.00    -0.540 NA
ATOM     21  C   LIG    1        1.511   1.543  -0.197  0.00  0.00    +0.380 A 
ATOM     22  N   LIG    1        0.317   0.997  -0.087  0.00  0.00    -0.530 NA
BRANCH  21  23
ATOM     23  C   LIG    1        1.652   3.034  -0.035  0.00  0.00    +0.020 C 
ATOM     24  C   LIG    1        3.010   3.656  -0.366  0.00  0.00    +0.060 C 
ATOM     25  C   LIG    1        2.557   3.540   1.091  0.00  0.00    +0.050 C 
ENDBRANCH  21  23
ENDBRANCH   4  17
TORSDOF 3
