REMARK  Name = ZINCvU0000000Evb.0
REMARK                            x       y       z     vdW  Elec       q    Type
REMARK                         _______ _______ _______ _____ _____    ______ ____
ROOT
ATOM      1  C   LIG    1        7.607   5.073  -1.113  0.00  0.00    -0.160 C 
ATOM      2  C   LIG    1        8.616   5.857  -0.660  0.00  0.00    +0.250 C 
ATOM      3  C   LIG    1        9.839   5.093  -0.443  0.00  0.00    -0.110 C 
ATOM      4  C   LIG    1        9.554   3.653  -0.807  0.00  0.00    +0.090 C 
ATOM      5  C   LIG    1       11.014   5.583   0.004  0.00  0.00    +0.060 C 
ATOM      6  C   LIG    1        8.079   3.646  -1.243  0.00  0.00    +0.090 C 
ENDROOT
BRANCH   5   7
ATOM      7  C   LIG    1       12.207   4.722   0.032  0.00  0.00    -0.060 A 
ATOM      8  C   LIG    1       12.100   3.385   0.428  0.00  0.00    +0.020 A 
ATOM      9  C   LIG    1       13.222   2.583   0.446  0.00  0.00    +0.000 A 
ATOM     10  C   LIG    1       14.453   3.102   0.086  0.00  0.00    +0.000 A 
ATOM     11  C   LIG    1       14.569   4.425  -0.302  0.00  0.00    +0.000 A 
ATOM     12  C   LIG    1       13.455   5.238  -0.332  0.00  0.00    +0.010 A 
ENDBRANCH   5   7
BRANCH   2  13
ATOM     13  N   LIG    1        8.499   7.224  -0.430  0.00  0.00    -0.660 N 
ATOM     14  C   LIG    1        7.538   7.747   0.553  0.00  0.00    +0.250 C 
ATOM     15  C   LIG    1        8.285   8.715   1.485  0.00  0.00    +0.210 C 
ATOM     16  O   LIG    1        8.977   9.686   0.696  0.00  0.00    -0.380 OA
ATOM     17  C   LIG    1        9.984   9.136  -0.156  0.00  0.00    +0.190 C 
ATOM     18  C   LIG    1        9.328   8.190  -1.168  0.00  0.00    +0.260 C 
ENDBRANCH   2  13
BRANCH   1  20
ATOM     19  N   LIG    1        5.379   4.668  -1.752  0.00  0.00    -0.300 NA
ATOM     20  C   LIG    1        6.304   5.524  -1.414  0.00  0.00    +0.300 C 
BRANCH  19  21
ATOM     21  N   LIG    1        4.086   5.116  -2.051  0.00  0.00    -0.530 N 
ATOM     22  H   LIG    1        3.878   6.063  -2.006  0.00  0.00    +0.420 HD
BRANCH  21  24
ATOM     23  S   LIG    1        1.550   4.780  -2.765  0.00  0.00    -0.590 S 
ATOM     24  C   LIG    1        3.130   4.232  -2.400  0.00  0.00    +0.590 C 
BRANCH  24  25
ATOM     25  N   LIG    1        3.418   2.917  -2.461  0.00  0.00    -0.610 N 
ATOM     26  H   LIG    1        4.290   2.598  -2.180  0.00  0.00    +0.420 HD
BRANCH  25  27
ATOM     27  C   LIG    1        2.461   2.012  -2.930  0.00  0.00    +0.130 A 
ATOM     28  C   LIG    1        1.664   2.344  -4.018  0.00  0.00    +0.080 A 
ATOM     29  C   LIG    1        0.719   1.449  -4.480  0.00  0.00    +0.040 A 
ATOM     30  C   LIG    1        0.561   0.225  -3.856  0.00  0.00    +0.040 A 
ATOM     31  C   LIG    1        1.357  -0.112  -2.775  0.00  0.00    -0.030 A 
ATOM     32 CL   LIG    1        1.160  -1.652  -2.000  0.00  0.00    -0.060 Cl
ATOM     33  C   LIG    1        2.304   0.780  -2.309  0.00  0.00    +0.030 A 
ENDBRANCH  25  27
ENDBRANCH  24  25
ENDBRANCH  21  24
ENDBRANCH  19  21
ENDBRANCH   1  20
TORSDOF 7
