REMARK  Name = ZINCAx00000009Hd.0
REMARK                            x       y       z     vdW  Elec       q    Type
REMARK                         _______ _______ _______ _____ _____    ______ ____
ROOT
ATOM      1  N   LIG    1       -4.859   7.914   1.742  0.00  0.00    -0.520 N 
ATOM      2  H   LIG    1       -5.427   7.276   2.202  0.00  0.00    +0.430 HD
ATOM      3  C   LIG    1       -4.959   9.229   2.022  0.00  0.00    +0.500 C 
ATOM      4  O   LIG    1       -4.250  10.027   1.447  0.00  0.00    -0.520 OA
ENDROOT
BRANCH   1   6
ATOM      5  C   LIG    1       -3.837   6.155   0.506  0.00  0.00    +0.520 C 
ATOM      6  N   LIG    1       -3.937   7.470   0.786  0.00  0.00    -0.520 N 
ATOM      7  H   LIG    1       -3.369   8.108   0.326  0.00  0.00    +0.430 HD
ATOM      8  O   LIG    1       -4.546   5.357   1.081  0.00  0.00    -0.510 OA
BRANCH   5  10
ATOM      9  C   LIG    1       -3.160   6.320  -1.874  0.00  0.00    +0.060 C 
ATOM     10  C   LIG    1       -2.844   5.677  -0.523  0.00  0.00    +0.190 C 
BRANCH  10  11
ATOM     11  O   LIG    1       -2.928   4.255  -0.640  0.00  0.00    -0.280 OA
BRANCH  11  12
ATOM     12  C   LIG    1       -1.822   3.608  -1.093  0.00  0.00    +0.130 A 
ATOM     13  C   LIG    1       -1.808   2.243  -1.129  0.00  0.00    -0.010 A 
ATOM     14  C   LIG    1       -0.664   1.572  -1.591  0.00  0.00    -0.010 A 
ATOM     15  C   LIG    1       -0.611   0.169  -1.637  0.00  0.00    +0.020 A 
ATOM     16  C   LIG    1        0.513  -0.448  -2.097  0.00  0.00    +0.030 A 
ATOM     17  C   LIG    1        1.614   0.292  -2.523  0.00  0.00    -0.010 A 
ATOM     18  C   LIG    1        1.598   1.653  -2.492  0.00  0.00    +0.030 A 
ATOM     19  C   LIG    1        0.456   2.325  -2.025  0.00  0.00    -0.080 A 
ATOM     20  C   LIG    1        0.405   3.729  -1.980  0.00  0.00    +0.070 A 
ATOM     21  C   LIG    1       -0.716   4.348  -1.522  0.00  0.00    -0.070 A 
ENDBRANCH  11  12
ENDBRANCH  10  11
ENDBRANCH   5  10
ENDBRANCH   1   6
BRANCH   3  22
ATOM     22  C   LIG    1       -5.952   9.707   3.050  0.00  0.00    +0.360 C 
BRANCH  22  23
ATOM     23  N   LIG    1       -5.866  11.164   3.171  0.00  0.00    -0.600 N 
ATOM     24  C   LIG    1       -6.545  11.947   2.304  0.00  0.00    +0.580 C 
ATOM     25  C   LIG    1       -6.454  13.416   2.396  0.00  0.00    -0.170 A 
ATOM     26  C   LIG    1       -7.362  14.258   1.762  0.00  0.00    +0.110 A 
ATOM     27  C   LIG    1       -7.208  15.626   1.867  0.00  0.00    +0.000 A 
ATOM     28  C   LIG    1       -6.160  16.167   2.595  0.00  0.00    +0.080 A 
ATOM     29  C   LIG    1       -5.252  15.341   3.236  0.00  0.00    +0.000 A 
ATOM     30  C   LIG    1       -5.398  13.975   3.144  0.00  0.00    +0.200 A 
ATOM     31  N   LIG    1       -4.542  13.063   3.767  0.00  0.00    -0.560 N 
ATOM     32  C   LIG    1       -3.230  13.184   3.976  0.00  0.00    +0.530 C 
ATOM     33  C   LIG    1       -2.632  11.866   4.402  0.00  0.00    +0.090 C 
ATOM     34  C   LIG    1       -3.817  10.890   4.530  0.00  0.00    +0.060 C 
ATOM     35  O   LIG    1       -2.603  14.214   3.840  0.00  0.00    -0.500 OA
ATOM     36  O   LIG    1       -7.239  11.438   1.444  0.00  0.00    -0.520 OA
ATOM     37  C   LIG    1       -5.043  11.755   4.224  0.00  0.00    +0.380 C 
ATOM     38  C   LIG    1       -5.878  11.935   5.493  0.00  0.00    +0.070 C 
ENDBRANCH  22  23
ENDBRANCH   3  22
TORSDOF 6
