REMARK  Name = ZINCrD00000hQ7jx.0
REMARK                            x       y       z     vdW  Elec       q    Type
REMARK                         _______ _______ _______ _____ _____    ______ ____
ROOT
ATOM      1  C   LIG    1        4.507   0.809  -0.036  0.00  0.00    -0.010 A 
ATOM      2  C   LIG    1        3.803  -0.352  -0.036  0.00  0.00    -0.090 A 
ATOM      3  C   LIG    1        2.391   0.031  -0.021  0.00  0.00    -0.120 A 
ATOM      4  C   LIG    1        1.190  -0.680  -0.013  0.00  0.00    +0.080 A 
ATOM      5  C   LIG    1        0.002  -0.004   0.002  0.00  0.00    +0.000 A 
ATOM      6  C   LIG    1       -0.017   1.384   0.010  0.00  0.00    +0.060 A 
ATOM      7  C   LIG    1        1.158   2.104   0.002  0.00  0.00    +0.030 A 
ATOM      8  C   LIG    1        2.378   1.439  -0.013  0.00  0.00    +0.070 A 
ATOM      9  O   LIG    1        3.658   1.858  -0.023  0.00  0.00    -0.180 OA
ENDROOT
BRANCH   1  12
ATOM     10  N   LIG    1        6.567   2.118  -0.048  0.00  0.00    -0.710 N 
ATOM     11  H   LIG    1        6.027   2.924  -0.039  0.00  0.00    +0.410 HD
ATOM     12  C   LIG    1        5.974   0.908  -0.049  0.00  0.00    +0.600 C 
ATOM     13  O   LIG    1        6.652  -0.102  -0.060  0.00  0.00    -0.510 OA
BRANCH  10  14
ATOM     14  C   LIG    1        8.029   2.217  -0.060  0.00  0.00    +0.270 C 
BRANCH  14  15
ATOM     15  C   LIG    1        8.441   3.690  -0.056  0.00  0.00    +0.100 C 
BRANCH  15  16
ATOM     16  C   LIG    1        9.967   3.794  -0.070  0.00  0.00    +0.030 C 
ATOM     17  N   LIG    1       10.742   2.664  -0.589  0.00  0.00    -0.110 NA
ATOM     18  N   LIG    1       10.745   2.778   0.645  0.00  0.00    -0.120 NA
BRANCH  16  19
ATOM     19  C   LIG    1       10.548   5.203  -0.200  0.00  0.00    +0.120 C 
BRANCH  19  20
ATOM     20  C   LIG    1       12.076   5.127  -0.197  0.00  0.00    +0.160 C 
BRANCH  20  22
ATOM     21  C   LIG    1       13.081   7.564  -0.423  0.00  0.00    +0.030 C 
ATOM     22  C   LIG    1       12.636   6.483  -0.323  0.00  0.00    -0.200 C 
ENDBRANCH  20  22
ENDBRANCH  19  20
ENDBRANCH  16  19
ENDBRANCH  15  16
ENDBRANCH  14  15
ENDBRANCH  10  14
ENDBRANCH   1  12
BRANCH   2  23
ATOM     23  C   LIG    1        4.362  -1.751  -0.048  0.00  0.00    +0.430 C 
BRANCH  23  24
ATOM     24  N   LIG    1        4.530  -2.198  -1.433  0.00  0.00    -0.370 N 
ATOM     25  C   LIG    1        5.672  -2.657  -1.986  0.00  0.00    +0.240 A 
ATOM     26  C   LIG    1        5.410  -2.965  -3.278  0.00  0.00    -0.130 A 
ATOM     27  C   LIG    1        4.062  -2.684  -3.522  0.00  0.00    +0.220 A 
ATOM     28  N   LIG    1        3.532  -2.229  -2.416  0.00  0.00    -0.290 NA
ENDBRANCH  23  24
ENDBRANCH   2  23
TORSDOF 9
