REMARK  Name = ZINCvU00000007Va.0
REMARK                            x       y       z     vdW  Elec       q    Type
REMARK                         _______ _______ _______ _____ _____    ______ ____
ROOT
ATOM      1  N   LIG    1       -1.239   2.069   0.019  0.00  0.00    -0.470 N 
ATOM      2  C   LIG    1       -1.254   3.412   0.128  0.00  0.00    +0.570 A 
ATOM      3  C   LIG    1       -2.512   4.087   0.135  0.00  0.00    -0.230 A 
ATOM      4  C   LIG    1       -3.667   3.323   0.028  0.00  0.00    +0.090 A 
ATOM      5  S   LIG    1       -5.074   4.373   0.059  0.00  0.00    +0.200 S 
ATOM      6  C   LIG    1       -4.088   5.816   0.216  0.00  0.00    -0.200 A 
ATOM      7  C   LIG    1       -4.642   7.228   0.308  0.00  0.00    +0.120 C 
ATOM      8  C   LIG    1       -3.548   8.153   0.844  0.00  0.00    +0.020 C 
ATOM      9  C   LIG    1       -2.268   7.934   0.030  0.00  0.00    +0.020 C 
ATOM     10  C   LIG    1       -1.688   6.560   0.371  0.00  0.00    +0.110 C 
ATOM     11  N   LIG    1       -3.573   1.981  -0.079  0.00  0.00    -0.510 NA
ATOM     12  C   LIG    1       -2.789   5.515   0.242  0.00  0.00    -0.030 A 
ATOM     13  O   LIG    1       -0.213   4.039   0.220  0.00  0.00    -0.500 OA
ATOM     14  C   LIG    1       -2.410   1.374  -0.088  0.00  0.00    +0.360 A 
ENDROOT
BRANCH   1  19
ATOM     15  C   LIG    1        3.721  -0.690  -0.020  0.00  0.00    +0.110 C 
ATOM     16  C   LIG    1        2.403   0.041  -0.010  0.00  0.00    -0.050 A 
ATOM     17  C   LIG    1        1.846   0.476  -1.198  0.00  0.00    +0.050 A 
ATOM     18  C   LIG    1        0.638   1.147  -1.191  0.00  0.00    +0.060 A 
ATOM     19  C   LIG    1       -0.017   1.384   0.010  0.00  0.00    +0.100 A 
ATOM     20  C   LIG    1        0.544   0.946   1.202  0.00  0.00    +0.070 A 
ATOM     21  C   LIG    1        1.753   0.275   1.190  0.00  0.00    -0.030 A 
ATOM     22 CL   LIG    1        2.455  -0.273   2.679  0.00  0.00    -0.050 Cl
ENDBRANCH   1  19
BRANCH  14  23
ATOM     23  S   LIG    1       -2.358  -0.381  -0.236  0.00  0.00    +0.110 S 
BRANCH  23  24
ATOM     24  C   LIG    1       -4.129  -0.741  -0.339  0.00  0.00    +0.110 C 
BRANCH  24  25
ATOM     25  C   LIG    1       -4.333  -2.228  -0.474  0.00  0.00    +0.550 C 
ATOM     26  N   LIG    1       -5.579  -2.732  -0.568  0.00  0.00    -0.610 N 
ATOM     27  C   LIG    1       -6.824  -1.949  -0.545  0.00  0.00    +0.230 C 
ATOM     28  C   LIG    1       -7.995  -2.947  -0.656  0.00  0.00    +0.040 C 
ATOM     29  C   LIG    1       -7.366  -4.275  -0.157  0.00  0.00    +0.030 C 
ATOM     30  C   LIG    1       -5.921  -4.159  -0.704  0.00  0.00    +0.250 C 
ATOM     31  O   LIG    1       -3.375  -2.971  -0.499  0.00  0.00    -0.520 OA
ENDBRANCH  24  25
ENDBRANCH  23  24
ENDBRANCH  14  23
TORSDOF 4
