REMARK  Name = ZINCkj000005lmGz.0
REMARK                            x       y       z     vdW  Elec       q    Type
REMARK                         _______ _______ _______ _____ _____    ______ ____
ROOT
ATOM      1  S   LIG    1        1.059  -2.589  -0.150  0.00  0.00    +2.700 S 
ATOM      2  O   LIG    1        1.931  -1.854   0.698  0.00  0.00    -0.940 OA
ATOM      3  O   LIG    1       -0.176  -2.075  -0.627  0.00  0.00    -0.920 OA
ENDROOT
BRANCH   1   4
ATOM      4  C   LIG    1        0.680  -4.084   0.702  0.00  0.00    -0.680 A 
ATOM      5  C   LIG    1        1.210  -4.324   1.933  0.00  0.00    +0.150 A 
ATOM      6  C   LIG    1        0.919  -5.502   2.619  0.00  0.00    +0.010 A 
ATOM      7  C   LIG    1        0.099  -6.444   2.081  0.00  0.00    +0.130 A 
ATOM      8  C   LIG    1       -0.468  -6.233   0.812  0.00  0.00    +0.110 A 
ATOM      9  N   LIG    1       -1.277  -7.141   0.257  0.00  0.00    -0.460 NA
ATOM     10  C   LIG    1       -1.808  -6.949  -0.926  0.00  0.00    +0.310 A 
ATOM     11  C   LIG    1       -1.557  -5.794  -1.663  0.00  0.00    +0.010 A 
ATOM     12  C   LIG    1       -0.739  -4.825  -1.155  0.00  0.00    +0.050 A 
ATOM     13  C   LIG    1       -0.171  -5.035   0.116  0.00  0.00    -0.020 A 
ENDBRANCH   1   4
BRANCH   1  18
ATOM     14  C   LIG    1        3.398  -3.216  -1.521  0.00  0.00    +0.240 C 
ATOM     15  C   LIG    1        3.779  -3.550  -2.979  0.00  0.00    +0.040 C 
ATOM     16  C   LIG    1        2.602  -2.948  -3.792  0.00  0.00    +0.070 C 
ATOM     17  C   LIG    1        1.404  -3.212  -2.843  0.00  0.00    +0.280 C 
ATOM     18  N   LIG    1        1.944  -2.999  -1.488  0.00  0.00    -1.000 NA
BRANCH  14  19
ATOM     19  C   LIG    1        3.771  -4.381  -0.602  0.00  0.00    +0.240 C 
BRANCH  19  20
ATOM     20  N   LIG    1        5.233  -4.508  -0.542  0.00  0.00    -0.630 N 
ATOM     21  H   LIG    1        5.586  -4.763  -1.452  0.00  0.00    +0.440 HD
ATOM     22  H   LIG    1        5.481  -5.222   0.127  0.00  0.00    +0.440 HD
ATOM     23  H   LIG    1        5.636  -3.628  -0.260  0.00  0.00    +0.440 HD
ENDBRANCH  19  20
ENDBRANCH  14  19
ENDBRANCH   1  18
TORSDOF 4
