REMARK  Name = ZINCb70000001NS0.0
REMARK                            x       y       z     vdW  Elec       q    Type
REMARK                         _______ _______ _______ _____ _____    ______ ____
ROOT
ATOM      1  C   LIG    1       -1.330   1.944   0.019  0.00  0.00    -0.010 C 
ATOM      2  C   LIG    1       -2.481   0.934   0.019  0.00  0.00    +0.070 C 
ATOM      3  C   LIG    1       -3.810   1.690  -0.050  0.00  0.00    +0.060 C 
ATOM      4  C   LIG    1       -3.821   2.581  -1.294  0.00  0.00    +0.260 C 
ATOM      5  N   LIG    1       -2.713   3.542  -1.222  0.00  0.00    -0.500 N 
ATOM      6  H   LIG    1       -2.791   4.080  -0.372  0.00  0.00    +0.430 HD
ATOM      7  H   LIG    1       -2.755   4.162  -2.016  0.00  0.00    +0.440 HD
ATOM      8  C   LIG    1       -1.432   2.826  -1.228  0.00  0.00    +0.280 C 
ENDROOT
BRANCH   1  11
ATOM      9  N   LIG    1        1.143   1.898   0.001  0.00  0.00    -0.730 N 
ATOM     10  H   LIG    1        1.130   2.868   0.007  0.00  0.00    +0.400 HD
ATOM     11  C   LIG    1       -0.014   1.209   0.009  0.00  0.00    +0.510 C 
ATOM     12  O   LIG    1        0.002  -0.004   0.002  0.00  0.00    -0.510 OA
BRANCH   9  14
ATOM     13  C   LIG    1        3.571   2.193  -0.020  0.00  0.00    +0.030 C 
ATOM     14  C   LIG    1        2.422   1.183  -0.015  0.00  0.00    +0.260 C 
ENDBRANCH   9  14
ENDBRANCH   1  11
TORSDOF 2
