REMARK  Name = ZINCrg000000tzsI.0
REMARK                            x       y       z     vdW  Elec       q    Type
REMARK                         _______ _______ _______ _____ _____    ______ ____
ROOT
ATOM      1  O   LIG    1        1.767   2.338  -0.905  0.00  0.00    -0.500 OA
ATOM      2  C   LIG    1        1.397   1.617  -0.003  0.00  0.00    +0.500 C 
ATOM      3  N   LIG    1        2.248   1.292   0.991  0.00  0.00    -0.730 N 
ATOM      4  H   LIG    1        1.952   0.716   1.713  0.00  0.00    +0.400 HD
ENDROOT
BRANCH   2   5
ATOM      5  C   LIG    1       -0.013   1.086   0.008  0.00  0.00    +0.240 C 
ATOM      6  C   LIG    1       -0.756   1.594   1.262  0.00  0.00    +0.050 C 
ATOM      7  C   LIG    1       -1.545   2.819   0.722  0.00  0.00    +0.040 C 
ATOM      8  C   LIG    1       -1.915   2.349  -0.707  0.00  0.00    +0.270 C 
ATOM      9  N   LIG    1       -0.743   1.582  -1.167  0.00  0.00    -0.990 NA
BRANCH   9  10
ATOM     10  S   LIG    1       -0.319   1.325  -2.747  0.00  0.00    +2.710 S 
ATOM     11  O   LIG    1        1.077   1.058  -2.749  0.00  0.00    -0.920 OA
ATOM     12  O   LIG    1       -0.910   2.376  -3.498  0.00  0.00    -0.950 OA
BRANCH  10  13
ATOM     13  C   LIG    1       -1.110  -0.162  -3.264  0.00  0.00    -0.680 A 
ATOM     14  C   LIG    1       -0.467  -1.376  -3.113  0.00  0.00    +0.120 A 
ATOM     15  C   LIG    1       -1.090  -2.543  -3.514  0.00  0.00    -0.010 A 
ATOM     16  C   LIG    1       -2.352  -2.495  -4.075  0.00  0.00    +0.070 A 
ATOM     17  C   LIG    1       -2.994  -1.281  -4.231  0.00  0.00    -0.010 A 
ATOM     18  C   LIG    1       -2.373  -0.114  -3.825  0.00  0.00    +0.120 A 
ENDBRANCH  10  13
ENDBRANCH   9  10
ENDBRANCH   2   5
BRANCH   3  19
ATOM     19  C   LIG    1        3.619   1.809   0.981  0.00  0.00    +0.410 C 
BRANCH  19  20
ATOM     20  C   LIG    1        4.356   1.301   2.193  0.00  0.00    +0.150 A 
ATOM     21  N   LIG    1        5.051   0.195   2.273  0.00  0.00    -0.270 NA
ATOM     22  N   LIG    1        5.546   0.077   3.458  0.00  0.00    -0.290 NA
ATOM     23  C   LIG    1        5.190   1.096   4.179  0.00  0.00    +0.190 A 
ATOM     24  C   LIG    1        5.529   1.393   5.618  0.00  0.00    +0.160 C 
ATOM     25  C   LIG    1        5.221   2.872   5.887  0.00  0.00    +0.030 C 
ATOM     26  C   LIG    1        3.819   3.199   5.365  0.00  0.00    +0.040 C 
ATOM     27  C   LIG    1        3.818   3.157   3.833  0.00  0.00    +0.290 C 
ATOM     28  N   LIG    1        4.429   1.902   3.396  0.00  0.00    -0.460 N 
ENDBRANCH  19  20
ENDBRANCH   3  19
TORSDOF 5
