REMARK  Name = ZINCrD000000C7Jg.0
REMARK                            x       y       z     vdW  Elec       q    Type
REMARK                         _______ _______ _______ _____ _____    ______ ____
ROOT
ATOM      1  O   LIG    1        4.061  -5.588  -1.442  0.00  0.00    -0.490 OA
ATOM      2  C   LIG    1        3.933  -4.574  -0.784  0.00  0.00    +0.560 C 
ATOM      3  N   LIG    1        4.970  -4.102  -0.065  0.00  0.00    -0.670 N 
ATOM      4  H   LIG    1        4.893  -3.253   0.399  0.00  0.00    +0.410 HD
ENDROOT
BRANCH   2   5
ATOM      5  C   LIG    1        2.643  -3.861  -0.772  0.00  0.00    +0.070 A 
ATOM      6  C   LIG    1        1.613  -4.354  -1.504  0.00  0.00    +0.080 A 
ATOM      7  C   LIG    1        0.328  -3.654  -1.499  0.00  0.00    -0.020 A 
ATOM      8  C   LIG    1       -0.765  -4.117  -2.234  0.00  0.00    +0.030 A 
ATOM      9  C   LIG    1       -1.953  -3.421  -2.197  0.00  0.00    +0.050 A 
ATOM     10  C   LIG    1       -2.073  -2.265  -1.437  0.00  0.00    +0.020 A 
ATOM     11  C   LIG    1       -1.006  -1.789  -0.704  0.00  0.00    +0.090 A 
ATOM     12  C   LIG    1        0.204  -2.476  -0.726  0.00  0.00    -0.140 A 
ATOM     13  C   LIG    1        1.372  -2.012   0.037  0.00  0.00    +0.550 A 
ATOM     14  O   LIG    1        1.301  -1.002   0.713  0.00  0.00    -0.520 OA
ATOM     15  N   LIG    1        2.521  -2.713  -0.019  0.00  0.00    -0.630 N 
ATOM     16  H   LIG    1        3.287  -2.400   0.487  0.00  0.00    +0.410 HD
ENDBRANCH   2   5
BRANCH   3  17
ATOM     17  C   LIG    1        6.158  -4.835   0.013  0.00  0.00    +0.180 A 
ATOM     18  C   LIG    1        7.377  -4.176   0.105  0.00  0.00    -0.050 A 
ATOM     19  C   LIG    1        8.551  -4.901   0.183  0.00  0.00    +0.070 A 
ATOM     20  C   LIG    1        8.515  -6.282   0.169  0.00  0.00    -0.090 A 
ATOM     21  C   LIG    1        7.300  -6.946   0.077  0.00  0.00    +0.150 A 
ATOM     22  C   LIG    1        6.120  -6.223   0.005  0.00  0.00    -0.010 A 
BRANCH  21  23
ATOM     23  O   LIG    1        7.266  -8.305   0.065  0.00  0.00    -0.300 OA
BRANCH  23  24
ATOM     24  C   LIG    1        8.520  -8.985   0.148  0.00  0.00    +0.210 C 
BRANCH  24  25
ATOM     25  C   LIG    1        8.282 -10.497   0.120  0.00  0.00    +0.160 C 
ATOM     26  C   LIG    1        9.633 -11.239   0.091  0.00  0.00    +0.010 C 
ATOM     27  C   LIG    1        9.601 -12.134   1.354  0.00  0.00    +0.000 C 
ATOM     28  C   LIG    1        8.082 -12.223   1.650  0.00  0.00    +0.200 C 
ATOM     29  O   LIG    1        7.592 -10.906   1.312  0.00  0.00    -0.360 OA
ENDBRANCH  24  25
ENDBRANCH  23  24
ENDBRANCH  21  23
ENDBRANCH   3  17
TORSDOF 5
