REMARK  Name = ZINCtV00000L6jDv.0
REMARK                            x       y       z     vdW  Elec       q    Type
REMARK                         _______ _______ _______ _____ _____    ______ ____
ROOT
ATOM      1  C   LIG    1       -0.758   1.995  -1.146  0.00  0.00    +0.250 C 
ATOM      2  N   LIG    1       -0.018   1.472   0.010  0.00  0.00    -0.470 N 
ATOM      3  C   LIG    1        1.299   1.915  -0.000  0.00  0.00    +0.090 A 
ATOM      4  C   LIG    1        1.793   3.181   0.318  0.00  0.00    +0.030 A 
ATOM      5  C   LIG    1        3.163   3.370   0.223  0.00  0.00    +0.030 A 
ATOM      6  C   LIG    1        4.014   2.357  -0.168  0.00  0.00    -0.010 A 
ATOM      7  C   LIG    1        3.535   1.090  -0.487  0.00  0.00    +0.050 A 
ATOM      8  C   LIG    1        2.172   0.893  -0.394  0.00  0.00    -0.120 A 
ATOM      9  C   LIG    1        1.355  -0.342  -0.663  0.00  0.00    -0.070 C 
ATOM     10  C   LIG    1        1.181  -0.561  -2.167  0.00  0.00    +0.060 C 
ATOM     11  C   LIG    1        1.992  -1.568  -0.004  0.00  0.00    +0.060 C 
ATOM     12  C   LIG    1        0.002  -0.004   0.002  0.00  0.00    +0.320 C 
ATOM     13  C   LIG    1       -0.026  -0.539   1.404  0.00  0.00    +0.000 C 
ATOM     14  C   LIG    1       -0.521  -1.755   1.637  0.00  0.00    +0.040 C 
ATOM     15  C   LIG    1       -1.060  -2.520   0.497  0.00  0.00    -0.080 A 
ATOM     16  C   LIG    1       -1.314  -3.897   0.594  0.00  0.00    -0.060 A 
ATOM     17  C   LIG    1       -1.796  -4.597  -0.527  0.00  0.00    +0.030 A 
ATOM     18  O   LIG    1       -1.946  -5.888  -0.160  0.00  0.00    -0.180 OA
ATOM     19  C   LIG    1       -1.591  -6.067   1.123  0.00  0.00    +0.050 A 
ATOM     20  C   LIG    1       -1.615  -7.365   1.897  0.00  0.00    +0.150 C 
ATOM     21  C   LIG    1       -0.747  -7.202   3.149  0.00  0.00    +0.030 C 
ATOM     22  C   LIG    1       -1.155  -5.925   3.891  0.00  0.00    +0.030 C 
ATOM     23  C   LIG    1       -0.728  -4.703   3.069  0.00  0.00    +0.110 C 
ATOM     24  C   LIG    1       -2.019  -3.916  -1.717  0.00  0.00    +0.110 A 
ATOM     25  C   LIG    1       -1.774  -2.560  -1.806  0.00  0.00    -0.090 A 
ATOM     26 BR   LIG    1       -2.088  -1.655  -3.437  0.00  0.00    -0.010 Br
ATOM     27  C   LIG    1       -1.195  -4.895   1.650  0.00  0.00    -0.180 A 
ATOM     28  C   LIG    1       -1.301  -1.856  -0.709  0.00  0.00    +0.150 A 
ATOM     29  O   LIG    1       -1.066  -0.518  -0.782  0.00  0.00    -0.280 OA
ENDROOT
TORSDOF 0
