REMARK  Name = ZINCpk000000oYzN.0
REMARK                            x       y       z     vdW  Elec       q    Type
REMARK                         _______ _______ _______ _____ _____    ______ ____
ROOT
ATOM      1  C   LIG    1       -0.478   3.512   0.024  0.00  0.00    +0.200 A 
ATOM      2  N   LIG    1       -1.014   2.317   0.019  0.00  0.00    -0.440 NA
ATOM      3  C   LIG    1       -0.017   1.391   0.010  0.00  0.00    +0.010 A 
ATOM      4  C   LIG    1        0.002  -0.004   0.002  0.00  0.00    +0.210 A 
ATOM      5  C   LIG    1        1.208  -0.671  -0.013  0.00  0.00    -0.680 A 
ATOM      6  C   LIG    1        2.400   0.035  -0.020  0.00  0.00    +0.150 A 
ATOM      7  C   LIG    1        2.395   1.416  -0.013  0.00  0.00    +0.050 A 
ATOM      8  C   LIG    1        1.193   2.103   0.002  0.00  0.00    +0.060 A 
ATOM      9  O   LIG    1        0.864   3.415   0.011  0.00  0.00    -0.210 OA
ENDROOT
BRANCH   5  10
ATOM     10  S   LIG    1        1.234  -2.433  -0.023  0.00  0.00    +2.700 S 
ATOM     11  O   LIG    1       -0.004  -2.856   0.531  0.00  0.00    -0.950 OA
ATOM     12  O   LIG    1        2.495  -2.818   0.508  0.00  0.00    -0.940 OA
BRANCH  10  13
ATOM     13  N   LIG    1        1.226  -2.915  -1.607  0.00  0.00    -1.000 NA
ATOM     14  C   LIG    1       -0.046  -3.147  -2.296  0.00  0.00    +0.310 C 
ATOM     15  C   LIG    1        2.491  -3.109  -2.320  0.00  0.00    +0.300 C 
ENDBRANCH  10  13
ENDBRANCH   5  10
BRANCH   1  16
ATOM     16  S   LIG    1       -1.381   5.024   0.040  0.00  0.00    +0.180 S 
BRANCH  16  17
ATOM     17  C   LIG    1       -0.012   6.208   0.034  0.00  0.00    +0.100 C 
BRANCH  17  21
ATOM     18  C   LIG    1       -0.211   9.919   0.054  0.00  0.00    +0.640 C 
ATOM     19  N   LIG    1        0.280   8.665   0.044  0.00  0.00    -0.660 N 
ATOM     20  H   LIG    1        1.239   8.519   0.035  0.00  0.00    +0.420 HD
ATOM     21  C   LIG    1       -0.561   7.612   0.046  0.00  0.00    +0.540 C 
ATOM     22  O   LIG    1       -1.760   7.793   0.058  0.00  0.00    -0.440 OA
ATOM     23  O   LIG    1       -1.412  10.102   0.066  0.00  0.00    -0.500 OA
BRANCH  18  24
ATOM     24  O   LIG    1        0.629  10.971   0.052  0.00  0.00    -0.360 OA
BRANCH  24  26
ATOM     25  C   LIG    1        1.133  13.353   0.060  0.00  0.00    +0.080 C 
ATOM     26  C   LIG    1        0.030  12.293   0.065  0.00  0.00    +0.240 C 
ENDBRANCH  24  26
ENDBRANCH  18  24
ENDBRANCH  17  21
ENDBRANCH  16  17
ENDBRANCH   1  16
TORSDOF 7
