REMARK  Name = ZINCvU00000009UF.0
REMARK                            x       y       z     vdW  Elec       q    Type
REMARK                         _______ _______ _______ _____ _____    ______ ____
ROOT
ATOM      1  N   LIG    1        7.173   1.302   0.256  0.00  0.00    -0.590 N 
ATOM      2  C   LIG    1        7.599   0.865   1.457  0.00  0.00    +0.530 C 
ATOM      3  O   LIG    1        7.052   1.246   2.470  0.00  0.00    -0.510 OA
ENDROOT
BRANCH   1   4
ATOM      4  C   LIG    1        6.049   2.238   0.174  0.00  0.00    +0.340 C 
BRANCH   4   6
ATOM      5  O   LIG    1        4.778   0.253   0.062  0.00  0.00    -0.500 OA
ATOM      6  C   LIG    1        4.760   1.466   0.068  0.00  0.00    +0.500 C 
ATOM      7  N   LIG    1        3.586   2.122  -0.020  0.00  0.00    -0.670 N 
ATOM      8  H   LIG    1        3.576   3.089  -0.096  0.00  0.00    +0.410 HD
BRANCH   7   9
ATOM      9  C   LIG    1        2.382   1.409  -0.002  0.00  0.00    +0.180 A 
ATOM     10  C   LIG    1        2.322   0.160   0.600  0.00  0.00    +0.020 A 
ATOM     11  C   LIG    1        1.132  -0.542   0.617  0.00  0.00    +0.050 A 
ATOM     12  C   LIG    1        0.001  -0.001   0.035  0.00  0.00    +0.000 A 
ATOM     13  C   LIG    1        0.056   1.243  -0.566  0.00  0.00    +0.070 A 
ATOM     14  C   LIG    1        1.243   1.950  -0.586  0.00  0.00    -0.130 A 
ATOM     15 BR   LIG    1        1.317   3.652  -1.407  0.00  0.00    -0.050 Br
ENDBRANCH   7   9
ENDBRANCH   4   6
ENDBRANCH   1   4
BRANCH   2  16
ATOM     16  C   LIG    1        8.756  -0.097   1.542  0.00  0.00    +0.110 C 
BRANCH  16  17
ATOM     17  C   LIG    1        9.031  -0.427   2.987  0.00  0.00    -0.070 A 
ATOM     18  C   LIG    1        9.922   0.340   3.713  0.00  0.00    +0.060 A 
ATOM     19  C   LIG    1       10.171   0.040   5.040  0.00  0.00    +0.020 A 
ATOM     20  C   LIG    1        9.535  -1.032   5.637  0.00  0.00    +0.070 A 
ATOM     21  C   LIG    1        8.647  -1.802   4.909  0.00  0.00    -0.180 A 
ATOM     22  C   LIG    1        8.395  -1.500   3.584  0.00  0.00    +0.080 A 
BRANCH  21  23
ATOM     23  C   LIG    1        7.953  -2.971   5.560  0.00  0.00    +0.510 C 
ATOM     24  F   LIG    1        6.700  -3.159   4.966  0.00  0.00    -0.180 F 
ATOM     25  F   LIG    1        7.788  -2.713   6.925  0.00  0.00    -0.180 F 
ATOM     26  F   LIG    1        8.727  -4.124   5.393  0.00  0.00    -0.180 F 
ENDBRANCH  21  23
ENDBRANCH  16  17
ENDBRANCH   2  16
BRANCH   1  27
ATOM     27  C   LIG    1        7.835   0.843  -0.968  0.00  0.00    +0.410 C 
BRANCH  27  28
ATOM     28  C   LIG    1        8.966   1.778  -1.310  0.00  0.00    -0.040 A 
ATOM     29  C   LIG    1       10.237   1.663  -0.887  0.00  0.00    -0.040 A 
ATOM     30  C   LIG    1       10.954   2.746  -1.446  0.00  0.00    -0.060 A 
ATOM     31  C   LIG    1       10.076   3.463  -2.170  0.00  0.00    +0.180 A 
ATOM     32  O   LIG    1        8.873   2.872  -2.084  0.00  0.00    -0.170 OA
ENDBRANCH  27  28
ENDBRANCH   1  27
TORSDOF 8
