REMARK  Name = ZINCqH0000008fZS.0
REMARK                            x       y       z     vdW  Elec       q    Type
REMARK                         _______ _______ _______ _____ _____    ______ ____
ROOT
ATOM      1  N   LIG    1       -1.186   1.856  -0.142  0.00  0.00    -0.740 N 
ATOM      2  H   LIG    1       -1.213   2.817  -0.014  0.00  0.00    +0.400 HD
ATOM      3  C   LIG    1       -0.003   1.210  -0.157  0.00  0.00    +0.700 C 
ATOM      4  N   LIG    1        1.143   1.901   0.001  0.00  0.00    -0.690 N 
ATOM      5  H   LIG    1        1.123   2.870   0.053  0.00  0.00    +0.410 HD
ATOM      6  O   LIG    1        0.031   0.006  -0.318  0.00  0.00    -0.570 OA
ENDROOT
BRANCH   4   7
ATOM      7  C   LIG    1        2.363   1.222   0.092  0.00  0.00    +0.170 A 
ATOM      8  C   LIG    1        2.421  -0.027   0.695  0.00  0.00    +0.030 A 
ATOM      9  C   LIG    1        3.626  -0.698   0.778  0.00  0.00    +0.030 A 
ATOM     10  C   LIG    1        4.775  -0.122   0.271  0.00  0.00    +0.000 A 
ATOM     11  C   LIG    1        4.723   1.124  -0.326  0.00  0.00    -0.090 A 
ATOM     12  C   LIG    1        3.520   1.798  -0.417  0.00  0.00    +0.000 A 
BRANCH  11  13
ATOM     13  C   LIG    1        5.978   1.748  -0.878  0.00  0.00    +0.350 C 
BRANCH  13  14
ATOM     14  N   LIG    1        6.626   2.547   0.165  0.00  0.00    -0.620 N 
ATOM     15  C   LIG    1        7.628   2.027   1.103  0.00  0.00    +0.250 C 
ATOM     16  C   LIG    1        7.691   3.058   2.252  0.00  0.00    +0.040 C 
ATOM     17  C   LIG    1        7.216   4.348   1.545  0.00  0.00    +0.040 C 
ATOM     18  C   LIG    1        6.384   3.851   0.383  0.00  0.00    +0.520 C 
ATOM     19  O   LIG    1        5.609   4.529  -0.257  0.00  0.00    -0.530 OA
ENDBRANCH  13  14
ENDBRANCH  11  13
ENDBRANCH   4   7
BRANCH   1  20
ATOM     20  C   LIG    1       -2.432   1.105  -0.320  0.00  0.00    +0.290 C 
BRANCH  20  22
ATOM     21  C   LIG    1       -3.712   2.680   1.136  0.00  0.00    +0.030 C 
ATOM     22  C   LIG    1       -3.619   2.068  -0.263  0.00  0.00    +0.030 C 
BRANCH  22  23
ATOM     23  C   LIG    1       -4.890   1.317  -0.568  0.00  0.00    -0.080 A 
ATOM     24  C   LIG    1       -5.275   0.257   0.231  0.00  0.00    +0.010 A 
ATOM     25  C   LIG    1       -6.442  -0.430  -0.046  0.00  0.00    +0.000 A 
ATOM     26  C   LIG    1       -7.221  -0.061  -1.127  0.00  0.00    +0.000 A 
ATOM     27  C   LIG    1       -6.833   0.996  -1.929  0.00  0.00    +0.000 A 
ATOM     28  C   LIG    1       -5.668   1.685  -1.650  0.00  0.00    +0.010 A 
ENDBRANCH  22  23
ENDBRANCH  20  22
ENDBRANCH   1  20
TORSDOF 6
