REMARK  Name = ZINCkj00000y7F4o.0
REMARK                            x       y       z     vdW  Elec       q    Type
REMARK                         _______ _______ _______ _____ _____    ______ ____
ROOT
ATOM      1  N   LIG    1        4.797   3.098  -0.773  0.00  0.00    -0.730 N 
ATOM      2  H   LIG    1        4.473   3.679  -0.067  0.00  0.00    +0.410 HD
ATOM      3  C   LIG    1        4.906   1.772  -0.557  0.00  0.00    +0.500 C 
ATOM      4  O   LIG    1        5.311   1.046  -1.440  0.00  0.00    -0.500 OA
ENDROOT
BRANCH   1   5
ATOM      5  C   LIG    1        5.167   3.662  -2.073  0.00  0.00    +0.160 C 
ATOM      6  C   LIG    1        4.304   3.031  -3.167  0.00  0.00    +0.050 C 
ATOM      7  C   LIG    1        6.642   3.369  -2.355  0.00  0.00    +0.080 C 
BRANCH   5   8
ATOM      8  C   LIG    1        4.942   5.176  -2.055  0.00  0.00    +0.280 C 
BRANCH   8   9
ATOM      9  N   LIG    1        3.501   5.456  -2.015  0.00  0.00    -0.390 N 
ATOM     10  C   LIG    1        2.942   4.962  -0.750  0.00  0.00    +0.320 C 
ATOM     11  H   LIG    1        3.046   4.992  -2.787  0.00  0.00    +0.420 HD
BRANCH   9  12
ATOM     12  C   LIG    1        3.281   6.905  -2.115  0.00  0.00    +0.250 C 
BRANCH  12  14
ATOM     13  C   LIG    1        1.551   8.697  -2.302  0.00  0.00    +0.060 C 
ATOM     14  C   LIG    1        1.780   7.188  -2.198  0.00  0.00    +0.030 C 
ENDBRANCH  12  14
ENDBRANCH   9  12
ENDBRANCH   8   9
ENDBRANCH   5   8
ENDBRANCH   1   5
BRANCH   3  15
ATOM     15  C   LIG    1        4.525   1.192   0.780  0.00  0.00    +0.300 C 
BRANCH  15  16
ATOM     16  C   LIG    1        3.047   1.381   1.007  0.00  0.00    +0.080 A 
ATOM     17  C   LIG    1        2.255   0.286   1.295  0.00  0.00    +0.000 A 
ATOM     18  C   LIG    1        0.896   0.469   1.497  0.00  0.00    +0.090 A 
ATOM     19  C   LIG    1        0.384   1.755   1.411  0.00  0.00    -0.020 A 
ATOM     20  C   LIG    1        1.238   2.802   1.120  0.00  0.00    +0.250 A 
ATOM     21  N   LIG    1        2.525   2.589   0.929  0.00  0.00    -0.500 NA
ENDBRANCH  15  16
BRANCH  15  22
ATOM     22  O   LIG    1        4.836  -0.202   0.801  0.00  0.00    -0.520 OA
ATOM     23  H   LIG    1        4.375  -0.718   0.125  0.00  0.00    +0.390 HD
ENDBRANCH  15  22
ENDBRANCH   3  15
TORSDOF 8
