REMARK  Name = ZINCkj00000y7F4o.1
REMARK                            x       y       z     vdW  Elec       q    Type
REMARK                         _______ _______ _______ _____ _____    ______ ____
ROOT
ATOM      1  N   LIG    1        3.429   3.124  -1.494  0.00  0.00    -0.730 N 
ATOM      2  H   LIG    1        3.197   3.658  -0.718  0.00  0.00    +0.410 HD
ATOM      3  C   LIG    1        3.013   1.845  -1.580  0.00  0.00    +0.500 C 
ATOM      4  O   LIG    1        3.302   1.177  -2.550  0.00  0.00    -0.500 OA
ENDROOT
BRANCH   1   5
ATOM      5  C   LIG    1        4.232   3.707  -2.571  0.00  0.00    +0.160 C 
ATOM      6  C   LIG    1        3.391   3.789  -3.847  0.00  0.00    +0.080 C 
ATOM      7  C   LIG    1        5.460   2.830  -2.825  0.00  0.00    +0.050 C 
BRANCH   5   8
ATOM      8  C   LIG    1        4.684   5.112  -2.167  0.00  0.00    +0.280 C 
BRANCH   8   9
ATOM      9  N   LIG    1        5.632   5.019  -1.049  0.00  0.00    -0.390 N 
ATOM     10  C   LIG    1        4.931   4.536   0.148  0.00  0.00    +0.310 C 
ATOM     11  H   LIG    1        6.372   4.376  -1.289  0.00  0.00    +0.420 HD
BRANCH   9  12
ATOM     12  C   LIG    1        6.203   6.346  -0.781  0.00  0.00    +0.250 C 
BRANCH  12  14
ATOM     13  C   LIG    1        7.877   7.609   0.579  0.00  0.00    +0.060 C 
ATOM     14  C   LIG    1        7.281   6.227   0.299  0.00  0.00    +0.030 C 
ENDBRANCH  12  14
ENDBRANCH   9  12
ENDBRANCH   8   9
ENDBRANCH   5   8
ENDBRANCH   1   5
BRANCH   3  15
ATOM     15  C   LIG    1        2.187   1.245  -0.472  0.00  0.00    +0.290 C 
BRANCH  15  16
ATOM     16  C   LIG    1        0.860   1.955  -0.393  0.00  0.00    +0.080 A 
ATOM     17  C   LIG    1       -0.311   1.225  -0.468  0.00  0.00    +0.000 A 
ATOM     18  C   LIG    1       -1.527   1.889  -0.400  0.00  0.00    +0.080 A 
ATOM     19  C   LIG    1       -1.519   3.267  -0.248  0.00  0.00    -0.020 A 
ATOM     20  C   LIG    1       -0.308   3.929  -0.180  0.00  0.00    +0.260 A 
ATOM     21  N   LIG    1        0.829   3.266  -0.253  0.00  0.00    -0.490 NA
ENDBRANCH  15  16
BRANCH  15  22
ATOM     22  O   LIG    1        1.969  -0.142  -0.737  0.00  0.00    -0.520 OA
ATOM     23  H   LIG    1        1.503  -0.316  -1.567  0.00  0.00    +0.390 HD
ENDBRANCH  15  22
ENDBRANCH   3  15
TORSDOF 8
