REMARK  Name = ZINCqH0000004OJS.0
REMARK                            x       y       z     vdW  Elec       q    Type
REMARK                         _______ _______ _______ _____ _____    ______ ____
ROOT
ATOM      1  N   LIG    1       -0.436  -2.496  -0.003  0.00  0.00    -0.650 N 
ATOM      2  H   LIG    1       -1.069  -3.231   0.001  0.00  0.00    +0.410 HD
ATOM      3  C   LIG    1        0.888  -2.747  -0.021  0.00  0.00    +0.710 C 
ATOM      4  N   LIG    1        1.335  -4.015   0.069  0.00  0.00    -0.620 N 
ATOM      5  C   LIG    1        2.774  -4.297   0.158  0.00  0.00    +0.300 C 
ATOM      6  C   LIG    1        3.155  -5.294  -0.935  0.00  0.00    +0.010 C 
ATOM      7  C   LIG    1        2.263  -6.533  -0.825  0.00  0.00    +0.000 C 
ATOM      8  C   LIG    1        0.800  -6.130  -1.024  0.00  0.00    +0.020 C 
ATOM      9  C   LIG    1        0.392  -5.143   0.073  0.00  0.00    +0.260 C 
ATOM     10  O   LIG    1        1.679  -1.829  -0.120  0.00  0.00    -0.580 OA
ENDROOT
BRANCH   1  16
ATOM     11  C   LIG    1       -2.244  -0.761   0.033  0.00  0.00    +0.060 A 
ATOM     12  N   LIG    1       -2.279   0.546   0.042  0.00  0.00    -0.280 NA
ATOM     13  N   LIG    1       -0.962   1.023   0.028  0.00  0.00    -0.380 N 
ATOM     14  C   LIG    1       -0.130  -0.050   0.010  0.00  0.00    +0.250 A 
ATOM     15  C   LIG    1       -0.554   2.430   0.038  0.00  0.00    +0.370 C 
ATOM     16  C   LIG    1       -0.901  -1.167   0.012  0.00  0.00    +0.010 A 
BRANCH  11  18
ATOM     17  C   LIG    1       -3.828  -1.996   1.487  0.00  0.00    +0.020 C 
ATOM     18  C   LIG    1       -3.441  -1.676   0.041  0.00  0.00    +0.120 C 
ENDBRANCH  11  18
ENDBRANCH   1  16
BRANCH   7  19
ATOM     19  C   LIG    1        2.664  -7.546  -1.899  0.00  0.00    +0.080 C 
BRANCH  19  20
ATOM     20  C   LIG    1        4.064  -8.036  -1.631  0.00  0.00    -0.020 A 
ATOM     21  C   LIG    1        5.144  -7.376  -2.186  0.00  0.00    -0.020 A 
ATOM     22  C   LIG    1        6.431  -7.821  -1.936  0.00  0.00    +0.140 A 
ATOM     23  C   LIG    1        6.635  -8.934  -1.139  0.00  0.00    -0.050 A 
ATOM     24  C   LIG    1        5.552  -9.598  -0.588  0.00  0.00    +0.140 A 
ATOM     25  F   LIG    1        5.750 -10.684   0.190  0.00  0.00    -0.130 F 
ATOM     26  F   LIG    1        7.487  -7.172  -2.473  0.00  0.00    -0.130 F 
ATOM     27  C   LIG    1        4.266  -9.147  -0.835  0.00  0.00    -0.020 A 
ENDBRANCH  19  20
ENDBRANCH   7  19
TORSDOF 4
