REMARK  Name = ZINCbw00000004IC.0
REMARK                            x       y       z     vdW  Elec       q    Type
REMARK                         _______ _______ _______ _____ _____    ______ ____
ROOT
ATOM      1  C   LIG    1       -0.080   6.032   0.034  0.00  0.00    +0.090 C 
ATOM      2  C   LIG    1       -0.059   4.525   0.026  0.00  0.00    -0.090 A 
ATOM      3  C   LIG    1        1.149   3.851   0.011  0.00  0.00    +0.030 A 
ATOM      4  C   LIG    1        1.171   2.471   0.004  0.00  0.00    +0.040 A 
ATOM      5  C   LIG    1       -0.022   1.758   0.012  0.00  0.00    -0.100 A 
ATOM      6  C   LIG    1       -1.234   2.438   0.021  0.00  0.00    +0.000 A 
ATOM      7  C   LIG    1       -1.248   3.819   0.034  0.00  0.00    +0.030 A 
ENDROOT
BRANCH   5   8
ATOM      8  S   LIG    1        0.002  -0.004   0.002  0.00  0.00    -0.070 S 
BRANCH   8   9
ATOM      9  C   LIG    1       -1.760  -0.436   0.017  0.00  0.00    +0.240 C 
BRANCH   9  10
ATOM     10  C   LIG    1       -1.906  -1.901   0.010  0.00  0.00    +0.210 C 
ATOM     11  N   LIG    1       -2.018  -3.031   0.005  0.00  0.00    -0.390 NA
ENDBRANCH   9  10
ENDBRANCH   8   9
ENDBRANCH   5   8
TORSDOF 3
