REMARK  Name = ZINCqH0000005izJ.0
REMARK                            x       y       z     vdW  Elec       q    Type
REMARK                         _______ _______ _______ _____ _____    ______ ____
ROOT
ATOM      1  C   LIG    1        2.396  -4.516   1.294  0.00  0.00    +0.130 A 
ATOM      2  N   LIG    1        1.413  -5.180   0.730  0.00  0.00    -0.240 NA
ATOM      3  N   LIG    1        1.616  -6.447   0.829  0.00  0.00    -0.240 NA
ATOM      4  C   LIG    1        2.751  -6.667   1.467  0.00  0.00    +0.210 A 
ATOM      5  C   LIG    1        3.443  -7.837   1.842  0.00  0.00    +0.010 A 
ATOM      6  C   LIG    1        4.623  -7.726   2.510  0.00  0.00    +0.120 A 
ATOM      7  C   LIG    1        5.136  -6.452   2.817  0.00  0.00    -0.190 A 
ATOM      8  C   LIG    1        4.467  -5.340   2.453  0.00  0.00    +0.340 A 
ATOM      9 CL   LIG    1        2.797  -9.401   1.456  0.00  0.00    +0.010 Cl
ATOM     10  N   LIG    1        3.282  -5.433   1.776  0.00  0.00    -0.380 N 
ENDROOT
BRANCH   7  11
ATOM     11  C   LIG    1        6.444  -6.330   3.557  0.00  0.00    +0.530 C 
ATOM     12  F   LIG    1        7.032  -5.095   3.265  0.00  0.00    -0.170 F 
ATOM     13  F   LIG    1        7.302  -7.361   3.159  0.00  0.00    -0.160 F 
ATOM     14  F   LIG    1        6.210  -6.422   4.933  0.00  0.00    -0.160 F 
ENDBRANCH   7  11
BRANCH   1  15
ATOM     15  S   LIG    1        2.545  -2.763   1.402  0.00  0.00    +0.100 S 
BRANCH  15  16
ATOM     16  C   LIG    1        1.048  -2.174   0.564  0.00  0.00    +0.110 C 
BRANCH  16  19
ATOM     17  C   LIG    1       -1.093  -0.748  -0.626  0.00  0.00    +0.300 C 
ATOM     18  N   LIG    1        0.002  -0.004   0.002  0.00  0.00    -0.610 N 
ATOM     19  C   LIG    1        1.028  -0.667   0.572  0.00  0.00    +0.540 C 
ATOM     20  O   LIG    1        1.934  -0.051   1.092  0.00  0.00    -0.520 OA
BRANCH  18  21
ATOM     21  C   LIG    1       -0.018   1.461   0.010  0.00  0.00    +0.420 C 
BRANCH  21  22
ATOM     22  C   LIG    1       -0.723   1.947   1.250  0.00  0.00    -0.050 A 
ATOM     23  C   LIG    1       -0.142   2.205   2.435  0.00  0.00    -0.030 A 
ATOM     24  C   LIG    1       -1.167   2.637   3.308  0.00  0.00    -0.070 A 
ATOM     25  C   LIG    1       -2.314   2.608   2.607  0.00  0.00    +0.170 A 
ATOM     26  O   LIG    1       -2.039   2.190   1.361  0.00  0.00    -0.180 OA
ENDBRANCH  21  22
ENDBRANCH  18  21
ENDBRANCH  16  19
ENDBRANCH  15  16
ENDBRANCH   1  15
TORSDOF 6
