REMARK  Name = ZINCrH000004tIrU.0
REMARK                            x       y       z     vdW  Elec       q    Type
REMARK                         _______ _______ _______ _____ _____    ______ ____
ROOT
ATOM      1  O   LIG    1        6.863   7.912   1.096  0.00  0.00    -0.510 OA
ATOM      2  C   LIG    1        6.180   7.061   0.565  0.00  0.00    +0.520 C 
ATOM      3  N   LIG    1        5.007   7.398  -0.007  0.00  0.00    -0.670 N 
ATOM      4  H   LIG    1        4.494   6.732  -0.489  0.00  0.00    +0.420 HD
ENDROOT
BRANCH   3   5
ATOM      5  C   LIG    1        4.531   8.710   0.095  0.00  0.00    +0.120 A 
ATOM      6  C   LIG    1        3.167   8.948   0.200  0.00  0.00    +0.050 A 
ATOM      7  C   LIG    1        2.700  10.244   0.305  0.00  0.00    +0.020 A 
ATOM      8  C   LIG    1        3.588  11.303   0.297  0.00  0.00    +0.110 A 
ATOM      9  C   LIG    1        4.947  11.070   0.187  0.00  0.00    -0.660 A 
ATOM     10  C   LIG    1        5.420   9.776   0.087  0.00  0.00    +0.140 A 
BRANCH   9  11
ATOM     11  S   LIG    1        6.075  12.423   0.177  0.00  0.00    +2.710 S 
ATOM     12  O   LIG    1        7.326  11.906   0.608  0.00  0.00    -0.940 OA
ATOM     13  O   LIG    1        5.414  13.501   0.827  0.00  0.00    -0.950 OA
BRANCH  11  14
ATOM     14  N   LIG    1        6.276  12.882  -1.401  0.00  0.00    -1.010 NA
ATOM     15  C   LIG    1        7.298  12.361  -2.321  0.00  0.00    +0.260 C 
ATOM     16  C   LIG    1        7.118  13.092  -3.668  0.00  0.00    +0.030 C 
ATOM     17  C   LIG    1        6.378  14.393  -3.258  0.00  0.00    +0.040 C 
ATOM     18  C   LIG    1        5.464  13.884  -2.115  0.00  0.00    +0.270 C 
ENDBRANCH  11  14
ENDBRANCH   9  11
ENDBRANCH   3   5
BRANCH   2  19
ATOM     19  C   LIG    1        6.644   5.627   0.546  0.00  0.00    +0.100 C 
BRANCH  19  20
ATOM     20  C   LIG    1        7.994   5.518   1.257  0.00  0.00    +0.100 C 
BRANCH  20  21
ATOM     21  S   LIG    1        8.552   3.792   1.233  0.00  0.00    -0.090 S 
BRANCH  21  22
ATOM     22  C   LIG    1       10.094   3.862   2.082  0.00  0.00    -0.120 A 
ATOM     23  C   LIG    1       10.567   5.074   2.567  0.00  0.00    +0.030 A 
ATOM     24  C   LIG    1       11.777   5.126   3.233  0.00  0.00    +0.030 A 
ATOM     25  C   LIG    1       12.517   3.973   3.416  0.00  0.00    +0.050 A 
ATOM     26  C   LIG    1       12.051   2.763   2.935  0.00  0.00    +0.000 A 
ATOM     27  C   LIG    1       10.841   2.703   2.268  0.00  0.00    +0.120 A 
ATOM     28  F   LIG    1       10.385   1.521   1.799  0.00  0.00    -0.130 F 
ENDBRANCH  21  22
ENDBRANCH  20  21
ENDBRANCH  19  20
ENDBRANCH   2  19
TORSDOF 7
