REMARK  Name = ZINCpk00000y3W2u.0
REMARK                            x       y       z     vdW  Elec       q    Type
REMARK                         _______ _______ _______ _____ _____    ______ ____
ROOT
ATOM      1  N   LIG    1        2.347   4.175   0.002  0.00  0.00    -0.470 N 
ATOM      2  C   LIG    1        2.438   5.091   1.149  0.00  0.00    +0.190 C 
ATOM      3  C   LIG    1        3.753   5.870   1.069  0.00  0.00    +0.190 C 
ATOM      4  O   LIG    1        4.846   4.949   1.024  0.00  0.00    -0.360 OA
ATOM      5  C   LIG    1        4.789   4.042  -0.081  0.00  0.00    +0.110 C 
ATOM      6  C   LIG    1        4.838   4.830  -1.391  0.00  0.00    +0.040 C 
ATOM      7  C   LIG    1        5.979   3.083  -0.016  0.00  0.00    +0.060 C 
ATOM      8  C   LIG    1        3.485   3.244  -0.013  0.00  0.00    +0.200 C 
ENDROOT
BRANCH   1  13
ATOM      9  C   LIG    1       -0.018   1.503   0.010  0.00  0.00    +0.350 A 
ATOM     10  N   LIG    1       -1.178   2.127   0.019  0.00  0.00    -0.540 NA
ATOM     11  C   LIG    1       -1.241   3.452   0.032  0.00  0.00    +0.190 A 
ATOM     12  C   LIG    1       -0.069   4.182   0.024  0.00  0.00    -0.100 A 
ATOM     13  C   LIG    1        1.143   3.488   0.009  0.00  0.00    +0.360 A 
ATOM     14  C   LIG    1       -2.575   4.152   0.047  0.00  0.00    +0.140 C 
ATOM     15  N   LIG    1        1.124   2.159   0.003  0.00  0.00    -0.560 NA
BRANCH   9  17
ATOM     16  C   LIG    1        0.023  -0.522   1.442  0.00  0.00    +0.050 C 
ATOM     17  C   LIG    1        0.002  -0.004   0.002  0.00  0.00    +0.120 C 
ENDBRANCH   9  17
ENDBRANCH   1  13
BRANCH   3  18
ATOM     18  C   LIG    1        3.892   6.767   2.301  0.00  0.00    +0.200 C 
BRANCH  18  19
ATOM     19  O   LIG    1        5.063   7.576   2.172  0.00  0.00    -0.350 OA
BRANCH  19  20
ATOM     20  C   LIG    1        5.286   8.456   3.276  0.00  0.00    +0.210 C 
BRANCH  20  21
ATOM     21  C   LIG    1        6.540   9.256   3.034  0.00  0.00    +0.510 C 
ATOM     22  N   LIG    1        6.951  10.156   3.949  0.00  0.00    -0.620 N 
ATOM     23  C   LIG    1        6.179  10.357   5.177  0.00  0.00    +0.280 C 
ATOM     24  C   LIG    1        8.171  10.934   3.715  0.00  0.00    +0.300 C 
ATOM     25  O   LIG    1        7.180   9.089   2.017  0.00  0.00    -0.510 OA
ENDBRANCH  20  21
ENDBRANCH  19  20
ENDBRANCH  18  19
ENDBRANCH   3  18
TORSDOF 6
