REMARK  Name = ZINCtV000002Kkmn.0
REMARK                            x       y       z     vdW  Elec       q    Type
REMARK                         _______ _______ _______ _____ _____    ______ ____
ROOT
ATOM      1  C   LIG    1        4.362   1.653  -4.664  0.00  0.00    +0.170 C 
ATOM      2  C   LIG    1        3.616   1.266  -3.413  0.00  0.00    +0.120 A 
ATOM      3  N   LIG    1        3.571   1.951  -2.305  0.00  0.00    -0.250 NA
ATOM      4  N   LIG    1        2.779   1.264  -1.378  0.00  0.00    -0.340 N 
ATOM      5  C   LIG    1        2.340   0.130  -1.949  0.00  0.00    +0.160 A 
ATOM      6 CL   LIG    1        1.327  -1.069  -1.209  0.00  0.00    +0.010 Cl
ATOM      7  C   LIG    1        2.842   0.096  -3.237  0.00  0.00    -0.260 A 
ENDROOT
BRANCH   7   8
ATOM      8  C   LIG    1        2.618  -0.963  -4.236  0.00  0.00    +0.600 C 
ATOM      9  N   LIG    1        1.571  -0.882  -5.081  0.00  0.00    -0.710 N 
ATOM     10  H   LIG    1        0.965  -0.126  -5.031  0.00  0.00    +0.400 HD
ATOM     11  O   LIG    1        3.377  -1.911  -4.298  0.00  0.00    -0.520 OA
BRANCH   9  12
ATOM     12  C   LIG    1        1.348  -1.936  -6.074  0.00  0.00    +0.290 C 
ATOM     13  C   LIG    1        0.560  -1.361  -7.250  0.00  0.00    +0.020 C 
ATOM     14  C   LIG    1        0.151  -2.518  -8.169  0.00  0.00    +0.030 C 
ATOM     15  C   LIG    1       -0.908  -3.352  -7.451  0.00  0.00    +0.080 C 
ATOM     16  C   LIG    1       -0.442  -3.723  -6.067  0.00  0.00    -0.070 A 
ATOM     17  C   LIG    1       -1.094  -4.766  -5.423  0.00  0.00    -0.010 A 
ATOM     18  C   LIG    1       -0.717  -5.151  -4.153  0.00  0.00    +0.010 A 
ATOM     19  C   LIG    1        0.318  -4.493  -3.516  0.00  0.00    -0.010 A 
ATOM     20  C   LIG    1        0.969  -3.458  -4.155  0.00  0.00    +0.030 A 
ATOM     21  C   LIG    1        0.592  -3.070  -5.434  0.00  0.00    -0.100 A 
ENDBRANCH   9  12
ENDBRANCH   7   8
BRANCH   4  22
ATOM     22  C   LIG    1        2.482   1.704  -0.013  0.00  0.00    +0.390 C 
BRANCH  22  23
ATOM     23  C   LIG    1        1.308   2.649  -0.033  0.00  0.00    -0.110 A 
ATOM     24  C   LIG    1        0.031   2.167   0.182  0.00  0.00    +0.070 A 
ATOM     25  C   LIG    1       -1.047   3.033   0.164  0.00  0.00    +0.040 A 
ATOM     26  C   LIG    1       -0.847   4.382  -0.069  0.00  0.00    -0.010 A 
ATOM     27  C   LIG    1        0.432   4.865  -0.279  0.00  0.00    +0.040 A 
ATOM     28 CL   LIG    1       -2.200   5.469  -0.092  0.00  0.00    -0.050 Cl
ATOM     29  C   LIG    1        1.510   3.998  -0.266  0.00  0.00    +0.000 A 
ATOM     30 CL   LIG    1        3.115   4.602  -0.535  0.00  0.00    -0.030 Cl
ENDBRANCH  22  23
ENDBRANCH   4  22
TORSDOF 4
