REMARK  Name = ZINCrH00000No4LS.0
REMARK                            x       y       z     vdW  Elec       q    Type
REMARK                         _______ _______ _______ _____ _____    ______ ____
ROOT
ATOM      1  C   LIG    1        0.924   6.407  -0.355  0.00  0.00    +0.600 C 
ATOM      2  N   LIG    1        1.124   6.931   0.871  0.00  0.00    -0.710 N 
ATOM      3  H   LIG    1        0.734   6.505   1.650  0.00  0.00    +0.400 HD
ATOM      4  O   LIG    1        1.413   6.941  -1.332  0.00  0.00    -0.520 OA
ENDROOT
BRANCH   1   6
ATOM      5  C   LIG    1       -1.229   5.115  -0.712  0.00  0.00    +0.100 A 
ATOM      6  C   LIG    1        0.115   5.189  -0.510  0.00  0.00    -0.230 A 
ATOM      7  C   LIG    1        0.592   3.791  -0.481  0.00  0.00    -0.100 A 
ATOM      8  C   LIG    1        1.837   3.194  -0.314  0.00  0.00    +0.060 A 
ATOM      9  C   LIG    1        1.942   1.819  -0.339  0.00  0.00    +0.000 A 
ATOM     10  C   LIG    1        0.814   1.037  -0.531  0.00  0.00    +0.050 A 
ATOM     11  C   LIG    1       -0.425   1.619  -0.703  0.00  0.00    +0.040 A 
ATOM     12  C   LIG    1       -0.551   3.002  -0.674  0.00  0.00    +0.050 A 
ATOM     13  O   LIG    1       -1.605   3.834  -0.806  0.00  0.00    -0.180 OA
BRANCH   5  15
ATOM     14  C   LIG    1       -2.257   6.743  -2.275  0.00  0.00    +0.050 C 
ATOM     15  C   LIG    1       -2.155   6.300  -0.814  0.00  0.00    +0.130 C 
ENDBRANCH   5  15
ENDBRANCH   1   6
BRANCH   2  16
ATOM     16  C   LIG    1        1.930   8.144   1.026  0.00  0.00    +0.250 C 
ATOM     17  C   LIG    1        3.429   7.788   1.208  0.00  0.00    +0.020 C 
ATOM     18  C   LIG    1        3.944   9.015   2.004  0.00  0.00    +0.250 C 
ATOM     19  N   LIG    1        2.839   9.370   2.914  0.00  0.00    -0.610 N 
ATOM     20  C   LIG    1        2.962  10.042   4.075  0.00  0.00    +0.560 C 
ATOM     21  O   LIG    1        1.995  10.198   4.791  0.00  0.00    -0.530 OA
ATOM     22  C   LIG    1        1.580   8.868   2.343  0.00  0.00    +0.220 C 
BRANCH  20  23
ATOM     23  C   LIG    1        4.300  10.601   4.484  0.00  0.00    -0.070 C 
ATOM     24  C   LIG    1        4.996   9.960   5.686  0.00  0.00    +0.060 C 
ATOM     25  C   LIG    1        4.375  11.353   5.814  0.00  0.00    +0.060 C 
ENDBRANCH  20  23
BRANCH  22  26
ATOM     26  C   LIG    1        0.635  10.037   2.059  0.00  0.00    -0.020 C 
ATOM     27  C   LIG    1       -0.647   9.511   1.411  0.00  0.00    +0.030 C 
ATOM     28  C   LIG    1        1.317  11.026   1.111  0.00  0.00    +0.020 C 
ENDBRANCH  22  26
ENDBRANCH   2  16
TORSDOF 5
