REMARK  Name = ZINCrD0000072S5v.0
REMARK                            x       y       z     vdW  Elec       q    Type
REMARK                         _______ _______ _______ _____ _____    ______ ____
ROOT
ATOM      1  C   LIG    1       -3.964   1.906   2.642  0.00  0.00    +0.690 C 
ATOM      2  N   LIG    1       -2.746   1.329   2.617  0.00  0.00    -0.600 N 
ATOM      3  C   LIG    1       -2.015   1.068   3.865  0.00  0.00    +0.280 C 
ATOM      4  C   LIG    1       -0.622   1.697   3.762  0.00  0.00    -0.010 C 
ATOM      5  C   LIG    1        0.076   1.175   2.504  0.00  0.00    +0.020 C 
ATOM      6  C   LIG    1       -0.729   1.579   1.267  0.00  0.00    -0.020 C 
ATOM      7  C   LIG    1       -2.123   0.949   1.342  0.00  0.00    +0.290 C 
ATOM      8  O   LIG    1       -4.559   2.117   1.601  0.00  0.00    -0.610 OA
ENDROOT
BRANCH   1  14
ATOM      9  C   LIG    1       -7.696   3.702   3.154  0.00  0.00    +0.120 A 
ATOM     10  C   LIG    1       -6.558   3.132   2.682  0.00  0.00    +0.010 A 
ATOM     11  C   LIG    1       -5.718   2.814   3.838  0.00  0.00    +0.490 A 
ATOM     12  N   LIG    1       -6.414   3.212   4.953  0.00  0.00    -0.460 N 
ATOM     13  H   LIG    1       -6.116   3.128   5.872  0.00  0.00    +0.450 HD
ATOM     14  N   LIG    1       -4.520   2.248   3.814  0.00  0.00    -0.660 NA
ATOM     15  N   LIG    1       -7.628   3.763   4.526  0.00  0.00    -0.380 N 
ATOM     16  C   LIG    1       -8.665   4.312   5.404  0.00  0.00    +0.380 C 
BRANCH   9  17
ATOM     17  C   LIG    1       -8.827   4.180   2.325  0.00  0.00    +0.540 C 
ATOM     18  O   LIG    1       -9.801   4.676   2.855  0.00  0.00    -0.490 OA
BRANCH  17  20
ATOM     19  C   LIG    1       -9.921   4.554   0.236  0.00  0.00    +0.290 C 
ATOM     20  O   LIG    1       -8.776   4.064   0.984  0.00  0.00    -0.330 OA
ENDBRANCH  17  20
ENDBRANCH   9  17
ENDBRANCH   1  14
BRANCH   6  21
ATOM     21  C   LIG    1       -0.013   1.086   0.008  0.00  0.00    +0.080 C 
BRANCH  21  22
ATOM     22  C   LIG    1       -0.742   1.585  -1.213  0.00  0.00    -0.080 A 
ATOM     23  C   LIG    1       -1.750   0.824  -1.775  0.00  0.00    +0.030 A 
ATOM     24  C   LIG    1       -2.422   1.284  -2.892  0.00  0.00    +0.030 A 
ATOM     25  C   LIG    1       -2.078   2.500  -3.454  0.00  0.00    -0.040 A 
ATOM     26  C   LIG    1       -1.065   3.259  -2.894  0.00  0.00    +0.020 A 
ATOM     27 CL   LIG    1       -2.917   3.075  -4.861  0.00  0.00    -0.070 Cl
ATOM     28  C   LIG    1       -0.398   2.801  -1.774  0.00  0.00    +0.030 A 
ENDBRANCH  21  22
ENDBRANCH   6  21
TORSDOF 5
