REMARK  Name = ZINCqH0000036ogy.1
REMARK                            x       y       z     vdW  Elec       q    Type
REMARK                         _______ _______ _______ _____ _____    ______ ____
ROOT
ATOM      1  C   LIG    1        1.086   4.926   4.045  0.00  0.00    -0.070 A 
ATOM      2  C   LIG    1        2.284   4.738   3.381  0.00  0.00    +0.030 A 
ATOM      3  C   LIG    1        2.286   4.283   2.075  0.00  0.00    +0.040 A 
ATOM      4  C   LIG    1        1.091   4.017   1.433  0.00  0.00    -0.120 A 
ATOM      5  C   LIG    1       -0.107   4.211   2.095  0.00  0.00    +0.020 A 
ATOM      6  C   LIG    1       -0.110   4.660   3.403  0.00  0.00    +0.000 A 
ENDROOT
BRANCH   1   7
ATOM      7  C   LIG    1        1.083   5.422   5.468  0.00  0.00    +0.220 C 
BRANCH   7   8
ATOM      8  N   LIG    1        1.035   6.890   5.474  0.00  0.00    -0.680 NA
ATOM      9  H   LIG    1        0.237   7.229   4.957  0.00  0.00    +0.340 HD
BRANCH   8  10
ATOM     10  C   LIG    1        1.031   7.410   6.848  0.00  0.00    +0.220 C 
ATOM     11  C   LIG    1       -0.403   7.427   7.383  0.00  0.00    +0.010 C 
BRANCH  10  17
ATOM     12  C   LIG    1        2.164   9.322   8.010  0.00  0.00    +0.130 A 
ATOM     13  C   LIG    1        2.675  10.612   8.015  0.00  0.00    -0.080 A 
ATOM     14  C   LIG    1        2.607  11.384   6.871  0.00  0.00    +0.040 A 
ATOM     15  C   LIG    1        2.031  10.873   5.723  0.00  0.00    -0.040 A 
ATOM     16  C   LIG    1        1.526   9.586   5.715  0.00  0.00    +0.070 A 
ATOM     17  C   LIG    1        1.586   8.811   6.857  0.00  0.00    -0.100 A 
BRANCH  12  19
ATOM     18  C   LIG    1        2.838   9.151  10.284  0.00  0.00    +0.250 C 
ATOM     19  O   LIG    1        2.230   8.560   9.134  0.00  0.00    -0.320 OA
ENDBRANCH  12  19
ENDBRANCH  10  17
ENDBRANCH   8  10
ENDBRANCH   7   8
ENDBRANCH   1   7
BRANCH   4  20
ATOM     20  C   LIG    1        1.094   3.522   0.010  0.00  0.00    +0.340 C 
BRANCH  20  21
ATOM     21  N   LIG    1        1.141   2.058   0.002  0.00  0.00    -0.490 N 
ATOM     22  C   LIG    1       -0.016   1.349   0.009  0.00  0.00    +0.290 A 
ATOM     23  C   LIG    1        0.002  -0.004   0.002  0.00  0.00    -0.080 A 
ATOM     24  C   LIG    1        1.226  -0.687  -0.013  0.00  0.00    +0.110 A 
ATOM     25  C   LIG    1        2.388   0.027  -0.021  0.00  0.00    -0.090 A 
ATOM     26  C   LIG    1        2.333   1.431  -0.013  0.00  0.00    +0.510 A 
ATOM     27  O   LIG    1        3.365   2.082  -0.019  0.00  0.00    -0.550 OA
ENDBRANCH  20  21
ENDBRANCH   4  20
TORSDOF 7
