REMARK  Name = ZINCqH00000380mY.0
REMARK                            x       y       z     vdW  Elec       q    Type
REMARK                         _______ _______ _______ _____ _____    ______ ____
ROOT
ATOM      1  C   LIG    1        5.888  -1.103  -0.512  0.00  0.00    +0.570 C 
ATOM      2  N   LIG    1        4.935  -0.257  -0.074  0.00  0.00    -0.610 N 
ATOM      3  C   LIG    1        5.263   1.139   0.248  0.00  0.00    +0.290 C 
ATOM      4  C   LIG    1        4.819   1.427   1.687  0.00  0.00    +0.310 C 
ATOM      5  N   LIG    1        3.431   0.971   1.851  0.00  0.00    -0.620 N 
ATOM      6  C   LIG    1        3.104  -0.427   1.534  0.00  0.00    +0.260 C 
ATOM      7  C   LIG    1        2.478   1.816   2.288  0.00  0.00    +0.710 C 
ATOM      8  N   LIG    1        1.233   1.361   2.532  0.00  0.00    -0.680 N 
ATOM      9  H   LIG    1        1.006   0.439   2.331  0.00  0.00    +0.410 HD
ATOM     10  O   LIG    1        2.741   2.990   2.464  0.00  0.00    -0.560 OA
ATOM     11  C   LIG    1        3.547  -0.714   0.090  0.00  0.00    +0.270 C 
ATOM     12  O   LIG    1        7.033  -0.715  -0.641  0.00  0.00    -0.520 OA
ENDROOT
BRANCH   1  17
ATOM     13  C   LIG    1        4.545  -6.558  -1.768  0.00  0.00    +0.110 C 
ATOM     14  C   LIG    1        4.896  -5.130  -1.440  0.00  0.00    -0.090 A 
ATOM     15  C   LIG    1        6.151  -4.825  -0.943  0.00  0.00    +0.040 A 
ATOM     16  C   LIG    1        6.479  -3.520  -0.640  0.00  0.00    +0.070 A 
ATOM     17  C   LIG    1        5.542  -2.504  -0.835  0.00  0.00    -0.110 A 
ATOM     18  C   LIG    1        4.276  -2.816  -1.331  0.00  0.00    +0.020 A 
ATOM     19  C   LIG    1        3.961  -4.126  -1.636  0.00  0.00    +0.090 A 
ATOM     20  F   LIG    1        2.737  -4.431  -2.121  0.00  0.00    -0.130 F 
ENDBRANCH   1  17
BRANCH   8  21
ATOM     21  C   LIG    1        0.266   2.219   3.068  0.00  0.00    +0.170 A 
ATOM     22  C   LIG    1        0.339   3.584   2.830  0.00  0.00    +0.040 A 
ATOM     23  C   LIG    1       -0.620   4.428   3.357  0.00  0.00    +0.040 A 
ATOM     24  C   LIG    1       -1.645   3.916   4.130  0.00  0.00    +0.000 A 
ATOM     25  C   LIG    1       -1.718   2.557   4.374  0.00  0.00    +0.050 A 
ATOM     26  C   LIG    1       -0.766   1.706   3.846  0.00  0.00    -0.070 A 
ATOM     27 CL   LIG    1       -0.859   0.000   4.152  0.00  0.00    -0.070 Cl
ENDBRANCH   8  21
TORSDOF 2
