REMARK  Name = ZINCpe000027pHd9.0
REMARK                            x       y       z     vdW  Elec       q    Type
REMARK                         _______ _______ _______ _____ _____    ______ ____
ROOT
ATOM      1  N   LIG    1       -3.089   7.935  -3.100  0.00  0.00    -0.440 N 
ATOM      2  C   LIG    1       -3.243   8.394  -4.366  0.00  0.00    +0.310 A 
ATOM      3  C   LIG    1       -2.815   7.663  -5.424  0.00  0.00    -0.070 A 
ATOM      4  C   LIG    1       -2.203   6.423  -5.218  0.00  0.00    +0.130 A 
ATOM      5  C   LIG    1       -2.040   5.957  -3.943  0.00  0.00    -0.070 A 
ATOM      6  C   LIG    1       -2.491   6.732  -2.867  0.00  0.00    +0.480 A 
ATOM      7  N   LIG    1       -2.339   6.289  -1.610  0.00  0.00    -0.690 NA
ENDROOT
BRANCH   7   8
ATOM      8  C   LIG    1       -1.658   5.177  -1.377  0.00  0.00    +0.490 C 
ATOM      9  O   LIG    1       -0.531   5.051  -1.818  0.00  0.00    -0.530 OA
BRANCH   8  10
ATOM     10  C   LIG    1       -2.279   4.069  -0.565  0.00  0.00    +0.380 C 
BRANCH  10  11
ATOM     11  N   LIG    1       -1.331   2.958  -0.451  0.00  0.00    -0.610 N 
ATOM     12  C   LIG    1       -1.198   1.817  -1.373  0.00  0.00    +0.310 C 
ATOM     13  C   LIG    1       -0.078   0.996  -0.765  0.00  0.00    +0.530 C 
ATOM     14  N   LIG    1        0.308   1.667   0.338  0.00  0.00    -0.680 N 
ATOM     15  H   LIG    1        1.018   1.377   0.932  0.00  0.00    +0.430 HD
ATOM     16  O   LIG    1        0.380  -0.044  -1.187  0.00  0.00    -0.470 OA
ATOM     17  C   LIG    1       -0.409   2.784   0.512  0.00  0.00    +0.710 C 
ATOM     18  O   LIG    1       -0.245   3.554   1.438  0.00  0.00    -0.540 OA
ENDBRANCH  10  11
ENDBRANCH   8  10
ENDBRANCH   7   8
BRANCH   1  19
ATOM     19  C   LIG    1       -3.564   8.740  -1.972  0.00  0.00    +0.360 C 
BRANCH  19  24
ATOM     20  C   LIG    1        0.660  12.264  -0.204  0.00  0.00    +0.090 C 
ATOM     21  C   LIG    1       -0.442  11.345  -0.665  0.00  0.00    -0.070 A 
ATOM     22  C   LIG    1       -1.329  11.764  -1.638  0.00  0.00    -0.010 A 
ATOM     23  C   LIG    1       -2.340  10.921  -2.061  0.00  0.00    +0.020 A 
ATOM     24  C   LIG    1       -2.462   9.659  -1.511  0.00  0.00    -0.130 A 
ATOM     25  C   LIG    1       -1.578   9.242  -0.534  0.00  0.00    +0.050 A 
ATOM     26  C   LIG    1       -0.565  10.083  -0.115  0.00  0.00    -0.010 A 
ENDBRANCH  19  24
ENDBRANCH   1  19
TORSDOF 5
