REMARK  Name = ZINCkj000005hzqE.0
REMARK                            x       y       z     vdW  Elec       q    Type
REMARK                         _______ _______ _______ _____ _____    ______ ____
ROOT
ATOM      1  C   LIG    1       -4.683   1.656   0.910  0.00  0.00    +0.150 C 
ATOM      2  C   LIG    1       -4.807   0.135   0.794  0.00  0.00    +0.050 C 
ATOM      3  C   LIG    1       -3.434  -0.507   1.000  0.00  0.00    +0.050 C 
ATOM      4  C   LIG    1       -2.476  -0.016  -0.090  0.00  0.00    +0.280 C 
ATOM      5  N   LIG    1       -2.462   1.453  -0.080  0.00  0.00    -0.610 N 
ATOM      6  C   LIG    1       -1.300   2.128   0.020  0.00  0.00    +0.590 C 
ATOM      7  O   LIG    1       -1.308   3.338   0.134  0.00  0.00    -0.510 OA
ATOM      8  C   LIG    1       -3.740   2.172  -0.175  0.00  0.00    +0.310 C 
ENDROOT
BRANCH   6   9
ATOM      9  C   LIG    1       -0.016   1.397  -0.009  0.00  0.00    -0.220 A 
ATOM     10  C   LIG    1        1.026   1.757   0.854  0.00  0.00    +0.410 A 
ATOM     11  N   LIG    1        2.174   1.117   0.849  0.00  0.00    -0.450 NA
ATOM     12  C   LIG    1        2.404   0.103   0.031  0.00  0.00    +0.240 A 
ATOM     13  O   LIG    1        3.443  -0.718  -0.197  0.00  0.00    +0.090 OA
ATOM     14  N   LIG    1        3.223  -1.533  -1.062  0.00  0.00    -0.300 NA
ATOM     15  C   LIG    1        2.033  -1.435  -1.577  0.00  0.00    +0.070 A 
ATOM     16  C   LIG    1        1.434  -2.285  -2.668  0.00  0.00    +0.190 C 
ATOM     17  C   LIG    1        1.399  -0.317  -0.869  0.00  0.00    -0.230 A 
ATOM     18  C   LIG    1        0.174   0.331  -0.895  0.00  0.00    +0.200 A 
ENDBRANCH   6   9
BRANCH   1  20
ATOM     19  C   LIG    1       -5.907   3.718   0.973  0.00  0.00    +0.340 C 
ATOM     20  N   LIG    1       -6.007   2.271   0.744  0.00  0.00    -0.500 N 
ATOM     21  H   LIG    1       -6.650   1.868   1.408  0.00  0.00    +0.430 HD
ATOM     22  H   LIG    1       -6.341   2.101  -0.193  0.00  0.00    +0.430 HD
ENDBRANCH   1  20
TORSDOF 2
