REMARK  Name = ZINCpe000000Zw0I.0
REMARK                            x       y       z     vdW  Elec       q    Type
REMARK                         _______ _______ _______ _____ _____    ______ ____
ROOT
ATOM      1  O   LIG    1        3.946  -5.257  -0.199  0.00  0.00    -0.540 OA
ATOM      2  C   LIG    1        2.744  -5.367  -0.052  0.00  0.00    +0.610 C 
ATOM      3  N   LIG    1        2.186  -6.589   0.049  0.00  0.00    -0.590 N 
ATOM      4  C   LIG    1        0.725  -6.746   0.071  0.00  0.00    +0.280 C 
ATOM      5  C   LIG    1        0.325  -7.747  -1.024  0.00  0.00    +0.020 C 
ATOM      6  C   LIG    1        1.099  -9.052  -0.821  0.00  0.00    +0.020 C 
ATOM      7  C   LIG    1        2.600  -8.780  -0.944  0.00  0.00    +0.270 C 
ATOM      8  C   LIG    1        3.026  -7.790   0.146  0.00  0.00    +0.280 C 
ENDROOT
BRANCH   7   9
ATOM      9  N   LIG    1        3.340 -10.034  -0.781  0.00  0.00    -0.630 N 
ATOM     10  C   LIG    1        4.230 -10.634  -1.786  0.00  0.00    +0.250 C 
ATOM     11  C   LIG    1        4.739 -11.921  -1.107  0.00  0.00    +0.250 C 
ATOM     12  N   LIG    1        4.073 -11.914   0.205  0.00  0.00    -0.740 N 
ATOM     13  H   LIG    1        4.173 -12.593   0.889  0.00  0.00    +0.430 HD
ATOM     14  C   LIG    1        3.307 -10.819   0.303  0.00  0.00    +0.700 C 
ATOM     15  O   LIG    1        2.642 -10.562   1.288  0.00  0.00    -0.580 OA
ENDBRANCH   7   9
BRANCH   2  16
ATOM     16  C   LIG    1        1.896  -4.161   0.015  0.00  0.00    -0.090 A 
ATOM     17  C   LIG    1        2.311  -2.880  -0.212  0.00  0.00    +0.310 A 
ATOM     18  N   LIG    1        1.231  -2.085  -0.050  0.00  0.00    -0.300 N 
ATOM     19  N   LIG    1        0.159  -2.924   0.287  0.00  0.00    -0.050 NA
ATOM     20  N   LIG    1        0.585  -4.138   0.310  0.00  0.00    -0.200 NA
BRANCH  18  21
ATOM     21  C   LIG    1        1.191  -0.690  -0.186  0.00  0.00    +0.130 A 
ATOM     22  C   LIG    1       -0.001  -0.006   0.013  0.00  0.00    +0.040 A 
ATOM     23  C   LIG    1       -0.037   1.369  -0.121  0.00  0.00    +0.040 A 
ATOM     24  C   LIG    1        1.112   2.063  -0.454  0.00  0.00    +0.020 A 
ATOM     25  C   LIG    1        2.300   1.384  -0.653  0.00  0.00    +0.040 A 
ATOM     26  C   LIG    1        2.342   0.010  -0.520  0.00  0.00    +0.020 A 
ENDBRANCH  18  21
ENDBRANCH   2  16
TORSDOF 3
