REMARK  Name = ZINCBI0000000jLA.1
REMARK                            x       y       z     vdW  Elec       q    Type
REMARK                         _______ _______ _______ _____ _____    ______ ____
ROOT
ATOM      1  S   LIG    1        3.767   1.373   2.023  0.00  0.00    +2.710 S 
ATOM      2  O   LIG    1        4.631   1.845   3.048  0.00  0.00    -0.920 OA
ATOM      3  O   LIG    1        3.670   0.003   1.658  0.00  0.00    -0.960 OA
ENDROOT
BRANCH   1   4
ATOM      4  C   LIG    1        4.207   2.248   0.559  0.00  0.00    -0.720 A 
ATOM      5  C   LIG    1        4.412   1.569  -0.628  0.00  0.00    +0.250 A 
ATOM      6  C   LIG    1        4.758   2.299  -1.758  0.00  0.00    -0.260 A 
ATOM      7  C   LIG    1        4.886   3.670  -1.664  0.00  0.00    +0.400 A 
ATOM      8  N   LIG    1        4.679   4.293  -0.519  0.00  0.00    -0.510 NA
ATOM      9  C   LIG    1        4.354   3.632   0.581  0.00  0.00    +0.430 A 
BRANCH   9  10
ATOM     10  N   LIG    1        4.151   4.327   1.768  0.00  0.00    -0.500 N 
ATOM     11  C   LIG    1        5.389   4.964   2.221  0.00  0.00    +0.210 C 
ATOM     12  C   LIG    1        5.186   5.480   3.648  0.00  0.00    +0.090 C 
ATOM     13  C   LIG    1        4.086   6.546   3.639  0.00  0.00    -0.010 C 
ATOM     14  C   LIG    1        2.843   6.151   2.843  0.00  0.00    +0.000 C 
ATOM     15  C   LIG    1        2.341   5.440   4.106  0.00  0.00    +0.010 C 
ATOM     16  C   LIG    1        3.196   6.447   4.895  0.00  0.00    +0.160 C 
ATOM     17  C   LIG    1        3.044   5.263   1.641  0.00  0.00    +0.210 C 
BRANCH  16  18
ATOM     18  O   LIG    1        3.860   5.874   6.024  0.00  0.00    -0.550 OA
ATOM     19  H   LIG    1        3.306   5.810   6.814  0.00  0.00    +0.380 HD
ENDBRANCH  16  18
ENDBRANCH   9  10
BRANCH   6  20
ATOM     20  C   LIG    1        4.991   1.602  -3.074  0.00  0.00    +0.520 C 
ATOM     21  F   LIG    1        5.475   0.310  -2.837  0.00  0.00    -0.170 F 
ATOM     22  F   LIG    1        5.928   2.321  -3.824  0.00  0.00    -0.170 F 
ATOM     23  F   LIG    1        3.786   1.526  -3.781  0.00  0.00    -0.170 F 
ENDBRANCH   6  20
ENDBRANCH   1   4
BRANCH   1  24
ATOM     24  N   LIG    1        2.239   1.855   2.442  0.00  0.00    -1.110 NA
ATOM     25  H   LIG    1        2.091   2.326   3.277  0.00  0.00    +0.420 HD
BRANCH  24  26
ATOM     26  C   LIG    1        1.111   1.571   1.551  0.00  0.00    +0.250 C 
BRANCH  26  27
ATOM     27  C   LIG    1       -0.202   1.782   2.307  0.00  0.00    +0.030 C 
BRANCH  27  28
ATOM     28  C   LIG    1       -1.375   1.368   1.417  0.00  0.00    +0.040 C 
BRANCH  28  29
ATOM     29  C   LIG    1       -2.692   1.693   2.125  0.00  0.00    +0.030 C 
BRANCH  29  30
ATOM     30  C   LIG    1       -3.865   1.279   1.234  0.00  0.00    +0.250 C 
BRANCH  30  32
ATOM     31  C   LIG    1       -5.251   0.767   3.125  0.00  0.00    +0.300 C 
ATOM     32  N   LIG    1       -5.130   1.591   1.914  0.00  0.00    -0.380 N 
ATOM     33  H   LIG    1       -5.143   2.567   2.169  0.00  0.00    +0.420 HD
BRANCH  32  34
ATOM     34  C   LIG    1       -6.254   1.305   1.013  0.00  0.00    +0.320 C 
BRANCH  34  35
ATOM     35  C   LIG    1       -7.542   1.739   1.663  0.00  0.00    -0.160 A 
ATOM     36  C   LIG    1       -8.254   0.851   2.448  0.00  0.00    +0.030 A 
ATOM     37  C   LIG    1       -9.433   1.251   3.049  0.00  0.00    +0.030 A 
ATOM     38  C   LIG    1       -9.906   2.535   2.856  0.00  0.00    +0.060 A 
ATOM     39  C   LIG    1       -9.197   3.421   2.066  0.00  0.00    +0.030 A 
ATOM     40  C   LIG    1       -8.015   3.023   1.470  0.00  0.00    +0.040 A 
ENDBRANCH  34  35
ENDBRANCH  32  34
ENDBRANCH  30  32
ENDBRANCH  29  30
ENDBRANCH  28  29
ENDBRANCH  27  28
ENDBRANCH  26  27
ENDBRANCH  24  26
ENDBRANCH   1  24
TORSDOF 13
