REMARK  Name = ZINCBI0000000jLA.0
REMARK                            x       y       z     vdW  Elec       q    Type
REMARK                         _______ _______ _______ _____ _____    ______ ____
ROOT
ATOM      1  S   LIG    1       -1.766  13.348  -5.831  0.00  0.00    +2.710 S 
ATOM      2  O   LIG    1       -2.884  13.399  -4.955  0.00  0.00    -0.960 OA
ATOM      3  O   LIG    1       -1.855  13.629  -7.221  0.00  0.00    -0.920 OA
ENDROOT
BRANCH   1   4
ATOM      4  C   LIG    1       -0.569  14.461  -5.174  0.00  0.00    -0.720 A 
ATOM      5  C   LIG    1       -0.845  15.197  -4.036  0.00  0.00    +0.250 A 
ATOM      6  C   LIG    1        0.130  16.059  -3.551  0.00  0.00    -0.260 A 
ATOM      7  C   LIG    1        1.334  16.162  -4.218  0.00  0.00    +0.400 A 
ATOM      8  N   LIG    1        1.569  15.450  -5.305  0.00  0.00    -0.510 NA
ATOM      9  C   LIG    1        0.667  14.614  -5.796  0.00  0.00    +0.430 A 
BRANCH   9  10
ATOM     10  N   LIG    1        0.956  13.885  -6.943  0.00  0.00    -0.500 N 
ATOM     11  C   LIG    1        1.199  14.773  -8.082  0.00  0.00    +0.210 C 
ATOM     12  C   LIG    1        1.243  13.934  -9.362  0.00  0.00    +0.090 C 
ATOM     13  C   LIG    1        2.416  12.953  -9.273  0.00  0.00    -0.010 C 
ATOM     14  C   LIG    1        2.511  12.216  -7.938  0.00  0.00    +0.000 C 
ATOM     15  C   LIG    1        1.516  11.196  -8.505  0.00  0.00    +0.010 C 
ATOM     16  C   LIG    1        2.054  11.587  -9.893  0.00  0.00    +0.160 C 
ATOM     17  C   LIG    1        2.048  12.953  -6.706  0.00  0.00    +0.210 C 
BRANCH  16  18
ATOM     18  O   LIG    1        1.043  11.663 -10.899  0.00  0.00    -0.550 OA
ATOM     19  H   LIG    1        0.812  10.810 -11.291  0.00  0.00    +0.380 HD
ENDBRANCH  16  18
ENDBRANCH   9  10
BRANCH   6  20
ATOM     20  C   LIG    1       -0.126  16.877  -2.312  0.00  0.00    +0.520 C 
ATOM     21  F   LIG    1       -0.378  16.023  -1.233  0.00  0.00    -0.170 F 
ATOM     22  F   LIG    1       -1.235  17.705  -2.520  0.00  0.00    -0.170 F 
ATOM     23  F   LIG    1        0.997  17.664  -2.032  0.00  0.00    -0.170 F 
ENDBRANCH   6  20
ENDBRANCH   1   4
BRANCH   1  24
ATOM     24  N   LIG    1       -1.140  11.821  -5.701  0.00  0.00    -1.110 NA
ATOM     25  H   LIG    1       -0.954  11.304  -6.501  0.00  0.00    +0.420 HD
BRANCH  24  26
ATOM     26  C   LIG    1       -0.867  11.250  -4.380  0.00  0.00    +0.250 C 
BRANCH  26  27
ATOM     27  C   LIG    1       -0.698   9.735  -4.503  0.00  0.00    +0.030 C 
BRANCH  27  28
ATOM     28  C   LIG    1       -0.534   9.124  -3.110  0.00  0.00    +0.040 C 
BRANCH  28  29
ATOM     29  C   LIG    1       -0.487   7.599  -3.223  0.00  0.00    +0.030 C 
BRANCH  29  30
ATOM     30  C   LIG    1       -0.323   6.989  -1.830  0.00  0.00    +0.250 C 
BRANCH  30  32
ATOM     31  C   LIG    1        0.926   5.126  -2.682  0.00  0.00    +0.300 C 
ATOM     32  N   LIG    1       -0.277   5.525  -1.939  0.00  0.00    -0.380 N 
ATOM     33  H   LIG    1       -1.098   5.198  -2.427  0.00  0.00    +0.420 HD
BRANCH  32  34
ATOM     34  C   LIG    1       -0.240   4.935  -0.594  0.00  0.00    +0.320 C 
BRANCH  34  35
ATOM     35  C   LIG    1       -0.318   3.434  -0.702  0.00  0.00    -0.160 A 
ATOM     36  C   LIG    1        0.842   2.688  -0.809  0.00  0.00    +0.030 A 
ATOM     37  C   LIG    1        0.771   1.311  -0.908  0.00  0.00    +0.030 A 
ATOM     38  C   LIG    1       -0.459   0.680  -0.900  0.00  0.00    +0.060 A 
ATOM     39  C   LIG    1       -1.618   1.426  -0.798  0.00  0.00    +0.030 A 
ATOM     40  C   LIG    1       -1.547   2.802  -0.693  0.00  0.00    +0.040 A 
ENDBRANCH  34  35
ENDBRANCH  32  34
ENDBRANCH  30  32
ENDBRANCH  29  30
ENDBRANCH  28  29
ENDBRANCH  27  28
ENDBRANCH  26  27
ENDBRANCH  24  26
ENDBRANCH   1  24
TORSDOF 13
