REMARK  Name = ZINCpe000027pGZR.0
REMARK                            x       y       z     vdW  Elec       q    Type
REMARK                         _______ _______ _______ _____ _____    ______ ____
ROOT
ATOM      1  C   LIG    1        2.201   2.550   6.037  0.00  0.00    +0.310 C 
ENDROOT
BRANCH   1   2
ATOM      2  C   LIG    1        3.680   2.241   5.795  0.00  0.00    +0.000 C 
ATOM      3  C   LIG    1        3.920   0.714   5.697  0.00  0.00    +0.270 C 
ATOM      4  N   LIG    1        5.332   0.528   6.079  0.00  0.00    -0.610 N 
ATOM      5  C   LIG    1        5.747   1.664   6.915  0.00  0.00    +0.230 C 
ATOM      6  C   LIG    1        6.112  -0.510   5.720  0.00  0.00    +0.560 C 
ATOM      7  O   LIG    1        5.662  -1.395   5.024  0.00  0.00    -0.510 OA
ATOM      8  C   LIG    1        4.535   2.612   7.035  0.00  0.00    +0.190 C 
BRANCH   6   9
ATOM      9  C   LIG    1        7.545  -0.572   6.184  0.00  0.00    -0.010 C 
ATOM     10  C   LIG    1        8.380  -1.775   5.742  0.00  0.00    +0.160 C 
ATOM     11  C   LIG    1        8.637  -0.397   5.128  0.00  0.00    +0.020 C 
ATOM     12 CL   LIG    1       10.142   0.466   5.621  0.00  0.00    -0.080 Cl
ATOM     13 CL   LIG    1        8.113  -0.133   3.423  0.00  0.00    -0.070 Cl
ENDBRANCH   6   9
BRANCH   8  14
ATOM     14  O   LIG    1        3.811   2.363   8.242  0.00  0.00    -0.550 OA
ATOM     15  H   LIG    1        4.302   2.578   9.047  0.00  0.00    +0.390 HD
ENDBRANCH   8  14
ENDBRANCH   1   2
BRANCH   1  17
ATOM     16  C   LIG    1        0.111   2.505   4.785  0.00  0.00    +0.560 C 
ATOM     17  N   LIG    1        1.443   2.300   4.809  0.00  0.00    -0.720 N 
ATOM     18  H   LIG    1        1.899   1.987   4.012  0.00  0.00    +0.400 HD
ATOM     19  O   LIG    1       -0.461   2.897   5.783  0.00  0.00    -0.520 OA
BRANCH  16  23
ATOM     20  C   LIG    1       -0.013   1.086   0.008  0.00  0.00    +0.140 C 
ATOM     21  C   LIG    1       -0.718   1.572   1.248  0.00  0.00    +0.170 A 
ATOM     22  C   LIG    1       -0.005   1.797   2.375  0.00  0.00    -0.070 A 
ATOM     23  C   LIG    1       -0.657   2.253   3.541  0.00  0.00    -0.030 A 
ATOM     24  C   LIG    1       -2.024   2.460   3.504  0.00  0.00    -0.010 A 
ATOM     25  C   LIG    1       -2.722   2.210   2.305  0.00  0.00    +0.520 A 
ATOM     26  O   LIG    1       -3.928   2.387   2.254  0.00  0.00    -0.540 OA
ATOM     27  N   LIG    1       -2.058   1.782   1.215  0.00  0.00    -0.600 N 
ATOM     28  H   LIG    1       -2.547   1.617   0.394  0.00  0.00    +0.420 HD
ENDBRANCH  16  23
ENDBRANCH   1  17
TORSDOF 5
