REMARK  Name = ZINCrg00000SgW4s.0
REMARK                            x       y       z     vdW  Elec       q    Type
REMARK                         _______ _______ _______ _____ _____    ______ ____
ROOT
ATOM      1  C   LIG    1       -4.037   4.518   5.112  0.00  0.00    +0.160 A 
ATOM      2  C   LIG    1       -3.846   5.382   4.046  0.00  0.00    -0.070 A 
ATOM      3  C   LIG    1       -2.750   5.227   3.217  0.00  0.00    +0.160 A 
ATOM      4  C   LIG    1       -1.848   4.204   3.442  0.00  0.00    -0.690 A 
ATOM      5  C   LIG    1       -2.031   3.337   4.503  0.00  0.00    +0.170 A 
ATOM      6  C   LIG    1       -3.125   3.490   5.342  0.00  0.00    +0.100 A 
ENDROOT
BRANCH   6   7
ATOM      7  N   LIG    1       -3.312   2.613   6.418  0.00  0.00    -0.660 N 
ATOM      8  H   LIG    1       -4.202   2.469   6.777  0.00  0.00    +0.420 HD
ATOM      9  C   LIG    1       -2.257   1.970   6.955  0.00  0.00    +0.580 C 
ATOM     10  O   LIG    1       -1.130   2.225   6.573  0.00  0.00    -0.520 OA
BRANCH   9  11
ATOM     11  C   LIG    1       -2.467   0.956   8.005  0.00  0.00    -0.260 A 
ATOM     12  C   LIG    1       -1.390   0.290   8.554  0.00  0.00    +0.420 A 
ATOM     13  N   LIG    1       -1.577  -0.633   9.516  0.00  0.00    -0.600 N 
ATOM     14  H   LIG    1       -0.810  -1.090   9.895  0.00  0.00    +0.430 HD
ATOM     15  C   LIG    1       -2.812  -0.934   9.957  0.00  0.00    +0.520 A 
ATOM     16  C   LIG    1       -3.941  -0.284   9.423  0.00  0.00    -0.070 A 
ATOM     17  O   LIG    1       -2.955  -1.777  10.827  0.00  0.00    -0.530 OA
ATOM     18  C   LIG    1       -3.776   0.655   8.454  0.00  0.00    +0.140 A 
ENDBRANCH   9  11
ENDBRANCH   6   7
BRANCH   4  19
ATOM     19  S   LIG    1       -0.458   4.008   2.377  0.00  0.00    +2.690 S 
ATOM     20  O   LIG    1       -0.226   5.278   1.782  0.00  0.00    -0.950 OA
ATOM     21  O   LIG    1        0.527   3.310   3.127  0.00  0.00    -0.940 OA
BRANCH  19  22
ATOM     22  N   LIG    1       -0.918   2.995   1.151  0.00  0.00    -1.000 NA
ATOM     23  C   LIG    1       -0.747   1.538   1.269  0.00  0.00    +0.270 C 
ATOM     24  C   LIG    1       -0.031   1.032   0.012  0.00  0.00    +0.220 C 
ATOM     25  O   LIG    1       -0.726   1.498  -1.147  0.00  0.00    -0.380 OA
ATOM     26  C   LIG    1       -0.754   2.921  -1.279  0.00  0.00    +0.220 C 
ATOM     27  C   LIG    1       -1.508   3.524  -0.088  0.00  0.00    +0.260 C 
ENDBRANCH  19  22
ENDBRANCH   4  19
BRANCH   1  29
ATOM     28  C   LIG    1       -6.004   5.748   5.634  0.00  0.00    +0.250 C 
ATOM     29  O   LIG    1       -5.111   4.673   5.930  0.00  0.00    -0.310 OA
ENDBRANCH   1  29
TORSDOF 5
