REMARK  Name = ZINCpk00001AZj17.0
REMARK                            x       y       z     vdW  Elec       q    Type
REMARK                         _______ _______ _______ _____ _____    ______ ____
ROOT
ATOM      1  N   LIG    1        0.076  -0.059  -2.445  0.00  0.00    -0.710 N 
ATOM      2  H   LIG    1        0.340   0.761  -2.890  0.00  0.00    +0.430 HD
ENDROOT
BRANCH   1  11
ATOM      3  O   LIG    1       -4.814  -3.265  -5.228  0.00  0.00    -0.550 OA
ATOM      4  C   LIG    1       -4.024  -3.270  -4.295  0.00  0.00    +0.550 A 
ATOM      5  N   LIG    1       -3.939  -4.208  -3.331  0.00  0.00    -0.640 N 
ATOM      6  H   LIG    1       -4.505  -4.993  -3.271  0.00  0.00    +0.420 HD
ATOM      7  C   LIG    1       -2.928  -3.892  -2.436  0.00  0.00    +0.160 A 
ATOM      8  C   LIG    1       -2.345  -2.743  -2.811  0.00  0.00    +0.060 A 
ATOM      9  N   LIG    1       -1.304  -1.962  -2.310  0.00  0.00    -0.580 N 
ATOM     10  H   LIG    1       -0.834  -2.236  -1.507  0.00  0.00    +0.420 HD
ATOM     11  C   LIG    1       -0.949  -0.814  -2.951  0.00  0.00    +0.520 A 
ATOM     12  C   LIG    1       -1.597  -0.387  -4.096  0.00  0.00    -0.270 A 
ATOM     13  C   LIG    1       -2.635  -1.116  -4.651  0.00  0.00    +0.280 A 
ATOM     14 CL   LIG    1       -1.095   1.091  -4.857  0.00  0.00    -0.050 Cl
ATOM     15  C   LIG    1       -3.041  -2.300  -4.036  0.00  0.00    -0.290 A 
ENDBRANCH   1  11
BRANCH   1  16
ATOM     16  C   LIG    1        0.772  -0.490  -1.230  0.00  0.00    +0.220 C 
ATOM     17  C   LIG    1        0.002  -0.004   0.002  0.00  0.00    +0.020 C 
ATOM     18  C   LIG    1       -0.019   1.527   0.010  0.00  0.00    +0.230 C 
ATOM     19  O   LIG    1        1.323   2.020   0.000  0.00  0.00    -0.370 OA
ATOM     20  C   LIG    1        2.076   1.637  -1.152  0.00  0.00    +0.210 C 
ATOM     21  C   LIG    1        2.181   0.111  -1.207  0.00  0.00    +0.240 C 
BRANCH  21  22
ATOM     22  N   LIG    1        2.903  -0.287  -2.418  0.00  0.00    -0.710 N 
ATOM     23  H   LIG    1        2.411  -0.519  -3.221  0.00  0.00    +0.410 HD
BRANCH  22  24
ATOM     24  C   LIG    1        4.287  -0.331  -2.417  0.00  0.00    +0.440 A 
ATOM     25  C   LIG    1        5.006   0.001  -1.267  0.00  0.00    -0.160 A 
ATOM     26  C   LIG    1        6.385  -0.060  -1.316  0.00  0.00    +0.350 A 
ATOM     27  N   LIG    1        6.977  -0.428  -2.444  0.00  0.00    -0.560 NA
ATOM     28  C   LIG    1        6.270  -0.735  -3.512  0.00  0.00    +0.540 A 
ATOM     29  N   LIG    1        4.953  -0.696  -3.509  0.00  0.00    -0.580 NA
ENDBRANCH  22  24
ENDBRANCH  21  22
ENDBRANCH   1  16
TORSDOF 4
