REMARK  Name = ZINCpk000000nFHc.0
REMARK                            x       y       z     vdW  Elec       q    Type
REMARK                         _______ _______ _______ _____ _____    ______ ____
ROOT
ATOM      1  C   LIG    1        1.172   3.565   0.011  0.00  0.00    +0.570 C 
ATOM      2  N   LIG    1        2.330   4.248   0.105  0.00  0.00    -0.610 N 
ATOM      3  C   LIG    1        2.326   5.713   0.218  0.00  0.00    +0.290 C 
ATOM      4  C   LIG    1        3.215   6.299  -0.878  0.00  0.00    +0.060 C 
ATOM      5  C   LIG    1        4.595   5.653  -0.812  0.00  0.00    +0.120 C 
ATOM      6  N   LIG    1        5.246   5.961   0.468  0.00  0.00    -0.720 N 
ATOM      7  H   LIG    1        4.931   5.718   1.353  0.00  0.00    +0.440 HD
ATOM      8  C   LIG    1        6.366   6.646   0.170  0.00  0.00    +0.710 C 
ATOM      9  N   LIG    1        6.523   6.821  -1.148  0.00  0.00    -0.680 N 
ATOM     10  H   LIG    1        7.270   7.290  -1.550  0.00  0.00    +0.440 HD
ATOM     11  O   LIG    1        7.147   7.059   1.004  0.00  0.00    -0.540 OA
ATOM     12  C   LIG    1        4.497   4.144  -1.012  0.00  0.00    +0.060 C 
ATOM     13  C   LIG    1        5.512   6.263  -1.847  0.00  0.00    +0.530 C 
ATOM     14  O   LIG    1        5.370   6.253  -3.050  0.00  0.00    -0.450 OA
ATOM     15  C   LIG    1        3.618   3.541   0.090  0.00  0.00    +0.290 C 
ATOM     16  O   LIG    1        0.118   4.164  -0.083  0.00  0.00    -0.520 OA
ENDROOT
BRANCH   1  20
ATOM     17  C   LIG    1        1.203  -0.682   0.041  0.00  0.00    -0.060 A 
ATOM     18  C   LIG    1        0.372  -0.006  -0.835  0.00  0.00    +0.030 A 
ATOM     19  C   LIG    1        0.358   1.373  -0.850  0.00  0.00    +0.060 A 
ATOM     20  C   LIG    1        1.183   2.087   0.021  0.00  0.00    -0.130 A 
ATOM     21  C   LIG    1        2.018   1.398   0.902  0.00  0.00    +0.040 A 
ATOM     22  C   LIG    1        2.023   0.018   0.907  0.00  0.00    +0.030 A 
BRANCH  17  23
ATOM     23  C   LIG    1        1.213  -2.189   0.053  0.00  0.00    +0.220 C 
BRANCH  23  24
ATOM     24  O   LIG    1        2.194  -2.666  -0.871  0.00  0.00    -0.380 OA
BRANCH  24  26
ATOM     25  C   LIG    1        1.326  -4.614  -2.008  0.00  0.00    +0.010 C 
ATOM     26  C   LIG    1        2.286  -4.090  -0.938  0.00  0.00    +0.140 C 
ATOM     27  C   LIG    1        3.718  -4.493  -1.296  0.00  0.00    +0.040 C 
ENDBRANCH  24  26
ENDBRANCH  23  24
ENDBRANCH  17  23
ENDBRANCH   1  20
TORSDOF 4
