REMARK  Name = ZINCpe000000Zw0G.0
REMARK                            x       y       z     vdW  Elec       q    Type
REMARK                         _______ _______ _______ _____ _____    ______ ____
ROOT
ATOM      1  O   LIG    1       -0.740  -0.465   2.088  0.00  0.00    -0.540 OA
ATOM      2  C   LIG    1       -1.091   0.697   2.171  0.00  0.00    +0.610 C 
ATOM      3  N   LIG    1       -0.936   1.524   1.119  0.00  0.00    -0.590 N 
ATOM      4  C   LIG    1       -1.501   2.881   1.143  0.00  0.00    +0.280 C 
ATOM      5  C   LIG    1       -2.371   3.078  -0.103  0.00  0.00    +0.020 C 
ATOM      6  C   LIG    1       -1.545   2.763  -1.352  0.00  0.00    +0.020 C 
ATOM      7  C   LIG    1       -1.088   1.303  -1.309  0.00  0.00    +0.270 C 
ATOM      8  C   LIG    1       -0.203   1.085  -0.077  0.00  0.00    +0.280 C 
ENDROOT
BRANCH   7   9
ATOM      9  N   LIG    1       -0.324   0.994  -2.520  0.00  0.00    -0.630 N 
ATOM     10  C   LIG    1       -0.674  -0.039  -3.507  0.00  0.00    +0.250 C 
ATOM     11  C   LIG    1        0.448   0.061  -4.559  0.00  0.00    +0.250 C 
ATOM     12  N   LIG    1        1.311   1.139  -4.052  0.00  0.00    -0.740 N 
ATOM     13  H   LIG    1        2.119   1.460  -4.482  0.00  0.00    +0.430 HD
ATOM     14  C   LIG    1        0.800   1.609  -2.907  0.00  0.00    +0.700 C 
ATOM     15  O   LIG    1        1.313   2.512  -2.274  0.00  0.00    -0.580 OA
ENDBRANCH   7   9
BRANCH   2  16
ATOM     16  C   LIG    1       -1.686   1.200   3.424  0.00  0.00    -0.090 A 
ATOM     17  C   LIG    1       -2.027   0.441   4.507  0.00  0.00    +0.310 A 
ATOM     18  N   LIG    1       -2.535   1.285   5.431  0.00  0.00    -0.310 N 
ATOM     19  N   LIG    1       -2.489   2.571   4.873  0.00  0.00    -0.050 NA
ATOM     20  N   LIG    1       -1.979   2.483   3.694  0.00  0.00    -0.200 NA
BRANCH  18  21
ATOM     21  C   LIG    1       -3.015   0.942   6.703  0.00  0.00    +0.130 A 
ATOM     22  C   LIG    1       -3.002  -0.383   7.118  0.00  0.00    +0.020 A 
ATOM     23  C   LIG    1       -3.471  -0.717   8.373  0.00  0.00    +0.040 A 
ATOM     24  C   LIG    1       -3.963   0.265   9.213  0.00  0.00    +0.020 A 
ATOM     25  C   LIG    1       -3.982   1.585   8.801  0.00  0.00    +0.040 A 
ATOM     26  C   LIG    1       -3.510   1.926   7.548  0.00  0.00    +0.040 A 
ENDBRANCH  18  21
ENDBRANCH   2  16
TORSDOF 3
