REMARK  Name = ZINCvU00000007cU.0
REMARK                            x       y       z     vdW  Elec       q    Type
REMARK                         _______ _______ _______ _____ _____    ______ ____
ROOT
ATOM      1  C   LIG    1        1.474  -9.058  -0.437  0.00  0.00    -0.050 A 
ATOM      2  C   LIG    1        2.649  -8.309  -0.343  0.00  0.00    +0.090 A 
ATOM      3  C   LIG    1        2.582  -6.936  -0.242  0.00  0.00    -0.010 A 
ATOM      4  C   LIG    1        1.346  -6.298  -0.233  0.00  0.00    +0.170 A 
ATOM      5  C   LIG    1        0.175  -7.042  -0.321  0.00  0.00    +0.030 A 
ATOM      6  C   LIG    1        0.235  -8.414  -0.428  0.00  0.00    +0.060 A 
ENDROOT
BRANCH   1  13
ATOM      7  C   LIG    1        1.650 -16.745  -1.012  0.00  0.00    +0.100 C 
ATOM      8  C   LIG    1        1.956 -15.274  -0.891  0.00  0.00    -0.060 A 
ATOM      9  C   LIG    1        3.272 -14.843  -0.816  0.00  0.00    +0.030 A 
ATOM     10  C   LIG    1        3.567 -13.519  -0.707  0.00  0.00    +0.080 A 
ATOM     11  C   LIG    1        2.535 -12.555  -0.667  0.00  0.00    +0.080 A 
ATOM     12  N   LIG    1        2.635 -11.219  -0.563  0.00  0.00    -0.460 NA
ATOM     13  C   LIG    1        1.542 -10.530  -0.546  0.00  0.00    +0.160 A 
ATOM     14  S   LIG    1        0.148 -11.594  -0.664  0.00  0.00    +0.070 S 
ATOM     15  C   LIG    1        1.209 -12.998  -0.743  0.00  0.00    -0.170 A 
ATOM     16  C   LIG    1        0.928 -14.358  -0.854  0.00  0.00    +0.050 A 
ENDBRANCH   1  13
BRANCH   4  17
ATOM     17  N   LIG    1        1.282  -4.907  -0.129  0.00  0.00    -0.670 N 
ATOM     18  H   LIG    1        1.924  -4.431   0.420  0.00  0.00    +0.410 HD
ATOM     19  C   LIG    1        0.327  -4.226  -0.793  0.00  0.00    +0.570 C 
ATOM     20  O   LIG    1       -0.528  -4.826  -1.414  0.00  0.00    -0.520 OA
BRANCH  19  21
ATOM     21  C   LIG    1        0.320  -2.750  -0.766  0.00  0.00    -0.170 A 
ATOM     22  C   LIG    1       -0.669  -2.042  -1.453  0.00  0.00    +0.120 A 
ATOM     23  C   LIG    1       -0.673  -0.665  -1.426  0.00  0.00    -0.030 A 
ATOM     24  C   LIG    1        0.307   0.021  -0.716  0.00  0.00    +0.200 A 
ATOM     25  C   LIG    1        1.297  -0.681  -0.035  0.00  0.00    -0.010 A 
ATOM     26  C   LIG    1        1.303  -2.058  -0.053  0.00  0.00    +0.080 A 
BRANCH  24  27
ATOM     27  N   LIG    1        0.301   1.415  -0.691  0.00  0.00    -0.560 N 
ATOM     28  C   LIG    1       -0.614   2.253  -1.475  0.00  0.00    +0.270 C 
ATOM     29  C   LIG    1        0.015   3.664  -1.472  0.00  0.00    +0.060 C 
ATOM     30  C   LIG    1        0.853   3.633  -0.173  0.00  0.00    +0.070 C 
ATOM     31  C   LIG    1        1.129   2.163   0.058  0.00  0.00    +0.520 C 
ATOM     32  O   LIG    1        1.975   1.725   0.808  0.00  0.00    -0.500 OA
ENDBRANCH  24  27
ENDBRANCH  19  21
ENDBRANCH   4  17
TORSDOF 4
