REMARK  Name = ZINCpk00000y2PgC.0
REMARK                            x       y       z     vdW  Elec       q    Type
REMARK                         _______ _______ _______ _____ _____    ______ ____
ROOT
ATOM      1  C   LIG    1       -1.252   2.162   0.020  0.00  0.00    +0.340 C 
ENDROOT
BRANCH   1   2
ATOM      2  C   LIG    1       -1.877   2.141   1.417  0.00  0.00    -0.010 C 
ATOM      3  C   LIG    1       -2.264   0.704   1.782  0.00  0.00    +0.010 C 
ATOM      4  C   LIG    1       -2.959   0.703   3.146  0.00  0.00    +0.200 C 
ATOM      5  O   LIG    1       -4.101   1.560   3.098  0.00  0.00    -0.380 OA
ATOM      6  C   LIG    1       -3.795   2.925   2.807  0.00  0.00    +0.200 C 
ATOM      7  C   LIG    1       -3.134   3.016   1.429  0.00  0.00    +0.020 C 
ENDBRANCH   1   2
BRANCH   1  12
ATOM      8  N   LIG    1        1.258   1.751  -0.001  0.00  0.00    -0.450 N 
ATOM      9  C   LIG    1        2.075   0.653  -0.014  0.00  0.00    +0.130 A 
ATOM     10  C   LIG    1        1.274  -0.429  -0.012  0.00  0.00    +0.140 A 
ATOM     11  N   LIG    1        0.002  -0.004   0.002  0.00  0.00    -0.480 NA
ATOM     12  C   LIG    1       -0.016   1.301   0.009  0.00  0.00    +0.190 A 
BRANCH   8  14
ATOM     13  C   LIG    1        1.726   3.670   1.442  0.00  0.00    +0.040 C 
ATOM     14  C   LIG    1        1.684   3.153   0.003  0.00  0.00    +0.280 C 
ENDBRANCH   8  14
ENDBRANCH   1  12
BRANCH   1  15
ATOM     15  N   LIG    1       -2.216   1.645  -0.954  0.00  0.00    -0.700 N 
ATOM     16  H   LIG    1       -2.192   0.710  -1.211  0.00  0.00    +0.410 HD
ATOM     17  C   LIG    1       -3.136   2.469  -1.494  0.00  0.00    +0.560 C 
ATOM     18  O   LIG    1       -3.166   3.640  -1.173  0.00  0.00    -0.520 OA
BRANCH  17  19
ATOM     19  C   LIG    1       -4.113   1.945  -2.481  0.00  0.00    -0.040 A 
ATOM     20  C   LIG    1       -5.066   2.779  -3.038  0.00  0.00    +0.000 A 
ATOM     21  C   LIG    1       -5.976   2.248  -3.975  0.00  0.00    +0.510 A 
ATOM     22  N   LIG    1       -5.916   0.946  -4.310  0.00  0.00    -0.500 N 
ATOM     23  C   LIG    1       -4.986   0.123  -3.763  0.00  0.00    +0.310 A 
ATOM     24  C   LIG    1       -6.871   0.408  -5.282  0.00  0.00    +0.330 C 
ATOM     25  O   LIG    1       -6.821   2.969  -4.479  0.00  0.00    -0.540 OA
ATOM     26  C   LIG    1       -4.089   0.586  -2.863  0.00  0.00    -0.070 A 
ENDBRANCH  17  19
ENDBRANCH   1  15
TORSDOF 5
