REMARK  Name = ZINCvU0000000ErP.0
REMARK                            x       y       z     vdW  Elec       q    Type
REMARK                         _______ _______ _______ _____ _____    ______ ____
ROOT
ATOM      1  O   LIG    1       -2.608  -0.375   0.564  0.00  0.00    -0.500 OA
ATOM      2  C   LIG    1       -2.276  -0.654  -0.569  0.00  0.00    +0.510 C 
ATOM      3  N   LIG    1       -0.992  -0.504  -0.951  0.00  0.00    -0.730 N 
ATOM      4  H   LIG    1       -0.726  -0.727  -1.857  0.00  0.00    +0.400 HD
ENDROOT
BRANCH   3   5
ATOM      5  C   LIG    1        0.002  -0.004   0.002  0.00  0.00    +0.340 C 
ATOM      6  C   LIG    1        1.400  -0.473  -0.415  0.00  0.00    +0.040 C 
ATOM      7  C   LIG    1        2.444   0.274   0.421  0.00  0.00    +0.030 C 
ATOM      8  C   LIG    1        2.489   1.740  -0.012  0.00  0.00    +0.130 C 
ATOM      9  C   LIG    1        1.072   2.300   0.004  0.00  0.00    +0.080 A 
ATOM     10  N   LIG    1        0.802   3.595   0.013  0.00  0.00    -0.470 NA
ATOM     11  C   LIG    1       -0.444   3.956   0.027  0.00  0.00    +0.110 A 
ATOM     12  S   LIG    1       -1.459   2.517   0.037  0.00  0.00    +0.130 S 
ATOM     13  C   LIG    1       -0.018   1.507   0.010  0.00  0.00    -0.230 A 
BRANCH  11  14
ATOM     14  C   LIG    1       -0.933   5.352   0.039  0.00  0.00    -0.030 A 
ATOM     15  C   LIG    1       -2.304   5.614   0.048  0.00  0.00    +0.020 A 
ATOM     16  C   LIG    1       -2.753   6.918   0.065  0.00  0.00    +0.010 A 
ATOM     17  C   LIG    1       -1.849   7.965   0.061  0.00  0.00    +0.030 A 
ATOM     18  C   LIG    1       -0.488   7.712   0.047  0.00  0.00    +0.010 A 
ATOM     19  C   LIG    1       -0.026   6.412   0.035  0.00  0.00    +0.070 A 
ENDBRANCH  11  14
ENDBRANCH   3   5
BRANCH   2  20
ATOM     20  C   LIG    1       -3.298  -1.168  -1.549  0.00  0.00    +0.150 C 
BRANCH  20  21
ATOM     21  C   LIG    1       -4.645  -1.242  -0.878  0.00  0.00    +0.090 A 
ATOM     22  C   LIG    1       -5.732  -0.636  -1.367  0.00  0.00    -0.080 A 
ATOM     23  S   LIG    1       -7.078  -0.977  -0.282  0.00  0.00    +0.120 S 
ATOM     24  C   LIG    1       -6.046  -1.900   0.722  0.00  0.00    +0.060 A 
ATOM     25  N   LIG    1       -4.850  -1.914   0.238  0.00  0.00    -0.440 NA
BRANCH  24  26
ATOM     26  C   LIG    1       -6.473  -2.601   1.985  0.00  0.00    +0.200 C 
BRANCH  26  27
ATOM     27  C   LIG    1       -6.304  -1.670   3.158  0.00  0.00    -0.090 A 
ATOM     28  C   LIG    1       -5.111  -1.646   3.856  0.00  0.00    +0.030 A 
ATOM     29  C   LIG    1       -4.955  -0.789   4.929  0.00  0.00    +0.000 A 
ATOM     30  C   LIG    1       -5.995   0.038   5.310  0.00  0.00    +0.000 A 
ATOM     31  C   LIG    1       -7.189   0.011   4.616  0.00  0.00    +0.000 A 
ATOM     32  C   LIG    1       -7.345  -0.843   3.540  0.00  0.00    +0.010 A 
ENDBRANCH  26  27
ENDBRANCH  24  26
ENDBRANCH  20  21
ENDBRANCH   2  20
TORSDOF 6
