REMARK  Name = ZINCrD000000CPH6.2
REMARK                            x       y       z     vdW  Elec       q    Type
REMARK                         _______ _______ _______ _____ _____    ______ ____
ROOT
ATOM      1  N   LIG    1        2.336   6.323  -0.557  0.00  0.00    -0.450 NA
ATOM      2  C   LIG    1        3.639   6.688  -1.146  0.00  0.00    +0.160 C 
ATOM      3  C   LIG    1        3.066   8.082  -1.401  0.00  0.00    -0.070 C 
ATOM      4  C   LIG    1        4.046   9.220  -1.125  0.00  0.00    +0.010 C 
ATOM      5  C   LIG    1        4.995   9.359  -2.321  0.00  0.00    +0.200 C 
ATOM      6  O   LIG    1        4.228   9.532  -3.515  0.00  0.00    -0.380 OA
ATOM      7  C   LIG    1        3.392   8.421  -3.845  0.00  0.00    +0.200 C 
ATOM      8  C   LIG    1        2.348   8.227  -2.740  0.00  0.00    +0.050 C 
ATOM      9  C   LIG    1        2.145   7.749  -0.228  0.00  0.00    +0.170 C 
ENDROOT
BRANCH   9  10
ATOM     10  C   LIG    1        0.729   8.226  -0.422  0.00  0.00    -0.070 A 
ATOM     11  C   LIG    1       -0.130   7.524  -1.247  0.00  0.00    +0.040 A 
ATOM     12  C   LIG    1       -1.431   7.960  -1.421  0.00  0.00    -0.010 A 
ATOM     13  C   LIG    1       -1.869   9.102  -0.778  0.00  0.00    +0.000 A 
ATOM     14  C   LIG    1       -1.009   9.806   0.043  0.00  0.00    +0.000 A 
ATOM     15  C   LIG    1        0.290   9.369   0.221  0.00  0.00    +0.010 A 
ENDBRANCH   9  10
BRANCH   1  16
ATOM     16  C   LIG    1        2.514   5.521   0.661  0.00  0.00    +0.200 C 
BRANCH  16  24
ATOM     17  O   LIG    1       -1.038  -0.627  -0.023  0.00  0.00    -0.510 OA
ATOM     18  C   LIG    1        0.002  -0.004   0.002  0.00  0.00    +0.490 C 
ATOM     19  C   LIG    1        1.321  -0.734   0.024  0.00  0.00    +0.300 C 
ATOM     20  O   LIG    1        2.312   0.043  -0.651  0.00  0.00    -0.300 OA
ATOM     21  C   LIG    1        2.372   1.365  -0.336  0.00  0.00    +0.080 A 
ATOM     22  C   LIG    1        3.579   2.040  -0.348  0.00  0.00    +0.040 A 
ATOM     23  C   LIG    1        3.621   3.385  -0.025  0.00  0.00    +0.030 A 
ATOM     24  C   LIG    1        2.460   4.056   0.310  0.00  0.00    -0.060 A 
ATOM     25  C   LIG    1        1.249   3.388   0.325  0.00  0.00    +0.030 A 
ATOM     26  C   LIG    1        1.201   2.043   0.002  0.00  0.00    +0.090 A 
ATOM     27  N   LIG    1       -0.016   1.347   0.009  0.00  0.00    -0.660 N 
ATOM     28  H   LIG    1       -0.859   1.828   0.016  0.00  0.00    +0.420 HD
ENDBRANCH  16  24
ENDBRANCH   1  16
TORSDOF 3
