REMARK  Name = ZINCqH00000504io.0
REMARK                            x       y       z     vdW  Elec       q    Type
REMARK                         _______ _______ _______ _____ _____    ______ ____
ROOT
ATOM      1  N   LIG    1        2.516  -0.115   0.081  0.00  0.00    -0.650 N 
ATOM      2  H   LIG    1        1.700  -0.557   0.362  0.00  0.00    +0.420 HD
ATOM      3  C   LIG    1        2.470   1.144  -0.398  0.00  0.00    +0.580 C 
ATOM      4  O   LIG    1        3.477   1.665  -0.838  0.00  0.00    -0.520 OA
ENDROOT
BRANCH   3   5
ATOM      5  C   LIG    1        1.204   1.887  -0.388  0.00  0.00    -0.290 A 
ATOM      6  C   LIG    1        1.112   3.136  -1.012  0.00  0.00    +0.240 A 
ATOM      7  C   LIG    1       -0.094   3.816  -0.988  0.00  0.00    -0.050 A 
ATOM      8  C   LIG    1       -1.192   3.255  -0.348  0.00  0.00    +0.280 A 
ATOM      9  N   LIG    1       -1.097   2.030   0.256  0.00  0.00    -0.590 N 
ATOM     10  H   LIG    1       -1.875   1.652   0.695  0.00  0.00    +0.420 HD
ATOM     11  C   LIG    1        0.062   1.347   0.254  0.00  0.00    +0.540 A 
ATOM     12  O   LIG    1        0.129   0.259   0.801  0.00  0.00    -0.540 OA
BRANCH   8  13
ATOM     13  C   LIG    1       -2.465   3.978  -0.326  0.00  0.00    -0.030 A 
ATOM     14  C   LIG    1       -3.623   3.547   0.259  0.00  0.00    +0.010 A 
ATOM     15  C   LIG    1       -4.581   4.550   0.043  0.00  0.00    -0.060 A 
ATOM     16  C   LIG    1       -3.977   5.532  -0.662  0.00  0.00    +0.230 A 
ATOM     17  O   LIG    1       -2.701   5.184  -0.882  0.00  0.00    -0.150 OA
ENDBRANCH   8  13
ENDBRANCH   3   5
BRANCH   1  20
ATOM     18  C   LIG    1        2.496  -2.959   0.072  0.00  0.00    +0.090 C 
ATOM     19  C   LIG    1        3.776  -2.171   0.171  0.00  0.00    -0.130 A 
ATOM     20  C   LIG    1        3.740  -0.784   0.172  0.00  0.00    +0.180 A 
ATOM     21  C   LIG    1        4.923  -0.060   0.269  0.00  0.00    +0.000 A 
ATOM     22  C   LIG    1        6.132  -0.721   0.359  0.00  0.00    +0.060 A 
ATOM     23  C   LIG    1        6.170  -2.103   0.353  0.00  0.00    -0.080 A 
ATOM     24  C   LIG    1        4.993  -2.831   0.257  0.00  0.00    +0.120 A 
BRANCH  24  25
ATOM     25  O   LIG    1        5.032  -4.189   0.251  0.00  0.00    -0.320 OA
BRANCH  25  26
ATOM     26  C   LIG    1        6.319  -4.802   0.348  0.00  0.00    +0.590 C 
ATOM     27  F   LIG    1        6.932  -4.413   1.544  0.00  0.00    -0.200 F 
ATOM     28  F   LIG    1        7.110  -4.398  -0.734  0.00  0.00    -0.200 F 
ENDBRANCH  25  26
ENDBRANCH  24  25
ENDBRANCH   1  20
TORSDOF 5
