REMARK  Name = ZINCrH000004mrjG.0
REMARK                            x       y       z     vdW  Elec       q    Type
REMARK                         _______ _______ _______ _____ _____    ______ ____
ROOT
ATOM      1  N   LIG    1       -0.018   1.461   0.033  0.00  0.00    -0.620 N 
ATOM      2  C   LIG    1       -1.194   2.119   0.039  0.00  0.00    +0.510 C 
ATOM      3  O   LIG    1       -2.236   1.498   0.053  0.00  0.00    -0.490 OA
ATOM      4  C   LIG    1        1.241   2.210   0.010  0.00  0.00    +0.280 C 
ENDROOT
BRANCH   1   5
ATOM      5  C   LIG    1        0.002  -0.004   0.044  0.00  0.00    +0.360 C 
BRANCH   5  12
ATOM      6  C   LIG    1       -1.143  -0.541   2.209  0.00  0.00    +0.160 A 
ATOM      7  C   LIG    1       -1.116  -0.993   3.520  0.00  0.00    -0.070 A 
ATOM      8  C   LIG    1        0.078  -1.398   4.085  0.00  0.00    +0.090 A 
ATOM      9  C   LIG    1        1.246  -1.352   3.345  0.00  0.00    -0.140 A 
ATOM     10  C   LIG    1        1.220  -0.906   2.035  0.00  0.00    +0.100 A 
ATOM     11 BR   LIG    1        2.878  -1.907   4.121  0.00  0.00    -0.050 Br
ATOM     12  C   LIG    1        0.029  -0.495   1.468  0.00  0.00    -0.140 A 
BRANCH   6  14
ATOM     13  C   LIG    1       -3.484  -0.216   2.473  0.00  0.00    +0.230 C 
ATOM     14  O   LIG    1       -2.317  -0.142   1.651  0.00  0.00    -0.270 OA
ENDBRANCH   6  14
ENDBRANCH   5  12
ENDBRANCH   1   5
BRANCH   2  15
ATOM     15  C   LIG    1       -1.214   3.626   0.028  0.00  0.00    +0.100 C 
BRANCH  15  16
ATOM     16  C   LIG    1       -2.642   4.109   0.037  0.00  0.00    -0.090 A 
ATOM     17  C   LIG    1       -3.305   4.326  -1.157  0.00  0.00    +0.050 A 
ATOM     18  C   LIG    1       -4.614   4.764  -1.152  0.00  0.00    +0.000 A 
ATOM     19  C   LIG    1       -5.263   4.996   0.054  0.00  0.00    +0.160 A 
ATOM     20  C   LIG    1       -4.593   4.782   1.252  0.00  0.00    -0.040 A 
ATOM     21  C   LIG    1       -3.284   4.339   1.240  0.00  0.00    +0.040 A 
BRANCH  19  22
ATOM     22  N   LIG    1       -6.588   5.446   0.063  0.00  0.00    -0.560 N 
ATOM     23  C   LIG    1       -7.400   5.605   1.275  0.00  0.00    +0.260 C 
ATOM     24  C   LIG    1       -8.862   5.687   0.783  0.00  0.00    +0.060 C 
ATOM     25  C   LIG    1       -8.681   6.215  -0.659  0.00  0.00    +0.070 C 
ATOM     26  C   LIG    1       -7.278   5.792  -1.037  0.00  0.00    +0.510 C 
ATOM     27  O   LIG    1       -6.841   5.767  -2.168  0.00  0.00    -0.510 OA
ENDBRANCH  19  22
ENDBRANCH  15  16
ENDBRANCH   2  15
TORSDOF 6
