REMARK  Name = ZINCpk000000nLDc.0
REMARK                            x       y       z     vdW  Elec       q    Type
REMARK                         _______ _______ _______ _____ _____    ______ ____
ROOT
ATOM      1  C   LIG    1       -1.555  -0.830   2.299  0.00  0.00    +0.510 C 
ATOM      2  N   LIG    1       -2.827  -1.270   2.242  0.00  0.00    -0.670 N 
ATOM      3  H   LIG    1       -3.051  -2.038   1.693  0.00  0.00    +0.410 HD
ATOM      4  O   LIG    1       -1.256   0.063   3.064  0.00  0.00    -0.500 OA
ENDROOT
BRANCH   2   5
ATOM      5  C   LIG    1       -3.827  -0.619   2.974  0.00  0.00    +0.150 A 
ATOM      6  C   LIG    1       -3.765   0.756   3.163  0.00  0.00    +0.050 A 
ATOM      7  C   LIG    1       -4.750   1.404   3.886  0.00  0.00    +0.040 A 
ATOM      8  C   LIG    1       -5.801   0.689   4.423  0.00  0.00    +0.070 A 
ATOM      9  C   LIG    1       -5.871  -0.692   4.238  0.00  0.00    -0.020 A 
ATOM     10  C   LIG    1       -4.882  -1.345   3.505  0.00  0.00    +0.010 A 
BRANCH   9  11
ATOM     11  C   LIG    1       -6.997  -1.462   4.814  0.00  0.00    +0.290 A 
ATOM     12  N   LIG    1       -7.803  -1.067   5.777  0.00  0.00    -0.320 NA
ATOM     13  N   LIG    1       -8.674  -1.975   6.034  0.00  0.00    -0.030 NA
ATOM     14  N   LIG    1       -8.490  -3.002   5.277  0.00  0.00    -0.080 NA
ATOM     15  N   LIG    1       -7.391  -2.708   4.452  0.00  0.00    -0.380 N 
ATOM     16  C   LIG    1       -6.796  -3.565   3.423  0.00  0.00    +0.390 C 
ENDBRANCH   9  11
ENDBRANCH   2   5
BRANCH   1  17
ATOM     17  C   LIG    1       -0.503  -1.447   1.413  0.00  0.00    +0.260 C 
BRANCH  17  18
ATOM     18  N   LIG    1        0.815  -1.278   2.030  0.00  0.00    -0.600 N 
ATOM     19  C   LIG    1        1.470   0.018   2.241  0.00  0.00    +0.270 C 
ATOM     20  C   LIG    1        2.959  -0.309   2.494  0.00  0.00    +0.040 C 
ATOM     21  C   LIG    1        2.875  -1.754   3.041  0.00  0.00    +0.060 C 
ATOM     22  C   LIG    1        1.579  -2.290   2.475  0.00  0.00    +0.520 C 
ATOM     23  O   LIG    1        1.272  -3.463   2.433  0.00  0.00    -0.530 OA
ENDBRANCH  17  18
BRANCH  17  25
ATOM     24  C   LIG    1        0.580  -1.352  -0.836  0.00  0.00    +0.040 C 
ATOM     25  C   LIG    1       -0.520  -0.758   0.047  0.00  0.00    -0.020 C 
ATOM     26  C   LIG    1       -1.880  -0.976  -0.618  0.00  0.00    +0.030 C 
ENDBRANCH  17  25
ENDBRANCH   1  17
TORSDOF 5
