REMARK  Name = ZINCqH0000038QbB.0
REMARK                            x       y       z     vdW  Elec       q    Type
REMARK                         _______ _______ _______ _____ _____    ______ ____
ROOT
ATOM      1  C   LIG    1       -2.229  -3.024   0.009  0.00  0.00    +0.240 C 
ENDROOT
BRANCH   1   2
ATOM      2  N   LIG    1       -1.941  -4.464   0.021  0.00  0.00    -0.470 N 
ATOM      3  C   LIG    1       -0.907  -4.811  -0.996  0.00  0.00    +0.260 C 
ATOM      4  C   LIG    1        0.391  -4.708  -0.181  0.00  0.00    +0.000 C 
ATOM      5  C   LIG    1        1.434  -5.770  -0.529  0.00  0.00    +0.060 C 
ATOM      6  C   LIG    1        2.547  -5.733   0.525  0.00  0.00    +0.040 C 
ATOM      7  C   LIG    1        2.032  -5.963   1.926  0.00  0.00    +0.400 C 
ATOM      8  C   LIG    1        0.636  -5.633   2.250  0.00  0.00    -0.140 A 
ATOM      9  C   LIG    1        0.015  -5.828   3.476  0.00  0.00    +0.080 A 
ATOM     10  C   LIG    1       -1.334  -5.527   3.589  0.00  0.00    +0.020 A 
ATOM     11  C   LIG    1       -2.073  -5.065   2.515  0.00  0.00    +0.060 A 
ATOM     12  O   LIG    1        2.765  -6.417   2.778  0.00  0.00    -0.450 OA
ATOM     13  C   LIG    1       -0.113  -5.099   1.200  0.00  0.00    -0.100 A 
ATOM     14  C   LIG    1       -1.464  -4.870   1.273  0.00  0.00    +0.080 A 
ENDBRANCH   1   2
BRANCH   1  17
ATOM     15  N   LIG    1       -2.860  -1.308  -1.658  0.00  0.00    -0.630 N 
ATOM     16  H   LIG    1       -2.713  -0.636  -0.975  0.00  0.00    +0.420 HD
ATOM     17  C   LIG    1       -2.671  -2.612  -1.372  0.00  0.00    +0.510 C 
ATOM     18  O   LIG    1       -2.855  -3.453  -2.226  0.00  0.00    -0.480 OA
BRANCH  15  23
ATOM     19  C   LIG    1       -4.395  -0.899  -6.751  0.00  0.00    +0.150 C 
ATOM     20  C   LIG    1       -3.987  -0.707  -5.313  0.00  0.00    -0.250 A 
ATOM     21  C   LIG    1       -3.902   0.468  -4.704  0.00  0.00    -0.050 A 
ATOM     22  C   LIG    1       -3.487   0.365  -3.323  0.00  0.00    -0.110 A 
ATOM     23  C   LIG    1       -3.267  -0.929  -2.930  0.00  0.00    +0.050 A 
ATOM     24  C   LIG    1       -4.210   1.778  -5.383  0.00  0.00    +0.130 C 
ATOM     25  S   LIG    1       -3.558  -2.008  -4.216  0.00  0.00    +0.320 S 
BRANCH  22  26
ATOM     26  C   LIG    1       -3.329   1.494  -2.457  0.00  0.00    +0.270 C 
ATOM     27  N   LIG    1       -3.204   2.390  -1.770  0.00  0.00    -0.420 NA
ENDBRANCH  22  26
ENDBRANCH  15  23
ENDBRANCH   1  17
TORSDOF 4
