REMARK  Name = ZINCqH0000036rtJ.0
REMARK                            x       y       z     vdW  Elec       q    Type
REMARK                         _______ _______ _______ _____ _____    ______ ____
ROOT
ATOM      1  C   LIG    1       -4.430   1.268   0.585  0.00  0.00    -0.010 A 
ATOM      2  C   LIG    1       -4.689   0.072   1.289  0.00  0.00    -0.180 A 
ATOM      3  C   LIG    1       -5.851  -0.697   1.519  0.00  0.00    +0.300 A 
ATOM      4  N   LIG    1       -5.529  -1.727   2.248  0.00  0.00    -0.230 NA
ATOM      5  N   LIG    1       -4.159  -1.696   2.534  0.00  0.00    -0.380 N 
ATOM      6  C   LIG    1       -3.624  -0.580   1.943  0.00  0.00    +0.320 A 
ATOM      7  N   LIG    1       -2.400  -0.076   1.890  0.00  0.00    -0.480 NA
ATOM      8  C   LIG    1       -2.134   1.039   1.245  0.00  0.00    +0.210 A 
ATOM      9  C   LIG    1       -3.120   1.745   0.575  0.00  0.00    -0.020 A 
ENDROOT
BRANCH   1  12
ATOM     10  N   LIG    1       -5.239   3.131  -0.781  0.00  0.00    -0.650 N 
ATOM     11  H   LIG    1       -4.352   3.521  -0.732  0.00  0.00    +0.420 HD
ATOM     12  C   LIG    1       -5.511   1.991  -0.117  0.00  0.00    +0.560 C 
ATOM     13  O   LIG    1       -6.647   1.557  -0.094  0.00  0.00    -0.500 OA
BRANCH  10  19
ATOM     14  C   LIG    1       -6.178   5.123  -1.802  0.00  0.00    +0.300 A 
ATOM     15  N   LIG    1       -7.116   5.710  -2.526  0.00  0.00    -0.520 NA
ATOM     16  C   LIG    1       -8.139   5.034  -3.016  0.00  0.00    +0.280 A 
ATOM     17  C   LIG    1       -8.265   3.677  -2.796  0.00  0.00    -0.040 A 
ATOM     18  C   LIG    1       -7.301   3.017  -2.046  0.00  0.00    +0.100 A 
ATOM     19  C   LIG    1       -6.236   3.753  -1.543  0.00  0.00    +0.080 A 
BRANCH  14  21
ATOM     20  C   LIG    1       -5.146   7.255  -1.614  0.00  0.00    +0.260 C 
ATOM     21  O   LIG    1       -5.148   5.858  -1.313  0.00  0.00    -0.310 OA
ENDBRANCH  14  21
ENDBRANCH  10  19
ENDBRANCH   1  12
BRANCH   5  22
ATOM     22  C   LIG    1       -3.424  -2.683   3.328  0.00  0.00    +0.270 C 
ATOM     23  C   LIG    1       -3.546  -4.059   2.670  0.00  0.00    +0.050 C 
ATOM     24  C   LIG    1       -4.010  -2.740   4.740  0.00  0.00    +0.050 C 
ENDBRANCH   5  22
BRANCH   8  25
ATOM     25  C   LIG    1       -0.720   1.559   1.230  0.00  0.00    +0.050 C 
ATOM     26  C   LIG    1       -0.738   3.089   1.250  0.00  0.00    +0.040 C 
ATOM     27  C   LIG    1       -0.011   1.073  -0.036  0.00  0.00    +0.050 C 
ENDBRANCH   8  25
TORSDOF 5
