REMARK  Name = ZINCrD000000f1UR.0
REMARK                            x       y       z     vdW  Elec       q    Type
REMARK                         _______ _______ _______ _____ _____    ______ ____
ROOT
ATOM      1  C   LIG    1       -1.865   3.866   2.497  0.00  0.00    -0.180 A 
ATOM      2  C   LIG    1       -2.468   2.954   3.368  0.00  0.00    +0.100 A 
ATOM      3  C   LIG    1       -2.775   3.333   4.656  0.00  0.00    -0.020 A 
ATOM      4  C   LIG    1       -2.500   4.622   5.091  0.00  0.00    +0.150 A 
ATOM      5  C   LIG    1       -1.909   5.537   4.238  0.00  0.00    -0.010 A 
ATOM      6  F   LIG    1       -2.811   4.986   6.355  0.00  0.00    -0.130 F 
ATOM      7  C   LIG    1       -1.587   5.169   2.940  0.00  0.00    +0.240 A 
ENDROOT
BRANCH   1  10
ATOM      8  N   LIG    1       -1.795   2.211   0.699  0.00  0.00    -0.720 N 
ATOM      9  H   LIG    1       -2.208   1.575   1.303  0.00  0.00    +0.410 HD
ATOM     10  C   LIG    1       -1.529   3.464   1.120  0.00  0.00    +0.570 C 
ATOM     11  O   LIG    1       -1.011   4.262   0.363  0.00  0.00    -0.540 OA
BRANCH   8  12
ATOM     12  C   LIG    1       -1.460   1.812  -0.670  0.00  0.00    +0.250 C 
BRANCH  12  13
ATOM     13  C   LIG    1       -1.863   0.352  -0.887  0.00  0.00    +0.200 C 
BRANCH  13  14
ATOM     14  O   LIG    1       -1.159  -0.480   0.037  0.00  0.00    -0.560 OA
ATOM     15  H   LIG    1       -0.197  -0.434  -0.047  0.00  0.00    +0.380 HD
ENDBRANCH  13  14
BRANCH  13  16
ATOM     16  C   LIG    1       -1.514  -0.066  -2.317  0.00  0.00    +0.020 C 
BRANCH  16  17
ATOM     17  C   LIG    1       -2.028  -1.484  -2.575  0.00  0.00    +0.170 C 
BRANCH  17  19
ATOM     18  C   LIG    1       -1.424  -2.206  -5.048  0.00  0.00    +0.020 C 
ATOM     19  C   LIG    1       -1.692  -1.885  -3.950  0.00  0.00    -0.200 C 
ENDBRANCH  17  19
ENDBRANCH  16  17
ENDBRANCH  13  16
ENDBRANCH  12  13
ENDBRANCH   8  12
ENDBRANCH   1  10
BRANCH   7  20
ATOM     20  N   LIG    1       -0.992   6.088   2.079  0.00  0.00    -0.660 N 
ATOM     21  H   LIG    1       -0.258   5.813   1.509  0.00  0.00    +0.420 HD
ATOM     22  C   LIG    1       -1.437   7.360   2.040  0.00  0.00    +0.570 C 
ATOM     23  O   LIG    1       -2.296   7.728   2.816  0.00  0.00    -0.510 OA
BRANCH  22  24
ATOM     24  C   LIG    1       -0.879   8.307   1.051  0.00  0.00    -0.130 A 
ATOM     25  C   LIG    1        0.112   7.889   0.162  0.00  0.00    +0.080 A 
ATOM     26  C   LIG    1        0.624   8.776  -0.762  0.00  0.00    +0.020 A 
ATOM     27  C   LIG    1        0.166  10.081  -0.801  0.00  0.00    +0.080 A 
ATOM     28  C   LIG    1       -0.813  10.504   0.082  0.00  0.00    -0.100 A 
ATOM     29 BR   LIG    1       -1.431  12.290   0.020  0.00  0.00    -0.040 Br
ATOM     30  C   LIG    1       -1.338   9.625   1.007  0.00  0.00    +0.120 A 
ENDBRANCH  22  24
ENDBRANCH   7  20
TORSDOF 9
