REMARK  Name = ZINCpe00000VVGu1.0
REMARK                            x       y       z     vdW  Elec       q    Type
REMARK                         _______ _______ _______ _____ _____    ______ ____
ROOT
ATOM      1  N   LIG    1       -0.563  -4.591  -2.287  0.00  0.00    -0.510 NA
ATOM      2  C   LIG    1       -1.630  -4.136  -1.385  0.00  0.00    +0.190 C 
ENDROOT
BRANCH   1   3
ATOM      3  C   LIG    1        0.758  -4.202  -1.778  0.00  0.00    +0.230 C 
BRANCH   3   8
ATOM      4  C   LIG    1        1.382  -0.789  -3.294  0.00  0.00    +0.100 A 
ATOM      5  C   LIG    1        1.257   0.028  -2.183  0.00  0.00    -0.070 A 
ATOM      6  C   LIG    1        0.971  -0.523  -0.948  0.00  0.00    +0.040 A 
ATOM      7  C   LIG    1        0.810  -1.890  -0.818  0.00  0.00    -0.010 A 
ATOM      8  C   LIG    1        0.934  -2.712  -1.923  0.00  0.00    -0.060 A 
ATOM      9  C   LIG    1        1.214  -2.165  -3.165  0.00  0.00    +0.090 A 
BRANCH   4  11
ATOM     10  C   LIG    1        1.817   1.171  -4.569  0.00  0.00    +0.240 C 
ATOM     11  O   LIG    1        1.664  -0.249  -4.510  0.00  0.00    -0.310 OA
ENDBRANCH   4  11
BRANCH   9  12
ATOM     12  O   LIG    1        1.331  -2.971  -4.254  0.00  0.00    -0.310 OA
ATOM     13  C   LIG    1        2.649  -3.398  -4.606  0.00  0.00    +0.220 C 
ENDBRANCH   9  12
ENDBRANCH   3   8
ENDBRANCH   1   3
BRANCH   1  14
ATOM     14  C   LIG    1       -0.638  -6.042  -2.502  0.00  0.00    +0.200 C 
BRANCH  14  15
ATOM     15  C   LIG    1       -1.905  -6.374  -3.248  0.00  0.00    +0.520 C 
ATOM     16  N   LIG    1       -2.188  -7.655  -3.559  0.00  0.00    -0.730 N 
ATOM     17  H   LIG    1       -1.576  -8.363  -3.302  0.00  0.00    +0.400 HD
ATOM     18  O   LIG    1       -2.670  -5.489  -3.569  0.00  0.00    -0.500 OA
BRANCH  16  19
ATOM     19  C   LIG    1       -3.419  -7.978  -4.284  0.00  0.00    +0.190 C 
ATOM     20  C   LIG    1       -3.509  -9.489  -4.456  0.00  0.00    +0.080 C 
ATOM     21  C   LIG    1       -3.573  -9.907  -5.939  0.00  0.00    -0.300 C 
ATOM     22  S   LIG    1       -2.756  -8.500  -6.795  0.00  0.00    +2.370 S 
ATOM     23  O   LIG    1       -3.332  -8.320  -8.082  0.00  0.00    -0.930 OA
ATOM     24  O   LIG    1       -1.347  -8.601  -6.650  0.00  0.00    -0.920 OA
ATOM     25  C   LIG    1       -4.618  -7.500  -3.462  0.00  0.00    +0.060 C 
ATOM     26  C   LIG    1       -3.412  -7.237  -5.636  0.00  0.00    -0.280 C 
ENDBRANCH  16  19
ENDBRANCH  14  15
ENDBRANCH   1  14
TORSDOF 7
