REMARK  Name = ZINCrH000004nhUZ.0
REMARK                            x       y       z     vdW  Elec       q    Type
REMARK                         _______ _______ _______ _____ _____    ______ ____
ROOT
ATOM      1  C   LIG    1        1.418  -7.696   1.491  0.00  0.00    +0.570 C 
ATOM      2  N   LIG    1        0.689  -7.183   0.479  0.00  0.00    -0.610 N 
ATOM      3  C   LIG    1        1.225  -7.139  -0.890  0.00  0.00    +0.280 C 
ATOM      4  C   LIG    1        1.066  -5.713  -1.429  0.00  0.00    +0.190 C 
ATOM      5  N   LIG    1       -0.336  -5.296  -1.297  0.00  0.00    -0.480 N 
ATOM      6  C   LIG    1       -0.748  -5.248   0.113  0.00  0.00    +0.200 C 
ATOM      7  C   LIG    1       -0.663  -6.655   0.715  0.00  0.00    +0.300 C 
ATOM      8  O   LIG    1        0.921  -7.824   2.593  0.00  0.00    -0.530 OA
ENDROOT
BRANCH   5   9
ATOM      9  C   LIG    1       -0.554  -4.073  -1.922  0.00  0.00    +0.340 A 
ATOM     10  N   LIG    1        0.055  -2.988  -1.470  0.00  0.00    -0.490 NA
ATOM     11  C   LIG    1       -0.124  -1.808  -2.033  0.00  0.00    +0.350 A 
ATOM     12  C   LIG    1       -0.959  -1.663  -3.123  0.00  0.00    -0.230 A 
ATOM     13  C   LIG    1       -1.621  -2.776  -3.626  0.00  0.00    +0.150 A 
ATOM     14  C   LIG    1       -1.410  -4.001  -3.017  0.00  0.00    -0.060 A 
ATOM     15 CL   LIG    1       -2.208  -5.425  -3.607  0.00  0.00    -0.010 Cl
BRANCH  12  16
ATOM     16  C   LIG    1       -1.154  -0.310  -3.757  0.00  0.00    +0.520 C 
ATOM     17  F   LIG    1       -2.506   0.043  -3.694  0.00  0.00    -0.170 F 
ATOM     18  F   LIG    1       -0.746  -0.359  -5.095  0.00  0.00    -0.170 F 
ATOM     19  F   LIG    1       -0.391   0.641  -3.072  0.00  0.00    -0.170 F 
ENDBRANCH  12  16
ENDBRANCH   5   9
BRANCH   1  24
ATOM     20  C   LIG    1        4.668  -9.571   1.718  0.00  0.00    +0.130 A 
ATOM     21  C   LIG    1        5.452  -8.858   0.822  0.00  0.00    -0.060 A 
ATOM     22  C   LIG    1        4.925  -7.771   0.147  0.00  0.00    +0.050 A 
ATOM     23  C   LIG    1        3.615  -7.393   0.356  0.00  0.00    +0.000 A 
ATOM     24  C   LIG    1        2.821  -8.101   1.260  0.00  0.00    -0.090 A 
ATOM     25  C   LIG    1        3.353  -9.197   1.940  0.00  0.00    +0.040 A 
BRANCH  20  27
ATOM     26  C   LIG    1        6.553 -10.968   2.101  0.00  0.00    +0.250 C 
ATOM     27  O   LIG    1        5.191 -10.638   2.378  0.00  0.00    -0.310 OA
ENDBRANCH  20  27
ENDBRANCH   1  24
TORSDOF 4
