REMARK  Name = ZINCpe00000gN2lz.0
REMARK                            x       y       z     vdW  Elec       q    Type
REMARK                         _______ _______ _______ _____ _____    ______ ____
ROOT
ATOM      1  C   LIG    1       -0.028   1.096  -0.004  0.00  0.00    +0.300 C 
ATOM      2  N   LIG    1        1.378   1.476   0.044  0.00  0.00    -0.710 N 
ATOM      3  H   LIG    1        1.845   1.385   0.890  0.00  0.00    +0.410 HD
ATOM      4  C   LIG    1        2.064   1.940  -1.001  0.00  0.00    +0.520 C 
ATOM      5  C   LIG    1        1.456   2.175  -2.353  0.00  0.00    +0.090 C 
ATOM      6  C   LIG    1        0.130   1.419  -2.466  0.00  0.00    +0.030 C 
ATOM      7  O   LIG    1        3.243   2.185  -0.851  0.00  0.00    -0.540 OA
ATOM      8  C   LIG    1       -0.710   1.724  -1.220  0.00  0.00    +0.250 C 
ENDROOT
BRANCH   1  14
ATOM      9  C   LIG    1       -2.277  -0.388   1.602  0.00  0.00    +0.330 C 
ATOM     10  N   LIG    1       -1.697   0.914   1.941  0.00  0.00    -0.450 N 
ATOM     11  C   LIG    1       -2.031   1.690   2.995  0.00  0.00    +0.410 A 
ATOM     12  N   LIG    1       -1.301   2.772   2.966  0.00  0.00    -0.490 NA
ATOM     13  C   LIG    1       -0.481   2.724   1.906  0.00  0.00    +0.180 A 
ATOM     14  C   LIG    1       -0.716   1.572   1.249  0.00  0.00    -0.060 A 
ENDBRANCH   1  14
BRANCH   8  15
ATOM     15  N   LIG    1       -2.051   1.156  -1.380  0.00  0.00    -0.720 N 
ATOM     16  H   LIG    1       -2.249   0.274  -1.027  0.00  0.00    +0.390 HD
ATOM     17  C   LIG    1       -3.009   1.857  -2.018  0.00  0.00    +0.570 C 
ATOM     18  O   LIG    1       -2.760   2.962  -2.461  0.00  0.00    -0.510 OA
BRANCH  17  19
ATOM     19  C   LIG    1       -4.359   1.285  -2.179  0.00  0.00    -0.120 A 
ATOM     20  C   LIG    1       -4.647   0.013  -1.676  0.00  0.00    +0.050 A 
ATOM     21  C   LIG    1       -5.910  -0.516  -1.824  0.00  0.00    +0.040 A 
ATOM     22  C   LIG    1       -6.898   0.202  -2.478  0.00  0.00    +0.070 A 
ATOM     23  C   LIG    1       -6.627   1.461  -2.987  0.00  0.00    +0.030 A 
ATOM     24  O   LIG    1       -7.412   2.353  -3.659  0.00  0.00    -0.300 OA
ATOM     25  C   LIG    1       -6.498   3.277  -4.279  0.00  0.00    +0.440 C 
ATOM     26  O   LIG    1       -5.344   3.243  -3.420  0.00  0.00    -0.280 OA
ATOM     27  C   LIG    1       -5.356   2.011  -2.841  0.00  0.00    +0.100 A 
ENDBRANCH  17  19
ENDBRANCH   8  15
TORSDOF 3
