REMARK  Name = ZINCqH00000060mj.0
REMARK                            x       y       z     vdW  Elec       q    Type
REMARK                         _______ _______ _______ _____ _____    ______ ____
ROOT
ATOM      1  N   LIG    1        0.002  -0.004   0.002  0.00  0.00    -0.680 N 
ATOM      2  H   LIG    1        0.845  -0.477  -0.076  0.00  0.00    +0.410 HD
ATOM      3  C   LIG    1       -1.150  -0.694   0.111  0.00  0.00    +0.510 C 
ATOM      4  O   LIG    1       -2.211  -0.106   0.124  0.00  0.00    -0.490 OA
ENDROOT
BRANCH   1   9
ATOM      5  C   LIG    1       -1.084   3.469  -0.592  0.00  0.00    -0.110 A 
ATOM      6  C   LIG    1       -0.040   4.172   0.011  0.00  0.00    +0.060 A 
ATOM      7  C   LIG    1        1.003   3.487   0.601  0.00  0.00    +0.030 A 
ATOM      8  C   LIG    1        1.015   2.105   0.604  0.00  0.00    +0.020 A 
ATOM      9  C   LIG    1       -0.018   1.395   0.002  0.00  0.00    +0.140 A 
ATOM     10  C   LIG    1       -1.069   2.073  -0.594  0.00  0.00    +0.090 A 
BRANCH   5  11
ATOM     11  C   LIG    1       -2.201   4.199  -1.225  0.00  0.00    +0.510 C 
ATOM     12  O   LIG    1       -3.109   3.585  -1.749  0.00  0.00    -0.500 OA
BRANCH  11  14
ATOM     13  C   LIG    1       -3.342   6.197  -1.862  0.00  0.00    +0.260 C 
ATOM     14  O   LIG    1       -2.214   5.546  -1.222  0.00  0.00    -0.360 OA
ENDBRANCH  11  14
ENDBRANCH   5  11
ENDBRANCH   1   9
BRANCH   3  15
ATOM     15  C   LIG    1       -1.121  -2.197   0.216  0.00  0.00    +0.170 C 
BRANCH  15  16
ATOM     16  C   LIG    1       -2.530  -2.720   0.327  0.00  0.00    +0.080 A 
ATOM     17  C   LIG    1       -3.030  -3.635  -0.509  0.00  0.00    -0.080 A 
ATOM     18  S   LIG    1       -4.693  -3.962  -0.027  0.00  0.00    +0.130 S 
ATOM     19  C   LIG    1       -4.554  -2.829   1.247  0.00  0.00    +0.060 A 
ATOM     20  N   LIG    1       -3.373  -2.309   1.253  0.00  0.00    -0.440 NA
BRANCH  19  21
ATOM     21  C   LIG    1       -5.652  -2.488   2.221  0.00  0.00    +0.200 C 
BRANCH  21  22
ATOM     22  C   LIG    1       -6.468  -1.343   1.678  0.00  0.00    -0.090 A 
ATOM     23  C   LIG    1       -6.118  -0.040   1.980  0.00  0.00    +0.030 A 
ATOM     24  C   LIG    1       -6.864   1.010   1.478  0.00  0.00    +0.000 A 
ATOM     25  C   LIG    1       -7.965   0.757   0.682  0.00  0.00    +0.000 A 
ATOM     26  C   LIG    1       -8.318  -0.546   0.384  0.00  0.00    +0.000 A 
ATOM     27  C   LIG    1       -7.569  -1.596   0.882  0.00  0.00    +0.010 A 
ENDBRANCH  21  22
ENDBRANCH  19  21
ENDBRANCH  15  16
ENDBRANCH   3  15
TORSDOF 7
