REMARK  Name = ZINCqH0000006Khp.0
REMARK                            x       y       z     vdW  Elec       q    Type
REMARK                         _______ _______ _______ _____ _____    ______ ____
ROOT
ATOM      1  N   LIG    1       -3.622   3.406  -2.558  0.00  0.00    -0.720 N 
ATOM      2  H   LIG    1       -3.110   3.359  -3.381  0.00  0.00    +0.400 HD
ATOM      3  C   LIG    1       -3.092   2.944  -1.408  0.00  0.00    +0.520 C 
ATOM      4  O   LIG    1       -3.732   3.003  -0.379  0.00  0.00    -0.520 OA
ENDROOT
BRANCH   1   5
ATOM      5  C   LIG    1       -4.970   3.979  -2.565  0.00  0.00    +0.340 C 
BRANCH   5  12
ATOM      6  C   LIG    1       -5.746   3.483  -4.897  0.00  0.00    +0.150 A 
ATOM      7  C   LIG    1       -6.076   3.891  -6.182  0.00  0.00    -0.080 A 
ATOM      8  C   LIG    1       -5.969   5.223  -6.531  0.00  0.00    -0.040 A 
ATOM      9  C   LIG    1       -5.540   6.151  -5.600  0.00  0.00    -0.030 A 
ATOM     10  C   LIG    1       -5.217   5.748  -4.317  0.00  0.00    +0.070 A 
ATOM     11  C   LIG    1       -6.320   5.665  -7.928  0.00  0.00    +0.100 C 
ATOM     12  C   LIG    1       -5.322   4.418  -3.963  0.00  0.00    -0.150 A 
BRANCH   6  14
ATOM     13  C   LIG    1       -6.288   1.267  -5.565  0.00  0.00    +0.250 C 
ATOM     14  O   LIG    1       -5.845   2.172  -4.553  0.00  0.00    -0.310 OA
ENDBRANCH   6  14
ENDBRANCH   5  12
ENDBRANCH   1   5
BRANCH   3  15
ATOM     15  C   LIG    1       -1.705   2.354  -1.401  0.00  0.00    +0.080 C 
BRANCH  15  16
ATOM     16  C   LIG    1       -1.348   1.909   0.019  0.00  0.00    +0.080 C 
ATOM     17  S   LIG    1       -1.226   3.364   1.109  0.00  0.00    -0.030 S 
ATOM     18  C   LIG    1        0.310   4.067   0.595  0.00  0.00    -0.140 A 
ATOM     19  C   LIG    1        0.508   5.436   0.682  0.00  0.00    +0.110 A 
ATOM     20  C   LIG    1        1.721   5.983   0.306  0.00  0.00    +0.030 A 
ATOM     21  C   LIG    1        2.736   5.162  -0.152  0.00  0.00    -0.000 A 
ATOM     22  C   LIG    1        2.541   3.797  -0.246  0.00  0.00    +0.010 A 
ATOM     23 CL   LIG    1        4.262   5.850  -0.612  0.00  0.00    -0.050 Cl
ATOM     24  C   LIG    1        1.320   3.236   0.111  0.00  0.00    +0.170 A 
ATOM     25  N   LIG    1        1.145   1.859   0.001  0.00  0.00    -0.650 N 
ATOM     26  H   LIG    1        1.948   1.321  -0.090  0.00  0.00    +0.420 HD
ATOM     27  C   LIG    1       -0.014   1.209   0.009  0.00  0.00    +0.530 C 
ATOM     28  O   LIG    1        0.002  -0.004   0.002  0.00  0.00    -0.500 OA
ENDBRANCH  15  16
ENDBRANCH   3  15
TORSDOF 5
