REMARK  Name = ZINCrg00001JduUt.0
REMARK                            x       y       z     vdW  Elec       q    Type
REMARK                         _______ _______ _______ _____ _____    ______ ____
ROOT
ATOM      1  C   LIG    1       -0.742   1.573  -1.215  0.00  0.00    +0.530 C 
ATOM      2  N   LIG    1       -2.030   1.232  -1.415  0.00  0.00    -0.720 N 
ATOM      3  H   LIG    1       -2.488   0.667  -0.773  0.00  0.00    +0.410 HD
ATOM      4  O   LIG    1       -0.170   2.280  -2.017  0.00  0.00    -0.500 OA
ENDROOT
BRANCH   2   5
ATOM      5  C   LIG    1       -2.740   1.716  -2.603  0.00  0.00    +0.160 C 
ATOM      6  C   LIG    1       -2.774   3.249  -2.596  0.00  0.00    +0.280 C 
ATOM      7  O   LIG    1       -3.348   3.680  -1.360  0.00  0.00    -0.300 OA
ATOM      8  C   LIG    1       -4.515   3.107  -0.967  0.00  0.00    +0.130 A 
ATOM      9  C   LIG    1       -5.268   3.741   0.016  0.00  0.00    -0.010 A 
ATOM     10  C   LIG    1       -6.457   3.187   0.445  0.00  0.00    +0.050 A 
ATOM     11  C   LIG    1       -6.902   1.998  -0.103  0.00  0.00    -0.020 A 
ATOM     12  C   LIG    1       -6.157   1.367  -1.080  0.00  0.00    +0.050 A 
ATOM     13  C   LIG    1       -4.965   1.919  -1.516  0.00  0.00    -0.170 A 
ATOM     14  C   LIG    1       -4.182   1.202  -2.587  0.00  0.00    +0.140 C 
BRANCH   5  15
ATOM     15  C   LIG    1       -2.041   1.228  -3.845  0.00  0.00    +0.460 C 
ATOM     16  O   LIG    1       -2.684   0.938  -4.826  0.00  0.00    -0.500 OA
BRANCH  15  17
ATOM     17  O   LIG    1       -0.703   1.116  -3.863  0.00  0.00    -0.320 OA
ATOM     18  C   LIG    1       -0.098   0.641  -5.094  0.00  0.00    +0.250 C 
ENDBRANCH  15  17
ENDBRANCH   5  15
ENDBRANCH   2   5
BRANCH   1  24
ATOM     19  C   LIG    1       -0.493   0.505   3.457  0.00  0.00    +0.550 C 
ATOM     20  N   LIG    1        0.069   1.192   2.442  0.00  0.00    -0.610 N 
ATOM     21  C   LIG    1        1.488   1.572   2.491  0.00  0.00    +0.260 C 
ATOM     22  C   LIG    1        2.176   1.073   1.216  0.00  0.00    +0.010 C 
ATOM     23  C   LIG    1        1.424   1.604  -0.006  0.00  0.00    +0.060 C 
ATOM     24  C   LIG    1       -0.012   1.076   0.006  0.00  0.00    -0.020 C 
ATOM     25  C   LIG    1       -0.725   1.575   1.267  0.00  0.00    +0.300 C 
ATOM     26  O   LIG    1       -1.687   0.277   3.449  0.00  0.00    -0.540 OA
BRANCH  19  28
ATOM     27  C   LIG    1       -0.194  -0.735   5.521  0.00  0.00    +0.140 C 
ATOM     28  C   LIG    1        0.339   0.030   4.574  0.00  0.00    -0.090 C 
ENDBRANCH  19  28
ENDBRANCH   1  24
TORSDOF 5
