REMARK  Name = ZINCrD0000072pHy.0
REMARK                            x       y       z     vdW  Elec       q    Type
REMARK                         _______ _______ _______ _____ _____    ______ ____
ROOT
ATOM      1  C   LIG    1       -2.195  -0.472  -1.230  0.00  0.00    +0.270 A 
ATOM      2  N   LIG    1       -2.638   0.751  -1.462  0.00  0.00    -0.460 NA
ATOM      3  C   LIG    1       -3.807   0.593  -2.116  0.00  0.00    +0.220 A 
ATOM      4  N   LIG    1       -4.011  -0.693  -2.246  0.00  0.00    -0.360 NA
ATOM      5  O   LIG    1       -3.098  -1.318  -1.751  0.00  0.00    +0.100 OA
ENDROOT
BRANCH   3   6
ATOM      6  C   LIG    1       -4.699   1.678  -2.599  0.00  0.00    +0.060 A 
ATOM      7  C   LIG    1       -4.370   3.021  -2.393  0.00  0.00    -0.050 A 
ATOM      8  C   LIG    1       -5.220   4.001  -2.861  0.00  0.00    +0.320 A 
ATOM      9  N   LIG    1       -6.338   3.688  -3.489  0.00  0.00    -0.530 NA
ATOM     10  C   LIG    1       -6.691   2.429  -3.701  0.00  0.00    +0.410 A 
ATOM     11  C   LIG    1       -5.887   1.383  -3.266  0.00  0.00    -0.070 A 
BRANCH  10  12
ATOM     12  N   LIG    1       -7.880   2.152  -4.368  0.00  0.00    -0.620 N 
ATOM     13  C   LIG    1       -8.679   3.246  -4.926  0.00  0.00    +0.280 C 
ATOM     14  C   LIG    1       -8.333   0.767  -4.511  0.00  0.00    +0.300 C 
ENDBRANCH  10  12
ENDBRANCH   3   6
BRANCH   1  16
ATOM     15  C   LIG    1        0.002  -0.004   0.002  0.00  0.00    +0.060 A 
ATOM     16  C   LIG    1       -0.944  -0.837  -0.537  0.00  0.00    -0.160 A 
ATOM     17  C   LIG    1       -0.431  -2.141  -0.270  0.00  0.00    +0.070 A 
ATOM     18  N   LIG    1        0.689  -1.968   0.365  0.00  0.00    -0.340 NA
ATOM     19  O   LIG    1        0.944  -0.798   0.524  0.00  0.00    +0.110 OA
BRANCH  17  20
ATOM     20  C   LIG    1       -1.065  -3.456  -0.645  0.00  0.00    +0.060 C 
ATOM     21  C   LIG    1       -1.341  -4.270   0.623  0.00  0.00    +0.030 C 
ATOM     22  C   LIG    1       -1.911  -5.636   0.226  0.00  0.00    +0.000 C 
ATOM     23  C   LIG    1       -0.928  -6.338  -0.715  0.00  0.00    +0.210 C 
ATOM     24  O   LIG    1       -0.693  -5.513  -1.857  0.00  0.00    -0.370 OA
ATOM     25  C   LIG    1       -0.114  -4.242  -1.551  0.00  0.00    +0.230 C 
ENDBRANCH  17  20
BRANCH  15  27
ATOM     26  C   LIG    1       -0.735   1.996   1.269  0.00  0.00    +0.050 C 
ATOM     27  C   LIG    1       -0.018   1.503   0.010  0.00  0.00    +0.160 C 
ENDBRANCH  15  27
ENDBRANCH   1  16
TORSDOF 5
