REMARK  Name = ZINCqH0000002Db1.1
REMARK                            x       y       z     vdW  Elec       q    Type
REMARK                         _______ _______ _______ _____ _____    ______ ____
ROOT
ATOM      1  N   LIG    1       -4.207   3.239   1.516  0.00  0.00    -1.050 N 
ATOM      2  H   LIG    1       -4.738   2.474   1.247  0.00  0.00    +0.430 HD
ENDROOT
BRANCH   1   9
ATOM      3  N   LIG    1       -1.240   1.009  -0.939  0.00  0.00    -0.500 NA
ATOM      4  C   LIG    1       -0.203   1.106   0.113  0.00  0.00    +0.240 C 
ATOM      5  C   LIG    1       -0.732   2.100   1.122  0.00  0.00    -0.080 A 
ATOM      6  C   LIG    1       -0.108   2.820   2.121  0.00  0.00    +0.020 A 
ATOM      7  C   LIG    1       -0.840   3.679   2.921  0.00  0.00    +0.060 A 
ATOM      8  C   LIG    1       -2.199   3.821   2.723  0.00  0.00    -0.010 A 
ATOM      9  C   LIG    1       -2.832   3.098   1.719  0.00  0.00    +0.180 A 
ATOM     10  C   LIG    1       -2.096   2.237   0.918  0.00  0.00    -0.120 A 
ATOM     11  C   LIG    1       -2.497   1.337  -0.229  0.00  0.00    +0.230 C 
BRANCH   3  12
ATOM     12  C   LIG    1       -1.292  -0.345  -1.504  0.00  0.00    +0.160 C 
BRANCH  12  14
ATOM     13  C   LIG    1       -2.433  -1.809  -3.177  0.00  0.00    +0.020 C 
ATOM     14  C   LIG    1       -2.456  -0.441  -2.493  0.00  0.00    +0.010 C 
ENDBRANCH  12  14
ENDBRANCH   3  12
ENDBRANCH   1   9
BRANCH   1  15
ATOM     15  S   LIG    1       -4.929   4.713   1.737  0.00  0.00    +2.690 S 
ATOM     16  O   LIG    1       -4.571   5.144   3.042  0.00  0.00    -0.940 OA
ATOM     17  O   LIG    1       -6.276   4.567   1.308  0.00  0.00    -0.940 OA
BRANCH  15  18
ATOM     18  C   LIG    1       -4.169   5.839   0.615  0.00  0.00    -0.660 A 
ATOM     19  C   LIG    1       -3.445   6.891   1.086  0.00  0.00    +0.170 A 
ATOM     20  C   LIG    1       -2.834   7.788   0.211  0.00  0.00    +0.020 A 
ATOM     21  C   LIG    1       -2.951   7.644  -1.137  0.00  0.00    +0.130 A 
ATOM     22  C   LIG    1       -3.696   6.574  -1.662  0.00  0.00    +0.110 A 
ATOM     23  N   LIG    1       -3.829   6.408  -2.982  0.00  0.00    -0.460 NA
ATOM     24  C   LIG    1       -4.522   5.411  -3.477  0.00  0.00    +0.300 A 
ATOM     25  C   LIG    1       -5.153   4.478  -2.657  0.00  0.00    +0.010 A 
ATOM     26  C   LIG    1       -5.057   4.589  -1.298  0.00  0.00    +0.050 A 
ATOM     27  C   LIG    1       -4.312   5.660  -0.771  0.00  0.00    -0.020 A 
ENDBRANCH  15  18
ENDBRANCH   1  15
TORSDOF 5
