REMARK  Name = ZINCrg00000IYums.0
REMARK                            x       y       z     vdW  Elec       q    Type
REMARK                         _______ _______ _______ _____ _____    ______ ____
ROOT
ATOM      1  C   LIG    1       -1.267  -0.760   0.010  0.00  0.00    -0.070 A 
ATOM      2  C   LIG    1       -2.487  -0.082   0.031  0.00  0.00    +0.070 A 
ATOM      3  C   LIG    1       -3.669  -0.794   0.034  0.00  0.00    +0.120 A 
ATOM      4  C   LIG    1       -3.646  -2.177   0.026  0.00  0.00    -0.650 A 
ATOM      5  C   LIG    1       -2.441  -2.856   0.011  0.00  0.00    +0.130 A 
ATOM      6  C   LIG    1       -1.252  -2.156   0.002  0.00  0.00    +0.080 A 
ENDROOT
BRANCH   4   7
ATOM      7  S   LIG    1       -5.160  -3.079   0.035  0.00  0.00    +2.700 S 
ATOM      8  O   LIG    1       -4.871  -4.355  -0.519  0.00  0.00    -0.940 OA
ATOM      9  O   LIG    1       -6.149  -2.208  -0.495  0.00  0.00    -0.940 OA
BRANCH   7  10
ATOM     10  N   LIG    1       -5.566  -3.338   1.620  0.00  0.00    -1.110 NA
ATOM     11  H   LIG    1       -5.588  -4.241   1.973  0.00  0.00    +0.420 HD
BRANCH  10  12
ATOM     12  C   LIG    1       -5.893  -2.204   2.487  0.00  0.00    +0.290 C 
BRANCH  12  13
ATOM     13  C   LIG    1       -6.581  -2.713   3.755  0.00  0.00    +0.210 C 
BRANCH  13  14
ATOM     14  C   LIG    1       -6.909  -1.573   4.627  0.00  0.00    +0.200 C 
ATOM     15  N   LIG    1       -7.162  -0.694   5.300  0.00  0.00    -0.420 NA
ENDBRANCH  13  14
ENDBRANCH  12  13
ENDBRANCH  10  12
ENDBRANCH   7  10
ENDBRANCH   4   7
BRANCH   1  16
ATOM     16  C   LIG    1        0.002  -0.004   0.002  0.00  0.00    +0.510 C 
ATOM     17  O   LIG    1        1.062  -0.597  -0.011  0.00  0.00    -0.480 OA
BRANCH  16  18
ATOM     18  O   LIG    1       -0.016   1.343   0.009  0.00  0.00    -0.350 OA
BRANCH  18  19
ATOM     19  C   LIG    1        1.268   2.020   0.001  0.00  0.00    +0.380 C 
BRANCH  19  24
ATOM     20  N   LIG    1        0.930   4.313  -1.063  0.00  0.00    -0.290 N 
ATOM     21  N   LIG    1        0.753   5.513  -0.624  0.00  0.00    -0.080 NA
ATOM     22  N   LIG    1        0.768   5.490   0.663  0.00  0.00    -0.070 NA
ATOM     23  N   LIG    1        0.948   4.280   1.067  0.00  0.00    -0.270 NA
ATOM     24  C   LIG    1        1.051   3.511   0.011  0.00  0.00    +0.170 A 
BRANCH  20  25
ATOM     25  C   LIG    1        0.985   3.900  -2.468  0.00  0.00    +0.340 C 
BRANCH  25  26
ATOM     26  C   LIG    1       -0.424   3.548  -2.951  0.00  0.00    +0.020 C 
BRANCH  26  28
ATOM     27  C   LIG    1       -1.775   2.765  -4.902  0.00  0.00    +0.030 C 
ATOM     28  C   LIG    1       -0.367   3.117  -4.418  0.00  0.00    +0.020 C 
ENDBRANCH  26  28
ENDBRANCH  25  26
ENDBRANCH  20  25
ENDBRANCH  19  24
ENDBRANCH  18  19
ENDBRANCH  16  18
ENDBRANCH   1  16
TORSDOF 12
