REMARK  Name = ZINCpk00000xI9Cj.0
REMARK                            x       y       z     vdW  Elec       q    Type
REMARK                         _______ _______ _______ _____ _____    ______ ____
ROOT
ATOM      1  N   LIG    1        6.125   2.740  -1.100  0.00  0.00    -0.540 NA
ATOM      2  C   LIG    1        6.039   1.812   0.036  0.00  0.00    +0.190 C 
ATOM      3  C   LIG    1        4.717   1.044  -0.036  0.00  0.00    +0.220 C 
ATOM      4  N   LIG    1        3.598   1.996  -0.021  0.00  0.00    -0.470 N 
ATOM      5  C   LIG    1        3.685   2.924  -1.157  0.00  0.00    +0.190 C 
ATOM      6  C   LIG    1        5.006   3.693  -1.085  0.00  0.00    +0.220 C 
ENDROOT
BRANCH   4   7
ATOM      7  C   LIG    1        2.377   1.330  -0.013  0.00  0.00    +0.290 A 
ATOM      8  N   LIG    1        2.351   0.007  -0.020  0.00  0.00    -0.500 NA
ATOM      9  C   LIG    1        1.214  -0.664  -0.013  0.00  0.00    +0.290 A 
ATOM     10  C   LIG    1        0.002  -0.004   0.002  0.00  0.00    -0.030 A 
ATOM     11  C   LIG    1       -0.017   1.385   0.010  0.00  0.00    +0.060 A 
ATOM     12  C   LIG    1        1.191   2.062   0.002  0.00  0.00    +0.030 A 
ATOM     13  F   LIG    1        1.220   3.412   0.009  0.00  0.00    -0.120 F 
ENDBRANCH   4   7
BRANCH   1  14
ATOM     14  C   LIG    1        7.415   3.444  -1.108  0.00  0.00    +0.280 C 
BRANCH  14  20
ATOM     15  C   LIG    1        6.996   5.443  -2.747  0.00  0.00    -0.000 A 
ATOM     16  N   LIG    1        7.395   5.727  -3.971  0.00  0.00    -0.230 NA
ATOM     17  N   LIG    1        8.143   4.785  -4.421  0.00  0.00    -0.280 N 
ATOM     18  C   LIG    1        8.282   3.815  -3.492  0.00  0.00    +0.190 A 
ATOM     19  C   LIG    1        8.757   4.766  -5.751  0.00  0.00    +0.370 C 
ATOM     20  C   LIG    1        7.570   4.195  -2.406  0.00  0.00    -0.130 A 
BRANCH  15  21
ATOM     21  C   LIG    1        6.122   6.270  -1.893  0.00  0.00    +0.550 C 
ATOM     22  O   LIG    1        5.831   5.893  -0.775  0.00  0.00    -0.490 OA
BRANCH  21  23
ATOM     23  O   LIG    1        5.646   7.444  -2.353  0.00  0.00    -0.340 OA
BRANCH  23  25
ATOM     24  C   LIG    1        4.353   9.497  -2.151  0.00  0.00    +0.070 C 
ATOM     25  C   LIG    1        4.792   8.205  -1.459  0.00  0.00    +0.200 C 
ENDBRANCH  23  25
ENDBRANCH  21  23
ENDBRANCH  15  21
ENDBRANCH  14  20
ENDBRANCH   1  14
TORSDOF 6
