REMARK  Name = ZINCkj00000haOqG.1
REMARK                            x       y       z     vdW  Elec       q    Type
REMARK                         _______ _______ _______ _____ _____    ______ ____
ROOT
ATOM      1  N   LIG    1        0.002  -0.004   0.002  0.00  0.00    -1.000 NA
ATOM      2  C   LIG    1       -0.018   1.461   0.010  0.00  0.00    +0.300 C 
ENDROOT
BRANCH   1   6
ATOM      3  N   LIG    1       -0.034  -0.631  -4.166  0.00  0.00    -0.380 N 
ATOM      4  C   LIG    1       -1.220  -1.072  -3.422  0.00  0.00    +0.260 C 
ATOM      5  C   LIG    1       -1.262  -0.373  -2.061  0.00  0.00    +0.060 C 
ATOM      6  C   LIG    1       -0.000  -0.730  -1.271  0.00  0.00    +0.260 C 
ATOM      7  C   LIG    1        1.232  -0.332  -2.089  0.00  0.00    +0.070 C 
ATOM      8  C   LIG    1        1.182  -1.032  -3.449  0.00  0.00    +0.170 C 
ATOM      9  C   LIG    1        2.411  -0.638  -4.269  0.00  0.00    +0.100 C 
ATOM     10  H   LIG    1       -0.052   0.374  -4.259  0.00  0.00    +0.420 HD
BRANCH   3  12
ATOM     11  C   LIG    1       -1.235  -0.724  -6.298  0.00  0.00    +0.080 C 
ATOM     12  C   LIG    1       -0.038  -1.245  -5.500  0.00  0.00    +0.250 C 
ENDBRANCH   3  12
ENDBRANCH   1   6
BRANCH   1  13
ATOM     13  S   LIG    1        0.027  -0.840   1.431  0.00  0.00    +2.600 S 
ATOM     14  O   LIG    1        0.629   0.060   2.353  0.00  0.00    -0.930 OA
ATOM     15  O   LIG    1        0.646  -2.076   1.104  0.00  0.00    -0.950 OA
BRANCH  13  16
ATOM     16  C   LIG    1       -1.723  -1.092   1.839  0.00  0.00    -0.450 C 
ATOM     17  C   LIG    1       -2.443   0.260   1.865  0.00  0.00    +0.040 C 
ATOM     18  C   LIG    1       -3.898   0.045   2.288  0.00  0.00    +0.220 C 
ATOM     19  O   LIG    1       -3.934  -0.596   3.565  0.00  0.00    -0.370 OA
ATOM     20  C   LIG    1       -3.317  -1.885   3.587  0.00  0.00    +0.240 C 
ATOM     21  C   LIG    1       -1.838  -1.748   3.218  0.00  0.00    +0.030 C 
ENDBRANCH  13  16
ENDBRANCH   1  13
TORSDOF 4
