REMARK  Name = ZINCkj00000haOqG.0
REMARK                            x       y       z     vdW  Elec       q    Type
REMARK                         _______ _______ _______ _____ _____    ______ ____
ROOT
ATOM      1  N   LIG    1        1.490   3.278  -1.327  0.00  0.00    -1.000 NA
ATOM      2  C   LIG    1        2.933   3.061  -1.198  0.00  0.00    +0.310 C 
ENDROOT
BRANCH   1   6
ATOM      3  N   LIG    1        1.373   2.639   2.123  0.00  0.00    -0.380 N 
ATOM      4  C   LIG    1        2.213   1.915   1.161  0.00  0.00    +0.240 C 
ATOM      5  C   LIG    1        1.329   1.283   0.083  0.00  0.00    +0.080 C 
ATOM      6  C   LIG    1        0.551   2.384  -0.643  0.00  0.00    +0.270 C 
ATOM      7  C   LIG    1       -0.263   3.181   0.381  0.00  0.00    +0.060 C 
ATOM      8  C   LIG    1        0.680   3.743   1.447  0.00  0.00    +0.170 C 
ATOM      9  C   LIG    1        1.709   4.662   0.785  0.00  0.00    +0.040 C 
ATOM     10  H   LIG    1        0.693   2.007   2.517  0.00  0.00    +0.420 HD
BRANCH   3  12
ATOM     11  C   LIG    1        2.836   2.024   3.988  0.00  0.00    +0.080 C 
ATOM     12  C   LIG    1        2.217   3.179   3.197  0.00  0.00    +0.240 C 
ENDBRANCH   3  12
ENDBRANCH   1   6
BRANCH   1  13
ATOM     13  S   LIG    1        0.920   4.532  -2.246  0.00  0.00    +2.600 S 
ATOM     14  O   LIG    1       -0.484   4.317  -2.298  0.00  0.00    -0.930 OA
ATOM     15  O   LIG    1        1.712   4.491  -3.425  0.00  0.00    -0.930 OA
BRANCH  13  16
ATOM     16  C   LIG    1        1.301   6.015  -1.274  0.00  0.00    -0.450 C 
ATOM     17  C   LIG    1        0.191   6.253  -0.245  0.00  0.00    +0.030 C 
ATOM     18  C   LIG    1        0.481   7.549   0.516  0.00  0.00    +0.230 C 
ATOM     19  O   LIG    1        0.581   8.632  -0.410  0.00  0.00    -0.370 OA
ATOM     20  C   LIG    1        1.633   8.487  -1.367  0.00  0.00    +0.240 C 
ATOM     21  C   LIG    1        1.389   7.229  -2.204  0.00  0.00    +0.040 C 
ENDBRANCH  13  16
ENDBRANCH   1  13
TORSDOF 4
