REMARK  Name = ZINCue000000040D.1
REMARK                            x       y       z     vdW  Elec       q    Type
REMARK                         _______ _______ _______ _____ _____    ______ ____
ROOT
ATOM      1  O   LIG    1        1.130   2.868   0.007  0.00  0.00    -0.520 OA
ATOM      2  C   LIG    1        1.147   1.655   0.000  0.00  0.00    +0.520 C 
ATOM      3  N   LIG    1       -0.011   0.966   0.007  0.00  0.00    -0.730 N 
ATOM      4  H   LIG    1        0.002  -0.004   0.002  0.00  0.00    +0.400 HD
ENDROOT
BRANCH   3   5
ATOM      5  C   LIG    1       -1.290   1.681   0.017  0.00  0.00    +0.230 C 
ATOM      6  C   LIG    1       -1.667   2.032   1.458  0.00  0.00    +0.020 C 
ATOM      7  C   LIG    1       -1.794   0.747   2.279  0.00  0.00    +0.020 C 
ATOM      8  C   LIG    1       -2.881  -0.141   1.670  0.00  0.00    +0.240 C 
ATOM      9  C   LIG    1       -2.504  -0.492   0.229  0.00  0.00    +0.020 C 
ATOM     10  C   LIG    1       -2.376   0.792  -0.592  0.00  0.00    +0.040 C 
BRANCH   8  11
ATOM     11  N   LIG    1       -3.003  -1.372   2.456  0.00  0.00    -0.570 N 
ATOM     12  C   LIG    1       -1.990  -2.232   2.618  0.00  0.00    +0.530 C 
ATOM     13  C   LIG    1       -2.450  -3.385   3.482  0.00  0.00    +0.080 C 
ATOM     14  C   LIG    1       -3.923  -3.045   3.786  0.00  0.00    +0.080 C 
ATOM     15  O   LIG    1       -0.879  -2.104   2.150  0.00  0.00    -0.470 OA
ATOM     16  C   LIG    1       -4.139  -1.731   3.066  0.00  0.00    +0.530 C 
ATOM     17  O   LIG    1       -5.176  -1.104   3.046  0.00  0.00    -0.480 OA
ENDBRANCH   8  11
ENDBRANCH   3   5
BRANCH   2  18
ATOM     18  C   LIG    1        2.462   0.920  -0.017  0.00  0.00    +0.100 C 
BRANCH  18  19
ATOM     19  C   LIG    1        3.594   1.915  -0.022  0.00  0.00    -0.030 A 
ATOM     20  C   LIG    1        4.105   2.373  -1.222  0.00  0.00    -0.030 A 
ATOM     21  C   LIG    1        5.140   3.290  -1.230  0.00  0.00    +0.040 A 
ATOM     22  C   LIG    1        5.673   3.742  -0.039  0.00  0.00    -0.080 A 
ATOM     23  C   LIG    1        5.166   3.280   1.167  0.00  0.00    +0.150 A 
ATOM     24  C   LIG    1        4.124   2.364   1.172  0.00  0.00    -0.020 A 
BRANCH  23  25
ATOM     25  O   LIG    1        5.689   3.723   2.340  0.00  0.00    -0.310 OA
BRANCH  25  26
ATOM     26  C   LIG    1        6.760   4.665   2.258  0.00  0.00    +0.320 C 
BRANCH  26  27
ATOM     27  C   LIG    1        7.207   5.040   3.647  0.00  0.00    +0.040 A 
ATOM     28  N   LIG    1        6.743   6.039   4.384  0.00  0.00    -0.370 NA
ATOM     29  N   LIG    1        7.378   6.023   5.506  0.00  0.00    -0.190 NA
ATOM     30  N   LIG    1        8.228   5.056   5.494  0.00  0.00    -0.190 NA
ATOM     31  N   LIG    1        8.143   4.437   4.365  0.00  0.00    -0.370 NA
ENDBRANCH  26  27
ENDBRANCH  25  26
ENDBRANCH  23  25
ENDBRANCH  18  19
ENDBRANCH   2  18
TORSDOF 7
