REMARK  Name = ZINCvU0000000DVq.0
REMARK                            x       y       z     vdW  Elec       q    Type
REMARK                         _______ _______ _______ _____ _____    ______ ____
ROOT
ATOM      1  C   LIG    1        1.837   5.835   0.016  0.00  0.00    -0.120 A 
ATOM      2  C   LIG    1        0.541   6.355   0.025  0.00  0.00    +0.090 A 
ATOM      3  C   LIG    1        0.349   7.721   0.039  0.00  0.00    +0.030 A 
ATOM      4  C   LIG    1        1.438   8.576   0.033  0.00  0.00    -0.050 A 
ATOM      5  C   LIG    1        2.724   8.068   0.019  0.00  0.00    +0.030 A 
ATOM      6  C   LIG    1        2.931   6.704   0.010  0.00  0.00    +0.090 A 
ENDROOT
BRANCH   1   7
ATOM      7  C   LIG    1        2.051   4.374   0.006  0.00  0.00    +0.510 C 
ATOM      8  O   LIG    1        3.179   3.925  -0.007  0.00  0.00    -0.500 OA
BRANCH   7   9
ATOM      9  O   LIG    1        0.994   3.538   0.012  0.00  0.00    -0.330 OA
BRANCH   9  10
ATOM     10  C   LIG    1        1.278   2.115   0.001  0.00  0.00    +0.250 C 
BRANCH  10  17
ATOM     11  C   LIG    1        1.273  -0.973   2.475  0.00  0.00    +0.020 C 
ATOM     12  C   LIG    1        1.287  -1.734   1.147  0.00  0.00    -0.020 C 
ATOM     13  C   LIG    1        0.048  -2.628   1.058  0.00  0.00    +0.030 C 
ATOM     14  C   LIG    1       -1.213  -1.768   1.171  0.00  0.00    -0.030 C 
ATOM     15  C   LIG    1       -1.252  -0.770   0.010  0.00  0.00    +0.280 C 
ATOM     16  N   LIG    1        0.002  -0.004   0.002  0.00  0.00    -0.610 N 
ATOM     17  C   LIG    1       -0.016   1.344   0.009  0.00  0.00    +0.520 C 
ATOM     18  O   LIG    1       -1.075   1.936   0.018  0.00  0.00    -0.520 OA
ATOM     19  C   LIG    1       -2.450  -2.666   1.115  0.00  0.00    +0.030 C 
ATOM     20  C   LIG    1        1.276  -0.735  -0.020  0.00  0.00    +0.260 C 
ENDBRANCH  10  17
ENDBRANCH   9  10
ENDBRANCH   7   9
ENDBRANCH   1   7
BRANCH   4  21
ATOM     21  C   LIG    1        1.220  10.067   0.042  0.00  0.00    +0.150 C 
BRANCH  21  22
ATOM     22  S   LIG    1        1.117  10.671  -1.661  0.00  0.00    +0.020 S 
BRANCH  22  23
ATOM     23  C   LIG    1        0.869  12.390  -1.362  0.00  0.00    +0.080 A 
ATOM     24  N   LIG    1        0.794  12.930  -0.193  0.00  0.00    -0.470 NA
ATOM     25  C   LIG    1        0.606  14.263  -0.126  0.00  0.00    +0.090 A 
ATOM     26  C   LIG    1        0.495  15.083   1.017  0.00  0.00    +0.070 A 
ATOM     27  C   LIG    1        0.296  16.434   0.886  0.00  0.00    +0.040 A 
ATOM     28  C   LIG    1        0.200  17.016  -0.369  0.00  0.00    +0.040 A 
ATOM     29  C   LIG    1        0.305  16.235  -1.499  0.00  0.00    +0.060 A 
ATOM     30  C   LIG    1        0.507  14.862  -1.386  0.00  0.00    -0.170 A 
ATOM     31  S   LIG    1        0.680  13.610  -2.613  0.00  0.00    +0.110 S 
ENDBRANCH  22  23
ENDBRANCH  21  22
ENDBRANCH   4  21
TORSDOF 7
