REMARK  Name = ZINCpe00000y96HG.0
REMARK                            x       y       z     vdW  Elec       q    Type
REMARK                         _______ _______ _______ _____ _____    ______ ____
ROOT
ATOM      1  C   LIG    1       -0.427  -3.992  -0.429  0.00  0.00    +0.510 C 
ATOM      2  N   LIG    1       -0.425  -2.683  -0.751  0.00  0.00    -0.610 N 
ATOM      3  C   LIG    1       -1.649  -1.879  -0.622  0.00  0.00    +0.270 C 
ATOM      4  C   LIG    1       -1.349  -0.669   0.271  0.00  0.00    +0.270 C 
ATOM      5  N   LIG    1       -0.123  -0.020  -0.214  0.00  0.00    -0.610 N 
ATOM      6  C   LIG    1        1.099  -0.825  -0.348  0.00  0.00    +0.290 C 
ATOM      7  C   LIG    1       -0.121   1.289  -0.536  0.00  0.00    +0.570 C 
ATOM      8  O   LIG    1        0.918   1.837  -0.848  0.00  0.00    -0.520 OA
ATOM      9  C   LIG    1        0.801  -2.034  -1.236  0.00  0.00    +0.210 C 
ATOM     10  C   LIG    1        1.967  -3.022  -1.169  0.00  0.00    +0.070 C 
ATOM     11  O   LIG    1        0.608  -4.624  -0.455  0.00  0.00    -0.520 OA
ENDROOT
BRANCH   7  12
ATOM     12  C   LIG    1       -1.387   2.058  -0.515  0.00  0.00    -0.080 A 
ATOM     13  C   LIG    1       -2.158   2.143   0.648  0.00  0.00    -0.010 A 
ATOM     14  C   LIG    1       -3.328   2.876   0.625  0.00  0.00    +0.260 A 
ATOM     15  N   LIG    1       -3.726   3.481  -0.476  0.00  0.00    -0.470 NA
ATOM     16  C   LIG    1       -3.032   3.422  -1.596  0.00  0.00    +0.130 A 
ATOM     17  C   LIG    1       -3.540   4.136  -2.823  0.00  0.00    +0.130 C 
ATOM     18  C   LIG    1       -1.847   2.716  -1.660  0.00  0.00    -0.090 A 
ATOM     19  C   LIG    1       -1.062   2.655  -2.945  0.00  0.00    +0.110 C 
ENDBRANCH   7  12
BRANCH   1  20
ATOM     20  C   LIG    1       -1.714  -4.670  -0.038  0.00  0.00    +0.300 C 
BRANCH  20  22
ATOM     21  C   LIG    1       -2.463  -6.888   0.638  0.00  0.00    +0.510 C 
ATOM     22  N   LIG    1       -1.452  -6.080   0.263  0.00  0.00    -0.720 N 
ATOM     23  H   LIG    1       -0.551  -6.431   0.191  0.00  0.00    +0.410 HD
ATOM     24  O   LIG    1       -3.590  -6.448   0.727  0.00  0.00    -0.540 OA
BRANCH  21  26
ATOM     25  C   LIG    1       -3.501  -9.026   1.344  0.00  0.00    +0.040 C 
ATOM     26  C   LIG    1       -2.194  -8.338   0.947  0.00  0.00    +0.060 C 
ENDBRANCH  21  26
ENDBRANCH  20  22
ENDBRANCH   1  20
TORSDOF 4
