REMARK  Name = ZINCrH000004mQfk.0
REMARK                            x       y       z     vdW  Elec       q    Type
REMARK                         _______ _______ _______ _____ _____    ______ ____
ROOT
ATOM      1  C   LIG    1        1.248   1.715  -0.004  0.00  0.00    +0.310 C 
ENDROOT
BRANCH   1   5
ATOM      2  N   LIG    1       -2.345   0.934   0.018  0.00  0.00    -0.680 N 
ATOM      3  H   LIG    1       -2.334  -0.033  -0.062  0.00  0.00    +0.410 HD
ATOM      4  C   LIG    1       -1.187   1.624   0.018  0.00  0.00    +0.710 C 
ATOM      5  N   LIG    1       -0.011   0.966   0.001  0.00  0.00    -0.720 N 
ATOM      6  H   LIG    1        0.002  -0.004  -0.011  0.00  0.00    +0.400 HD
ATOM      7  O   LIG    1       -1.204   2.839   0.034  0.00  0.00    -0.570 OA
BRANCH   2  11
ATOM      8  C   LIG    1       -5.977   2.956   0.360  0.00  0.00    +0.110 A 
ATOM      9  C   LIG    1       -4.925   3.532  -0.337  0.00  0.00    +0.000 A 
ATOM     10  C   LIG    1       -3.722   2.864  -0.451  0.00  0.00    +0.070 A 
ATOM     11  C   LIG    1       -3.566   1.614   0.134  0.00  0.00    +0.130 A 
ATOM     12  C   LIG    1       -4.620   1.035   0.827  0.00  0.00    +0.030 A 
ATOM     13  C   LIG    1       -5.821   1.707   0.944  0.00  0.00    -0.060 A 
BRANCH   8  15
ATOM     14  C   LIG    1       -8.200   2.962   1.202  0.00  0.00    +0.250 C 
ATOM     15  O   LIG    1       -7.161   3.615   0.471  0.00  0.00    -0.320 OA
ENDBRANCH   8  15
ENDBRANCH   2  11
ENDBRANCH   1   5
BRANCH   1  16
ATOM     16  C   LIG    1        1.599   2.096  -1.420  0.00  0.00    +0.450 C 
ATOM     17  O   LIG    1        0.872   1.775  -2.330  0.00  0.00    -0.490 OA
BRANCH  16  18
ATOM     18  O   LIG    1        2.719   2.793  -1.669  0.00  0.00    -0.350 OA
BRANCH  18  19
ATOM     19  C   LIG    1        2.993   3.125  -3.056  0.00  0.00    +0.120 C 
ATOM     20  C   LIG    1        3.119   1.838  -3.873  0.00  0.00    +0.030 C 
ATOM     21  C   LIG    1        4.301   3.914  -3.142  0.00  0.00    +0.080 C 
ATOM     22  C   LIG    1        1.849   3.973  -3.613  0.00  0.00    +0.030 C 
ENDBRANCH  18  19
ENDBRANCH  16  18
ENDBRANCH   1  16
BRANCH   1  23
ATOM     23  C   LIG    1        2.362   0.845   0.581  0.00  0.00    +0.120 C 
BRANCH  23  24
ATOM     24  C   LIG    1        2.071   0.566   2.033  0.00  0.00    -0.090 A 
ATOM     25  C   LIG    1        2.548   1.420   3.010  0.00  0.00    +0.020 A 
ATOM     26  C   LIG    1        2.277   1.167   4.341  0.00  0.00    +0.000 A 
ATOM     27  C   LIG    1        1.538   0.054   4.697  0.00  0.00    +0.000 A 
ATOM     28  C   LIG    1        1.066  -0.803   3.720  0.00  0.00    +0.000 A 
ATOM     29  C   LIG    1        1.332  -0.547   2.388  0.00  0.00    +0.010 A 
ENDBRANCH  23  24
ENDBRANCH   1  23
TORSDOF 8
