REMARK  Name = ZINCpe000000UzlJ.0
REMARK                            x       y       z     vdW  Elec       q    Type
REMARK                         _______ _______ _______ _____ _____    ______ ____
ROOT
ATOM      1  C   LIG    1       -4.592   8.177   0.889  0.00  0.00    +0.520 C 
ATOM      2  N   LIG    1       -3.427   7.499   0.870  0.00  0.00    -0.600 N 
ATOM      3  C   LIG    1       -2.144   8.215   0.864  0.00  0.00    +0.290 C 
ATOM      4  C   LIG    1       -1.325   7.743  -0.344  0.00  0.00    +0.290 C 
ATOM      5  N   LIG    1       -1.315   6.274  -0.359  0.00  0.00    -0.610 N 
ATOM      6  C   LIG    1       -2.599   5.557  -0.359  0.00  0.00    +0.280 C 
ATOM      7  C   LIG    1       -0.151   5.595  -0.380  0.00  0.00    +0.570 C 
ATOM      8  O   LIG    1        0.903   6.194  -0.285  0.00  0.00    -0.520 OA
ATOM      9  C   LIG    1       -3.418   6.029   0.855  0.00  0.00    +0.270 C 
ATOM     10  O   LIG    1       -4.590   9.388   0.810  0.00  0.00    -0.500 OA
ENDROOT
BRANCH   7  11
ATOM     11  C   LIG    1       -0.155   4.124  -0.516  0.00  0.00    -0.150 A 
ATOM     12  C   LIG    1        0.825   3.359   0.119  0.00  0.00    +0.120 A 
ATOM     13  C   LIG    1        0.816   1.987  -0.012  0.00  0.00    -0.010 A 
ATOM     14  C   LIG    1       -0.164   1.366  -0.772  0.00  0.00    +0.130 A 
ATOM     15  C   LIG    1       -1.136   2.122  -1.409  0.00  0.00    -0.010 A 
ATOM     16  F   LIG    1       -0.168   0.021  -0.897  0.00  0.00    -0.130 F 
ATOM     17  C   LIG    1       -1.140   3.494  -1.281  0.00  0.00    +0.080 A 
ENDBRANCH   7  11
BRANCH   1  20
ATOM     18  C   LIG    1       -6.019   7.391  -1.424  0.00  0.00    +0.310 C 
ATOM     19  N   LIG    1       -6.581   7.115  -0.100  0.00  0.00    -0.600 N 
ATOM     20  C   LIG    1       -5.885   7.438   1.008  0.00  0.00    +0.520 C 
ATOM     21  O   LIG    1       -6.309   7.128   2.102  0.00  0.00    -0.490 OA
BRANCH  19  22
ATOM     22  C   LIG    1       -7.900   6.488   0.020  0.00  0.00    +0.300 C 
BRANCH  22  23
ATOM     23  C   LIG    1       -8.977   7.573   0.071  0.00  0.00    +0.360 C 
ATOM     24  F   LIG    1       -8.928   8.334  -1.102  0.00  0.00    -0.200 F 
ATOM     25  F   LIG    1       -8.753   8.402   1.175  0.00  0.00    -0.190 F 
ENDBRANCH  22  23
ENDBRANCH  19  22
ENDBRANCH   1  20
TORSDOF 4
