REMARK  Name = ZINCpk000000nHwA.0
REMARK                            x       y       z     vdW  Elec       q    Type
REMARK                         _______ _______ _______ _____ _____    ______ ____
ROOT
ATOM      1  C   LIG    1        1.383   4.023  -1.403  0.00  0.00    +0.570 C 
ATOM      2  N   LIG    1        1.442   3.486  -0.168  0.00  0.00    -0.710 N 
ATOM      3  H   LIG    1        1.492   4.064   0.610  0.00  0.00    +0.400 HD
ATOM      4  O   LIG    1        1.320   3.300  -2.378  0.00  0.00    -0.510 OA
ENDROOT
BRANCH   2   5
ATOM      5  C   LIG    1        1.429   2.031  -0.001  0.00  0.00    +0.250 C 
ATOM      6  C   LIG    1       -0.019   1.526   0.010  0.00  0.00    +0.020 C 
ATOM      7  C   LIG    1        0.002  -0.004   0.002  0.00  0.00    +0.090 C 
ATOM      8  C   LIG    1        0.947  -0.508   1.054  0.00  0.00    +0.520 C 
ATOM      9  N   LIG    1        1.888   0.248   1.622  0.00  0.00    -0.710 N 
ATOM     10  H   LIG    1        2.477  -0.169   2.271  0.00  0.00    +0.400 HD
ATOM     11  O   LIG    1        0.850  -1.664   1.407  0.00  0.00    -0.550 OA
ATOM     12  C   LIG    1        2.086   1.662   1.330  0.00  0.00    +0.210 C 
BRANCH  12  13
ATOM     13  C   LIG    1        3.586   1.957   1.253  0.00  0.00    +0.160 C 
ATOM     14  C   LIG    1        4.256   1.622   2.603  0.00  0.00    +0.010 C 
ATOM     15  C   LIG    1        5.280   2.779   2.757  0.00  0.00    +0.020 C 
ATOM     16  C   LIG    1        4.508   3.947   2.094  0.00  0.00    +0.200 C 
ATOM     17  O   LIG    1        3.794   3.351   1.000  0.00  0.00    -0.360 OA
ENDBRANCH  12  13
ENDBRANCH   2   5
BRANCH   1  23
ATOM     18  C   LIG    1        1.341   6.061  -2.852  0.00  0.00    +0.380 A 
ATOM     19  N   LIG    1        1.347   7.375  -2.998  0.00  0.00    -0.550 NA
ATOM     20  C   LIG    1        1.415   8.189  -1.962  0.00  0.00    +0.340 A 
ATOM     21  C   LIG    1        1.477   7.701  -0.670  0.00  0.00    -0.080 A 
ATOM     22  C   LIG    1        1.468   6.333  -0.458  0.00  0.00    +0.140 A 
ATOM     23  C   LIG    1        1.395   5.489  -1.571  0.00  0.00    -0.210 A 
BRANCH  18  24
ATOM     24  O   LIG    1        1.276   5.262  -3.943  0.00  0.00    -0.260 OA
BRANCH  24  26
ATOM     25  C   LIG    1        1.880   5.014  -6.270  0.00  0.00    +0.060 C 
ATOM     26  C   LIG    1        1.223   5.908  -5.217  0.00  0.00    +0.170 C 
ATOM     27  C   LIG    1       -0.237   6.159  -5.601  0.00  0.00    +0.020 C 
ENDBRANCH  24  26
ENDBRANCH  18  24
ENDBRANCH   1  23
TORSDOF 5
