REMARK  Name = ZINCtV00000tRSLP.0
REMARK                            x       y       z     vdW  Elec       q    Type
REMARK                         _______ _______ _______ _____ _____    ______ ____
ROOT
ATOM      1  C   LIG    1        0.023  -0.811   1.117  0.00  0.00    +0.050 A 
ATOM      2  C   LIG    1        0.039  -2.113   0.704  0.00  0.00    -0.110 A 
ATOM      3  C   LIG    1        0.029  -2.099  -0.691  0.00  0.00    -0.120 A 
ATOM      4  C   LIG    1       -0.003  -0.783  -1.099  0.00  0.00    -0.010 A 
ATOM      5  C   LIG    1       -0.026  -0.428  -2.564  0.00  0.00    +0.350 C 
ATOM      6  O   LIG    1        0.585  -1.481  -3.314  0.00  0.00    -0.300 OA
ATOM      7  C   LIG    1        0.311  -2.778  -3.030  0.00  0.00    +0.120 A 
ATOM      8  C   LIG    1        0.315  -3.737  -4.028  0.00  0.00    -0.010 A 
ATOM      9  C   LIG    1        0.077  -5.063  -3.716  0.00  0.00    +0.030 A 
ATOM     10  C   LIG    1       -0.170  -5.449  -2.411  0.00  0.00    -0.010 A 
ATOM     11  C   LIG    1       -0.187  -4.503  -1.401  0.00  0.00    +0.040 A 
ATOM     12  C   LIG    1        0.045  -3.175  -1.707  0.00  0.00    -0.060 A 
ATOM     13  C   LIG    1        0.065  -3.333   1.588  0.00  0.00    +0.120 C 
ATOM     14  N   LIG    1        0.002  -0.004   0.002  0.00  0.00    -0.400 N 
ATOM     15  C   LIG    1       -0.018   1.461   0.010  0.00  0.00    +0.320 C 
ENDROOT
BRANCH   1  19
ATOM     16  C   LIG    1        0.035   0.520   5.153  0.00  0.00    +0.130 A 
ATOM     17  C   LIG    1       -0.804  -0.518   4.769  0.00  0.00    -0.010 A 
ATOM     18  C   LIG    1       -0.810  -0.952   3.460  0.00  0.00    +0.070 A 
ATOM     19  C   LIG    1        0.027  -0.348   2.522  0.00  0.00    -0.050 A 
ATOM     20  C   LIG    1        0.872   0.692   2.913  0.00  0.00    +0.050 A 
ATOM     21  C   LIG    1        0.869   1.124   4.222  0.00  0.00    -0.080 A 
BRANCH  16  23
ATOM     22  C   LIG    1        0.925   2.018   6.771  0.00  0.00    +0.250 C 
ATOM     23  O   LIG    1        0.038   0.946   6.444  0.00  0.00    -0.320 OA
ENDBRANCH  16  23
ENDBRANCH   1  19
BRANCH   5  24
ATOM     24  C   LIG    1       -1.454  -0.252  -3.013  0.00  0.00    -0.120 A 
ATOM     25  C   LIG    1       -2.228  -1.360  -3.304  0.00  0.00    +0.030 A 
ATOM     26  C   LIG    1       -3.539  -1.199  -3.712  0.00  0.00    +0.000 A 
ATOM     27  C   LIG    1       -4.072   0.070  -3.838  0.00  0.00    +0.010 A 
ATOM     28  C   LIG    1       -3.296   1.178  -3.553  0.00  0.00    +0.010 A 
ATOM     29  C   LIG    1       -1.987   1.017  -3.140  0.00  0.00    +0.010 A 
ENDBRANCH   5  24
TORSDOF 3
