REMARK  Name = ZINCkj00000dDsmb.0
REMARK                            x       y       z     vdW  Elec       q    Type
REMARK                         _______ _______ _______ _____ _____    ______ ____
ROOT
ATOM      1  C   LIG    1       -0.285   3.965  -1.676  0.00  0.00    +0.510 C 
ATOM      2  N   LIG    1       -0.931   3.034  -0.946  0.00  0.00    -0.580 N 
ATOM      3  C   LIG    1       -0.664   1.597  -1.126  0.00  0.00    +0.290 C 
ATOM      4  C   LIG    1       -0.060   1.065   0.172  0.00  0.00    +0.090 C 
ATOM      5  C   LIG    1       -0.859   1.527   1.363  0.00  0.00    -0.120 A 
ATOM      6  C   LIG    1       -0.710   0.818   2.552  0.00  0.00    +0.140 A 
ATOM      7  C   LIG    1       -1.406   1.194   3.685  0.00  0.00    -0.020 A 
ATOM      8  C   LIG    1       -2.256   2.285   3.639  0.00  0.00    +0.140 A 
ATOM      9  C   LIG    1       -2.405   2.988   2.458  0.00  0.00    -0.010 A 
ATOM     10  F   LIG    1       -2.935   2.663   4.744  0.00  0.00    -0.120 F 
ATOM     11  F   LIG    1        0.119  -0.247   2.598  0.00  0.00    -0.120 F 
ATOM     12  C   LIG    1       -1.710   2.607   1.319  0.00  0.00    -0.040 A 
ATOM     13  C   LIG    1       -1.928   3.411   0.061  0.00  0.00    +0.300 C 
ATOM     14  C   LIG    1       -1.791   4.901   0.380  0.00  0.00    +0.070 C 
ATOM     15  O   LIG    1       -0.594   5.133  -1.579  0.00  0.00    -0.510 OA
ENDROOT
BRANCH   1  16
ATOM     16  C   LIG    1        0.820   3.553  -2.614  0.00  0.00    +0.180 C 
BRANCH  16  17
ATOM     17  N   LIG    1        1.664   4.716  -2.917  0.00  0.00    -0.620 N 
ATOM     18  H   LIG    1        1.104   5.434  -3.352  0.00  0.00    +0.440 HD
ATOM     19  H   LIG    1        2.404   4.440  -3.546  0.00  0.00    +0.450 HD
ATOM     20  H   LIG    1        2.064   5.073  -2.063  0.00  0.00    +0.440 HD
ENDBRANCH  16  17
BRANCH  16  21
ATOM     21  C   LIG    1        0.213   3.011  -3.910  0.00  0.00    +0.230 C 
BRANCH  21  23
ATOM     22  C   LIG    1        0.793   1.982  -5.996  0.00  0.00    +0.260 C 
ATOM     23  O   LIG    1        1.255   2.513  -4.752  0.00  0.00    -0.400 OA
ENDBRANCH  21  23
ENDBRANCH  16  21
ENDBRANCH   1  16
TORSDOF 4
