REMARK  Name = ZINCkj000005hDdd.0
REMARK                            x       y       z     vdW  Elec       q    Type
REMARK                         _______ _______ _______ _____ _____    ______ ____
ROOT
ATOM      1  N   LIG    1        1.879  -4.642   1.057  0.00  0.00    -0.390 N 
ATOM      2  C   LIG    1        2.600  -4.108  -0.106  0.00  0.00    +0.280 C 
ATOM      3  C   LIG    1        2.619  -2.579  -0.037  0.00  0.00    +0.220 C 
ATOM      4  N   LIG    1        1.238  -2.075  -0.021  0.00  0.00    -0.490 N 
ATOM      5  C   LIG    1        0.497  -2.621   1.124  0.00  0.00    +0.230 C 
ATOM      6  C   LIG    1        0.495  -4.150   1.046  0.00  0.00    +0.270 C 
ATOM      7  H   LIG    1        2.337  -4.339   1.904  0.00  0.00    +0.420 HD
ENDROOT
BRANCH   4   8
ATOM      8  C   LIG    1        1.215  -0.679  -0.013  0.00  0.00    +0.130 A 
ATOM      9  C   LIG    1        2.406   0.036  -0.021  0.00  0.00    -0.070 A 
ATOM     10  C   LIG    1        2.383   1.418  -0.013  0.00  0.00    +0.080 A 
ATOM     11  C   LIG    1        1.176   2.091   0.002  0.00  0.00    -0.090 A 
ATOM     12  C   LIG    1       -0.017   1.381   0.010  0.00  0.00    +0.160 A 
ATOM     13  C   LIG    1        0.002  -0.004   0.002  0.00  0.00    -0.030 A 
BRANCH  12  14
ATOM     14  O   LIG    1       -1.202   2.045   0.019  0.00  0.00    -0.310 OA
ATOM     15  C   LIG    1       -1.147   3.473   0.026  0.00  0.00    +0.250 C 
ENDBRANCH  12  14
ENDBRANCH   4   8
BRANCH   1  16
ATOM     16  C   LIG    1        1.877  -6.110   1.000  0.00  0.00    +0.280 C 
BRANCH  16  17
ATOM     17  C   LIG    1        1.236  -6.668   2.272  0.00  0.00    +0.110 C 
BRANCH  17  18
ATOM     18  C   LIG    1        1.234  -8.174   2.214  0.00  0.00    +0.470 C 
ATOM     19  O   LIG    1        1.698  -8.742   1.253  0.00  0.00    -0.500 OA
BRANCH  18  21
ATOM     20  C   LIG    1        0.749 -10.331   3.104  0.00  0.00    +0.280 C 
ATOM     21  O   LIG    1        0.718  -8.885   3.229  0.00  0.00    -0.350 OA
ENDBRANCH  18  21
ENDBRANCH  17  18
ENDBRANCH  16  17
ENDBRANCH   1  16
TORSDOF 6
