REMARK  Name = ZINCkj000005kayN.0
REMARK                            x       y       z     vdW  Elec       q    Type
REMARK                         _______ _______ _______ _____ _____    ______ ____
ROOT
ATOM      1  S   LIG    1       -2.995   3.687   0.169  0.00  0.00    +2.690 S 
ATOM      2  O   LIG    1       -2.495   2.619   0.963  0.00  0.00    -0.960 OA
ATOM      3  O   LIG    1       -2.174   4.732  -0.334  0.00  0.00    -0.920 OA
ENDROOT
BRANCH   1  10
ATOM      4  C   LIG    1       -4.605   6.061  -0.776  0.00  0.00    +0.120 C 
ATOM      5  C   LIG    1       -4.946   5.546   0.599  0.00  0.00    +0.030 A 
ATOM      6  C   LIG    1       -5.934   6.160   1.339  0.00  0.00    +0.060 A 
ATOM      7  C   LIG    1       -6.252   5.678   2.610  0.00  0.00    +0.050 A 
ATOM      8  C   LIG    1       -5.562   4.580   3.126  0.00  0.00    +0.050 A 
ATOM      9  C   LIG    1       -4.571   3.978   2.377  0.00  0.00    +0.110 A 
ATOM     10  C   LIG    1       -4.261   4.461   1.118  0.00  0.00    -0.680 A 
BRANCH   7  11
ATOM     11  C   LIG    1       -7.282   6.308   3.381  0.00  0.00    +0.230 C 
ATOM     12  N   LIG    1       -8.098   6.807   3.993  0.00  0.00    -0.370 NA
ENDBRANCH   7  11
ENDBRANCH   1  10
BRANCH   1  13
ATOM     13  N   LIG    1       -3.724   2.991  -1.145  0.00  0.00    -0.990 NA
ATOM     14  C   LIG    1       -3.588   3.588  -2.480  0.00  0.00    +0.310 C 
ATOM     15  C   LIG    1       -3.071   2.512  -3.447  0.00  0.00    +0.030 C 
ATOM     16  C   LIG    1       -4.001   1.298  -3.394  0.00  0.00    +0.030 C 
ATOM     17  C   LIG    1       -4.001   0.714  -1.979  0.00  0.00    +0.030 C 
ATOM     18  C   LIG    1       -4.523   1.767  -0.997  0.00  0.00    +0.230 C 
BRANCH  18  19
ATOM     19  C   LIG    1       -4.396   1.241   0.434  0.00  0.00    +0.250 C 
BRANCH  19  20
ATOM     20  N   LIG    1       -5.317   0.113   0.625  0.00  0.00    -0.630 N 
ATOM     21  H   LIG    1       -6.269   0.436   0.534  0.00  0.00    +0.430 HD
ATOM     22  H   LIG    1       -5.182  -0.280   1.545  0.00  0.00    +0.450 HD
ATOM     23  H   LIG    1       -5.134  -0.593  -0.072  0.00  0.00    +0.440 HD
ENDBRANCH  19  20
ENDBRANCH  18  19
ENDBRANCH   1  13
TORSDOF 5
