REMARK  Name = ZINCnE000001TCvF.0
REMARK                            x       y       z     vdW  Elec       q    Type
REMARK                         _______ _______ _______ _____ _____    ______ ____
ROOT
ATOM      1  N   LIG    1        4.594   0.555  -0.039  0.00  0.00    -0.660 N 
ATOM      2  H   LIG    1        4.354  -0.384  -0.090  0.00  0.00    +0.410 HD
ATOM      3  C   LIG    1        3.637   1.486   0.144  0.00  0.00    +0.600 C 
ATOM      4  O   LIG    1        3.945   2.652   0.304  0.00  0.00    -0.500 OA
ENDROOT
BRANCH   1   7
ATOM      5  C   LIG    1        8.274   0.510   0.212  0.00  0.00    -0.150 A 
ATOM      6  C   LIG    1        6.936   0.121   0.330  0.00  0.00    +0.040 A 
ATOM      7  C   LIG    1        5.935   0.943  -0.156  0.00  0.00    +0.100 A 
ATOM      8  C   LIG    1        6.257   2.151  -0.766  0.00  0.00    +0.030 A 
ATOM      9  C   LIG    1        7.574   2.545  -0.882  0.00  0.00    -0.020 A 
ATOM     10  C   LIG    1        8.589   1.733  -0.400  0.00  0.00    +0.130 A 
BRANCH   5  12
ATOM     11  O   LIG    1        9.066  -1.423   1.260  0.00  0.00    -0.690 OA
ATOM     12  C   LIG    1        9.345  -0.358   0.727  0.00  0.00    +0.520 C 
ATOM     13  O   LIG    1       10.514  -0.015   0.622  0.00  0.00    -0.670 OA
ENDBRANCH   5  12
BRANCH  10  14
ATOM     14  O   LIG    1        9.885   2.119  -0.519  0.00  0.00    -0.470 OA
ATOM     15  H   LIG    1       10.308   1.826  -1.338  0.00  0.00    +0.380 HD
ENDBRANCH  10  14
ENDBRANCH   1   7
BRANCH   3  16
ATOM     16  C   LIG    1        2.224   1.093   0.150  0.00  0.00    -0.290 A 
ATOM     17  C   LIG    1        1.164   1.922   0.323  0.00  0.00    +0.160 A 
ATOM     18  N   LIG    1        0.001   1.321   0.286  0.00  0.00    -0.470 NA
ATOM     19  C   LIG    1       -0.001   0.041   0.095  0.00  0.00    +0.250 A 
ATOM     20  S   LIG    1        1.598  -0.540  -0.065  0.00  0.00    +0.160 S 
BRANCH  17  21
ATOM     21  C   LIG    1        1.312   3.406   0.538  0.00  0.00    +0.080 C 
ATOM     22  C   LIG    1        0.638   3.818   1.863  0.00  0.00    +0.030 C 
ATOM     23  C   LIG    1        0.009   5.199   1.557  0.00  0.00    +0.020 C 
ATOM     24  C   LIG    1       -0.501   5.028   0.104  0.00  0.00    +0.010 C 
ATOM     25  C   LIG    1        0.587   4.176  -0.581  0.00  0.00    +0.020 C 
ENDBRANCH  17  21
ENDBRANCH   3  16
TORSDOF 5
