REMARK  Name = ZINCqH0000007aPo.0
REMARK                            x       y       z     vdW  Elec       q    Type
REMARK                         _______ _______ _______ _____ _____    ______ ____
ROOT
ATOM      1  N   LIG    1       -0.698   1.558   1.213  0.00  0.00    -0.610 N 
ATOM      2  C   LIG    1       -1.675   0.814   1.769  0.00  0.00    +0.530 C 
ATOM      3  O   LIG    1       -1.986  -0.248   1.271  0.00  0.00    -0.530 OA
ENDROOT
BRANCH   1   4
ATOM      4  C   LIG    1       -0.013   1.086   0.008  0.00  0.00    +0.330 C 
BRANCH   4   8
ATOM      5  C   LIG    1       -2.079   2.501  -3.454  0.00  0.00    +0.130 A 
ATOM      6  C   LIG    1       -1.063   3.261  -2.893  0.00  0.00    -0.030 A 
ATOM      7  C   LIG    1       -0.397   2.801  -1.773  0.00  0.00    +0.060 A 
ATOM      8  C   LIG    1       -0.742   1.585  -1.213  0.00  0.00    -0.140 A 
ATOM      9  C   LIG    1       -1.750   0.824  -1.774  0.00  0.00    +0.080 A 
ATOM     10  C   LIG    1       -2.423   1.282  -2.890  0.00  0.00    -0.080 A 
BRANCH   5  12
ATOM     11  C   LIG    1       -3.771   2.116  -5.080  0.00  0.00    +0.250 C 
ATOM     12  O   LIG    1       -2.736   2.951  -4.556  0.00  0.00    -0.320 OA
ENDBRANCH   5  12
ENDBRANCH   4   8
ENDBRANCH   1   4
BRANCH   2  13
ATOM     13  C   LIG    1       -2.380   1.300   3.009  0.00  0.00    +0.140 C 
BRANCH  13  14
ATOM     14  C   LIG    1       -3.420   0.290   3.424  0.00  0.00    -0.060 A 
ATOM     15  C   LIG    1       -4.686   0.390   3.069  0.00  0.00    -0.010 A 
ATOM     16  S   LIG    1       -5.635  -0.939   3.708  0.00  0.00    +0.080 S 
ATOM     17  C   LIG    1       -4.233  -1.649   4.498  0.00  0.00    -0.140 A 
ATOM     18  C   LIG    1       -4.117  -2.803   5.279  0.00  0.00    +0.050 A 
ATOM     19  C   LIG    1       -2.898  -3.165   5.801  0.00  0.00    +0.030 A 
ATOM     20  C   LIG    1       -1.775  -2.387   5.555  0.00  0.00    -0.080 A 
ATOM     21  C   LIG    1       -1.865  -1.260   4.798  0.00  0.00    +0.040 A 
ATOM     22  C   LIG    1       -0.444  -2.794   6.133  0.00  0.00    +0.100 C 
ATOM     23  C   LIG    1       -3.104  -0.864   4.250  0.00  0.00    -0.050 A 
ENDBRANCH  13  14
ENDBRANCH   2  13
BRANCH   1  24
ATOM     24  C   LIG    1       -0.323   2.840   1.815  0.00  0.00    +0.300 C 
BRANCH  24  25
ATOM     25  C   LIG    1       -1.171   3.958   1.204  0.00  0.00    +0.170 C 
BRANCH  25  26
ATOM     26  O   LIG    1       -2.542   3.762   1.556  0.00  0.00    -0.570 OA
ATOM     27  H   LIG    1       -3.139   4.436   1.202  0.00  0.00    +0.380 HD
ENDBRANCH  25  26
ENDBRANCH  24  25
ENDBRANCH   1  24
TORSDOF 8
