REMARK  Name = ZINCrg000000nH9s.0
REMARK                            x       y       z     vdW  Elec       q    Type
REMARK                         _______ _______ _______ _____ _____    ______ ____
ROOT
ATOM      1  N   LIG    1       -1.062  -4.554  -0.096  0.00  0.00    -0.480 NA
ENDROOT
BRANCH   1   2
ATOM      2  C   LIG    1       -0.227  -5.740  -0.327  0.00  0.00    +0.200 C 
BRANCH   2   3
ATOM      3  C   LIG    1        0.892  -5.770   0.682  0.00  0.00    +0.490 C 
ATOM      4  O   LIG    1        0.922  -4.955   1.579  0.00  0.00    -0.530 OA
ATOM      5  N   LIG    1        1.861  -6.703   0.586  0.00  0.00    -0.850 N 
ATOM      6  H   LIG    1        2.581  -6.722   1.236  0.00  0.00    +0.400 HD
ATOM      7  H   LIG    1        1.837  -7.354  -0.132  0.00  0.00    +0.400 HD
ENDBRANCH   2   3
BRANCH   2   8
ATOM      8  C   LIG    1       -1.080  -7.001  -0.179  0.00  0.00    +0.060 C 
BRANCH   8  11
ATOM      9  N   LIG    1       -2.995  -8.057  -1.335  0.00  0.00    -0.740 N 
ATOM     10  H   LIG    1       -2.951  -8.776  -0.685  0.00  0.00    +0.400 HD
ATOM     11  C   LIG    1       -2.124  -7.031  -1.266  0.00  0.00    +0.510 C 
ATOM     12  O   LIG    1       -2.180  -6.132  -2.078  0.00  0.00    -0.500 OA
BRANCH   9  13
ATOM     13  C   LIG    1       -4.010  -8.086  -2.391  0.00  0.00    +0.260 C 
BRANCH  13  15
ATOM     14  C   LIG    1       -5.924  -9.378  -3.346  0.00  0.00    +0.030 C 
ATOM     15  C   LIG    1       -4.864  -9.348  -2.244  0.00  0.00    +0.000 C 
ENDBRANCH  13  15
ENDBRANCH   9  13
ENDBRANCH   8  11
ENDBRANCH   2   8
ENDBRANCH   1   2
BRANCH   1  16
ATOM     16  C   LIG    1       -0.304  -3.320  -0.341  0.00  0.00    +0.220 C 
BRANCH  16  17
ATOM     17  C   LIG    1       -1.248  -2.227  -0.772  0.00  0.00    +0.520 C 
ATOM     18  N   LIG    1       -0.794  -0.969  -0.936  0.00  0.00    -0.560 N 
ATOM     19  C   LIG    1       -1.613   0.173  -1.351  0.00  0.00    +0.270 C 
ATOM     20  C   LIG    1       -0.648   1.369  -1.386  0.00  0.00    +0.090 C 
ATOM     21  C   LIG    1        0.690   0.792  -0.982  0.00  0.00    -0.140 A 
ATOM     22  C   LIG    1        1.928   1.388  -0.838  0.00  0.00    +0.060 A 
ATOM     23  C   LIG    1        3.019   0.636  -0.445  0.00  0.00    -0.010 A 
ATOM     24  C   LIG    1        2.869  -0.716  -0.196  0.00  0.00    +0.050 A 
ATOM     25  C   LIG    1        1.636  -1.315  -0.339  0.00  0.00    -0.030 A 
ATOM     26  C   LIG    1        0.529  -0.562  -0.735  0.00  0.00    +0.150 A 
ATOM     27  O   LIG    1       -2.418  -2.480  -0.972  0.00  0.00    -0.480 OA
ENDBRANCH  16  17
ENDBRANCH   1  16
BRANCH   1  28
ATOM     28  C   LIG    1       -1.627  -4.564   1.260  0.00  0.00    +0.180 C 
BRANCH  28  29
ATOM     29  C   LIG    1       -2.849  -3.643   1.311  0.00  0.00    +0.030 C 
ATOM     30  C   LIG    1       -3.523  -3.765   2.679  0.00  0.00    +0.000 C 
ENDBRANCH  28  29
ENDBRANCH   1  28
TORSDOF 10
