REMARK  Name = ZINCpe00000VVGrd.0
REMARK                            x       y       z     vdW  Elec       q    Type
REMARK                         _______ _______ _______ _____ _____    ______ ____
ROOT
ATOM      1  N   LIG    1       -1.241   2.860   2.926  0.00  0.00    -0.560 N 
ATOM      2  C   LIG    1       -2.055   1.786   3.019  0.00  0.00    +0.520 C 
ATOM      3  C   LIG    1       -1.688   0.906   1.861  0.00  0.00    +0.510 C 
ATOM      4  N   LIG    1       -0.698   1.558   1.213  0.00  0.00    -0.570 N 
ATOM      5  O   LIG    1       -2.177  -0.165   1.568  0.00  0.00    -0.400 OA
ATOM      6  O   LIG    1       -2.903   1.577   3.861  0.00  0.00    -0.400 OA
ATOM      7  C   LIG    1       -0.442   2.708   1.858  0.00  0.00    +0.720 C 
ATOM      8  O   LIG    1        0.403   3.511   1.516  0.00  0.00    -0.480 OA
ENDROOT
BRANCH   1   9
ATOM      9  C   LIG    1       -1.228   4.001   3.845  0.00  0.00    +0.380 C 
BRANCH   9  11
ATOM     10  O   LIG    1        0.360   2.689   4.997  0.00  0.00    -0.530 OA
ATOM     11  C   LIG    1       -0.259   3.732   4.967  0.00  0.00    +0.500 C 
ATOM     12  N   LIG    1       -0.081   4.649   5.938  0.00  0.00    -0.720 N 
ATOM     13  H   LIG    1       -0.576   5.483   5.914  0.00  0.00    +0.410 HD
BRANCH  12  14
ATOM     14  C   LIG    1        0.862   4.388   7.029  0.00  0.00    +0.320 C 
BRANCH  14  15
ATOM     15  C   LIG    1        0.875   5.562   7.973  0.00  0.00    -0.110 A 
ATOM     16  C   LIG    1        1.763   6.601   7.772  0.00  0.00    +0.020 A 
ATOM     17  C   LIG    1        1.772   7.681   8.636  0.00  0.00    +0.010 A 
ATOM     18  C   LIG    1        0.899   7.715   9.707  0.00  0.00    +0.010 A 
ATOM     19  C   LIG    1        0.014   6.673   9.912  0.00  0.00    +0.010 A 
ATOM     20  C   LIG    1        0.002   5.596   9.045  0.00  0.00    +0.020 A 
ENDBRANCH  14  15
ENDBRANCH  12  14
ENDBRANCH   9  11
ENDBRANCH   1   9
BRANCH   4  21
ATOM     21  C   LIG    1       -0.013   1.086   0.008  0.00  0.00    +0.470 C 
BRANCH  21  22
ATOM     22  C   LIG    1       -0.742   1.585  -1.213  0.00  0.00    -0.060 A 
ATOM     23  C   LIG    1       -0.508   2.748  -1.848  0.00  0.00    -0.010 A 
ATOM     24  C   LIG    1       -1.411   2.810  -2.934  0.00  0.00    -0.070 A 
ATOM     25  C   LIG    1       -2.149   1.685  -2.892  0.00  0.00    +0.190 A 
ATOM     26  O   LIG    1       -1.739   0.947  -1.848  0.00  0.00    -0.170 OA
ENDBRANCH  21  22
ENDBRANCH   4  21
TORSDOF 6
