REMARK  Name = ZINCtV000002Mmp6.0
REMARK                            x       y       z     vdW  Elec       q    Type
REMARK                         _______ _______ _______ _____ _____    ______ ____
ROOT
ATOM      1  O   LIG    1       -0.341   4.046   0.535  0.00  0.00    -0.490 OA
ATOM      2  C   LIG    1       -0.802   3.300   1.365  0.00  0.00    +0.490 C 
ENDROOT
BRANCH   2   3
ATOM      3  O   LIG    1       -0.698   1.971   1.205  0.00  0.00    -0.350 OA
BRANCH   3   4
ATOM      4  C   LIG    1       -0.018   1.503   0.010  0.00  0.00    +0.290 C 
BRANCH   4   5
ATOM      5  C   LIG    1        0.002  -0.004   0.002  0.00  0.00    -0.080 A 
ATOM      6  C   LIG    1       -1.032  -0.704  -0.591  0.00  0.00    +0.070 A 
ATOM      7  C   LIG    1       -1.020  -2.088  -0.602  0.00  0.00    -0.040 A 
ATOM      8  C   LIG    1        0.033  -2.770  -0.015  0.00  0.00    +0.090 A 
ATOM      9  O   LIG    1        0.058  -4.135  -0.018  0.00  0.00    -0.310 OA
ATOM     10  C   LIG    1        1.070  -4.740  -0.825  0.00  0.00    +0.230 C 
ATOM     11  C   LIG    1        2.384  -4.829  -0.065  0.00  0.00    +0.000 C 
ATOM     12  C   LIG    1        2.960  -3.459   0.258  0.00  0.00    +0.230 C 
ATOM     13  O   LIG    1        2.105  -2.748   1.154  0.00  0.00    -0.310 OA
ATOM     14  C   LIG    1        1.071  -2.067   0.579  0.00  0.00    +0.080 A 
ATOM     15 CL   LIG    1       -2.320  -2.966  -1.347  0.00  0.00    -0.040 Cl
ATOM     16  C   LIG    1        1.059  -0.683   0.583  0.00  0.00    +0.060 A 
ENDBRANCH   4   5
ENDBRANCH   3   4
ENDBRANCH   2   3
BRANCH   2  17
ATOM     17  C   LIG    1       -1.495   3.860   2.581  0.00  0.00    +0.050 C 
BRANCH  17  18
ATOM     18  S   LIG    1       -1.473   5.672   2.508  0.00  0.00    +0.040 S 
BRANCH  18  19
ATOM     19  C   LIG    1       -2.312   6.138   3.986  0.00  0.00    -0.090 A 
ATOM     20  C   LIG    1       -2.790   5.174   4.849  0.00  0.00    +0.000 A 
ATOM     21  C   LIG    1       -3.454   5.532   6.018  0.00  0.00    +0.040 A 
ATOM     22  C   LIG    1       -3.652   6.840   6.342  0.00  0.00    +0.030 A 
ATOM     23  C   LIG    1       -3.181   7.854   5.490  0.00  0.00    -0.030 A 
ATOM     24  C   LIG    1       -3.371   9.211   5.800  0.00  0.00    +0.040 A 
ATOM     25  C   LIG    1       -2.902  10.168   4.952  0.00  0.00    +0.040 A 
ATOM     26  C   LIG    1       -2.235   9.823   3.779  0.00  0.00    +0.040 A 
ATOM     27  C   LIG    1       -2.032   8.516   3.447  0.00  0.00    -0.040 A 
ATOM     28 CL   LIG    1       -1.198   8.108   1.981  0.00  0.00    +0.000 Cl
ATOM     29  C   LIG    1       -2.497   7.502   4.300  0.00  0.00    -0.030 A 
ENDBRANCH  18  19
ENDBRANCH  17  18
ENDBRANCH   2  17
TORSDOF 6
