REMARK  Name = ZINCrD000000Acr1.0
REMARK                            x       y       z     vdW  Elec       q    Type
REMARK                         _______ _______ _______ _____ _____    ______ ____
ROOT
ATOM      1  O   LIG    1       -5.360  -2.913  -0.497  0.00  0.00    -0.510 OA
ATOM      2  C   LIG    1       -6.276  -2.118  -0.543  0.00  0.00    +0.520 C 
ATOM      3  N   LIG    1       -7.523  -2.544  -0.823  0.00  0.00    -0.680 N 
ATOM      4  H   LIG    1       -8.267  -1.922  -0.785  0.00  0.00    +0.420 HD
ENDROOT
BRANCH   3   5
ATOM      5  C   LIG    1       -7.745  -3.880  -1.169  0.00  0.00    +0.180 A 
ATOM      6  C   LIG    1       -8.920  -4.494  -0.796  0.00  0.00    +0.020 A 
ATOM      7  C   LIG    1       -9.141  -5.836  -1.144  0.00  0.00    +0.100 A 
ATOM      8  N   LIG    1      -10.272  -6.461  -0.797  0.00  0.00    -0.430 NA
ATOM      9  C   LIG    1      -10.452  -7.717  -1.136  0.00  0.00    +0.260 A 
ATOM     10  C   LIG    1       -9.475  -8.408  -1.855  0.00  0.00    +0.250 A 
ATOM     11  N   LIG    1       -8.357  -7.816  -2.208  0.00  0.00    -0.420 NA
ATOM     12  C   LIG    1       -8.148  -6.538  -1.874  0.00  0.00    +0.070 A 
ATOM     13  C   LIG    1       -6.960  -5.880  -2.239  0.00  0.00    +0.090 A 
ATOM     14  C   LIG    1       -6.773  -4.579  -1.895  0.00  0.00    +0.050 A 
ENDBRANCH   3   5
BRANCH   2  15
ATOM     15  C   LIG    1       -6.018  -0.656  -0.288  0.00  0.00    +0.060 C 
BRANCH  15  16
ATOM     16  C   LIG    1       -4.530  -0.443   0.003  0.00  0.00    +0.040 C 
BRANCH  16  17
ATOM     17  C   LIG    1       -4.269   1.042   0.263  0.00  0.00    +0.280 C 
BRANCH  17  18
ATOM     18  N   LIG    1       -2.845   1.245   0.541  0.00  0.00    -0.550 N 
ATOM     19  C   LIG    1       -2.395   1.173   1.808  0.00  0.00    +0.520 C 
ATOM     20  C   LIG    1       -0.941   1.398   2.122  0.00  0.00    +0.070 C 
ATOM     21  C   LIG    1       -0.072   0.841   0.993  0.00  0.00    +0.090 C 
ATOM     22  C   LIG    1       -0.597   1.327  -0.333  0.00  0.00    -0.120 A 
ATOM     23  C   LIG    1        0.274   1.590  -1.371  0.00  0.00    +0.050 A 
ATOM     24  C   LIG    1       -0.211   2.036  -2.587  0.00  0.00    -0.010 A 
ATOM     25  C   LIG    1       -1.570   2.220  -2.766  0.00  0.00    +0.040 A 
ATOM     26  C   LIG    1       -2.447   1.960  -1.731  0.00  0.00    -0.020 A 
ATOM     27  O   LIG    1       -3.171   0.926   2.706  0.00  0.00    -0.520 OA
ATOM     28  C   LIG    1       -1.963   1.512  -0.510  0.00  0.00    +0.160 A 
ENDBRANCH  17  18
ENDBRANCH  16  17
ENDBRANCH  15  16
ENDBRANCH   2  15
TORSDOF 5
