REMARK  Name = ZINCqH0000005Y9G.0
REMARK                            x       y       z     vdW  Elec       q    Type
REMARK                         _______ _______ _______ _____ _____    ______ ____
ROOT
ATOM      1  C   LIG    1       -0.275   4.364   4.236  0.00  0.00    +0.530 C 
ATOM      2  N   LIG    1       -1.133   3.497   3.663  0.00  0.00    -0.560 N 
ATOM      3  C   LIG    1       -1.647   3.730   2.304  0.00  0.00    +0.300 C 
ATOM      4  C   LIG    1       -0.754   3.100   1.269  0.00  0.00    +0.030 C 
ATOM      5  C   LIG    1       -0.729   1.579   1.267  0.00  0.00    +0.030 C 
ATOM      6  S   LIG    1        0.147   0.969   2.736  0.00  0.00    -0.150 S 
ATOM      7  C   LIG    1       -1.109   1.088   3.987  0.00  0.00    -0.100 A 
ATOM      8  C   LIG    1       -1.615  -0.051   4.584  0.00  0.00    +0.080 A 
ATOM      9  C   LIG    1       -2.573   0.075   5.577  0.00  0.00    +0.030 A 
ATOM     10  C   LIG    1       -3.005   1.329   5.965  0.00  0.00    +0.040 A 
ATOM     11  C   LIG    1       -2.504   2.467   5.359  0.00  0.00    +0.010 A 
ATOM     12  C   LIG    1       -0.013   1.086   0.008  0.00  0.00    +0.090 C 
ATOM     13  C   LIG    1       -1.559   2.350   4.347  0.00  0.00    +0.140 A 
ATOM     14  O   LIG    1        0.083   5.352   3.630  0.00  0.00    -0.500 OA
ENDROOT
BRANCH   1  15
ATOM     15  C   LIG    1        0.239   4.107   5.629  0.00  0.00    +0.240 C 
BRANCH  15  16
ATOM     16  O   LIG    1        1.126   5.160   6.011  0.00  0.00    -0.280 OA
BRANCH  16  20
ATOM     17  C   LIG    1        2.813   4.917   9.771  0.00  0.00    -0.170 A 
ATOM     18  C   LIG    1        3.118   5.994   8.934  0.00  0.00    +0.140 A 
ATOM     19  C   LIG    1        2.553   6.071   7.681  0.00  0.00    -0.010 A 
ATOM     20  C   LIG    1        1.681   5.080   7.247  0.00  0.00    +0.170 A 
ATOM     21  C   LIG    1        1.371   4.009   8.078  0.00  0.00    -0.090 A 
ATOM     22  C   LIG    1        1.935   3.922   9.331  0.00  0.00    +0.120 A 
BRANCH  17  23
ATOM     23  C   LIG    1        3.416   4.829  11.113  0.00  0.00    +0.510 C 
ATOM     24  O   LIG    1        4.180   5.695  11.494  0.00  0.00    -0.510 OA
BRANCH  23  26
ATOM     25  C   LIG    1        3.751   3.769  13.226  0.00  0.00    +0.260 C 
ATOM     26  O   LIG    1        3.121   3.790  11.918  0.00  0.00    -0.360 OA
ENDBRANCH  23  26
ENDBRANCH  17  23
ENDBRANCH  16  20
ENDBRANCH  15  16
ENDBRANCH   1  15
TORSDOF 5
