REMARK  Name = ZINCtj0000003IWx.0
REMARK                            x       y       z     vdW  Elec       q    Type
REMARK                         _______ _______ _______ _____ _____    ______ ____
ROOT
ATOM      1  C   LIG    1       -7.274  -0.997  -0.466  0.00  0.00    +0.510 C 
ATOM      2  N   LIG    1       -8.330  -1.829  -0.561  0.00  0.00    -0.700 N 
ATOM      3  H   LIG    1       -8.200  -2.788  -0.494  0.00  0.00    +0.420 HD
ATOM      4  O   LIG    1       -7.437   0.203  -0.549  0.00  0.00    -0.510 OA
ENDROOT
BRANCH   1   7
ATOM      5  N   LIG    1       -4.847  -0.720  -0.163  0.00  0.00    -0.640 N 
ATOM      6  H   LIG    1       -4.985   0.240  -0.153  0.00  0.00    +0.420 HD
ATOM      7  C   LIG    1       -5.903  -1.552  -0.258  0.00  0.00    +0.510 C 
ATOM      8  O   LIG    1       -5.740  -2.752  -0.175  0.00  0.00    -0.490 OA
BRANCH   5  13
ATOM      9  C   LIG    1       -1.943  -2.932  -0.657  0.00  0.00    +0.010 A 
ATOM     10  C   LIG    1       -0.979  -2.263   0.094  0.00  0.00    +0.020 A 
ATOM     11  C   LIG    1       -1.304  -1.093   0.752  0.00  0.00    +0.050 A 
ATOM     12  C   LIG    1       -2.584  -0.581   0.667  0.00  0.00    +0.000 A 
ATOM     13  C   LIG    1       -3.553  -1.241  -0.080  0.00  0.00    +0.140 A 
ATOM     14  C   LIG    1       -3.232  -2.414  -0.748  0.00  0.00    +0.050 A 
BRANCH   9  18
ATOM     15  C   LIG    1        0.467  -6.967  -2.350  0.00  0.00    +0.390 C 
ATOM     16  N   LIG    1       -0.553  -5.944  -2.103  0.00  0.00    -0.290 N 
ATOM     17  C   LIG    1       -0.411  -4.865  -1.301  0.00  0.00    +0.170 A 
ATOM     18  C   LIG    1       -1.595  -4.190  -1.365  0.00  0.00    +0.020 A 
ATOM     19  N   LIG    1       -2.384  -4.893  -2.197  0.00  0.00    -0.250 NA
ATOM     20  N   LIG    1       -1.734  -5.922  -2.613  0.00  0.00    -0.080 NA
ENDBRANCH   9  18
ENDBRANCH   5  13
ENDBRANCH   1   7
BRANCH   2  21
ATOM     21  C   LIG    1       -9.675  -1.284  -0.764  0.00  0.00    +0.330 C 
BRANCH  21  22
ATOM     22  C   LIG    1      -10.669  -2.415  -0.836  0.00  0.00    -0.080 A 
ATOM     23  C   LIG    1      -10.976  -2.992  -2.053  0.00  0.00    +0.060 A 
ATOM     24  C   LIG    1      -11.884  -4.030  -2.114  0.00  0.00    +0.050 A 
ATOM     25  C   LIG    1      -12.500  -4.490  -0.960  0.00  0.00    -0.130 A 
ATOM     26  C   LIG    1      -13.492  -5.617  -1.074  0.00  0.00    +0.330 C 
ATOM     27  N   LIG    1      -13.699  -6.256   0.230  0.00  0.00    -0.510 N 
ATOM     28  C   LIG    1      -14.073  -5.227   1.212  0.00  0.00    +0.270 C 
ATOM     29  C   LIG    1      -12.835  -4.387   1.534  0.00  0.00    +0.120 C 
ATOM     30  H   LIG    1      -12.847  -6.710   0.522  0.00  0.00    +0.430 HD
ATOM     31  H   LIG    1      -14.438  -6.938   0.158  0.00  0.00    +0.440 HD
ATOM     32  C   LIG    1      -12.195  -3.912   0.255  0.00  0.00    -0.090 A 
ATOM     33  C   LIG    1      -11.280  -2.873   0.315  0.00  0.00    +0.060 A 
ENDBRANCH  21  22
ENDBRANCH   2  21
TORSDOF 5
