REMARK  Name = ZINCqH0000004R5y.0
REMARK                            x       y       z     vdW  Elec       q    Type
REMARK                         _______ _______ _______ _____ _____    ______ ____
ROOT
ATOM      1  C   LIG    1       -1.330   1.944   0.019  0.00  0.00    +0.040 C 
ENDROOT
BRANCH   1   2
ATOM      2  C   LIG    1       -0.014   1.209   0.009  0.00  0.00    +0.520 C 
ATOM      3  N   LIG    1        1.143   1.898   0.001  0.00  0.00    -0.730 N 
ATOM      4  H   LIG    1        1.130   2.868   0.007  0.00  0.00    +0.400 HD
ATOM      5  O   LIG    1        0.002  -0.004   0.002  0.00  0.00    -0.530 OA
BRANCH   3   6
ATOM      6  C   LIG    1        2.422   1.183  -0.015  0.00  0.00    +0.280 C 
ATOM      7  C   LIG    1        2.819   0.817   1.417  0.00  0.00    +0.040 C 
BRANCH   6   8
ATOM      8  C   LIG    1        3.483   2.065  -0.621  0.00  0.00    -0.090 A 
ATOM      9  C   LIG    1        3.511   3.415  -0.325  0.00  0.00    +0.030 A 
ATOM     10  C   LIG    1        4.487   4.223  -0.877  0.00  0.00    +0.030 A 
ATOM     11  C   LIG    1        5.430   3.683  -1.733  0.00  0.00    -0.030 A 
ATOM     12  C   LIG    1        5.399   2.333  -2.032  0.00  0.00    +0.040 A 
ATOM     13 CL   LIG    1        6.652   4.699  -2.431  0.00  0.00    -0.070 Cl
ATOM     14  C   LIG    1        4.425   1.524  -1.476  0.00  0.00    +0.050 A 
ENDBRANCH   6   8
ENDBRANCH   3   6
ENDBRANCH   1   2
BRANCH   1  15
ATOM     15  C   LIG    1       -2.479   0.934   0.019  0.00  0.00    +0.350 C 
BRANCH  15  18
ATOM     16  N   LIG    1       -5.577   2.669  -0.675  0.00  0.00    -0.540 N 
ATOM     17  C   LIG    1       -4.450   2.040  -1.058  0.00  0.00    +0.680 A 
ATOM     18  N   LIG    1       -3.757   1.649   0.029  0.00  0.00    -0.540 N 
ATOM     19  C   LIG    1       -4.466   2.036   1.164  0.00  0.00    +0.090 A 
ATOM     20  C   LIG    1       -4.235   1.896   2.523  0.00  0.00    +0.030 A 
ATOM     21  C   LIG    1       -5.147   2.398   3.431  0.00  0.00    +0.020 A 
ATOM     22  C   LIG    1       -6.290   3.041   2.989  0.00  0.00    +0.020 A 
ATOM     23  C   LIG    1       -6.525   3.194   1.636  0.00  0.00    +0.020 A 
ATOM     24  O   LIG    1       -4.110   1.852  -2.211  0.00  0.00    -0.550 OA
ATOM     25  C   LIG    1       -5.618   2.689   0.718  0.00  0.00    +0.090 A 
BRANCH  16  27
ATOM     26  C   LIG    1       -7.645   2.175  -1.884  0.00  0.00    +0.030 C 
ATOM     27  C   LIG    1       -6.589   3.237  -1.570  0.00  0.00    +0.310 C 
ENDBRANCH  16  27
ENDBRANCH  15  18
ENDBRANCH   1  15
TORSDOF 6
