REMARK  Name = ZINCqH00000079q8.0
REMARK                            x       y       z     vdW  Elec       q    Type
REMARK                         _______ _______ _______ _____ _____    ______ ____
ROOT
ATOM      1  N   LIG    1       -0.288   1.272  -2.443  0.00  0.00    -0.730 N 
ATOM      2  H   LIG    1        0.507   0.726  -2.543  0.00  0.00    +0.400 HD
ATOM      3  C   LIG    1       -0.742   1.585  -1.213  0.00  0.00    +0.530 C 
ATOM      4  O   LIG    1       -1.736   2.268  -1.088  0.00  0.00    -0.510 OA
ENDROOT
BRANCH   1   5
ATOM      5  C   LIG    1       -0.997   1.758  -3.630  0.00  0.00    +0.260 C 
BRANCH   5   6
ATOM      6  C   LIG    1       -0.281   1.264  -4.889  0.00  0.00    +0.070 C 
BRANCH   6  10
ATOM      7  C   LIG    1       -2.347   2.680  -8.351  0.00  0.00    +0.130 A 
ATOM      8  C   LIG    1       -1.331   3.439  -7.789  0.00  0.00    -0.020 A 
ATOM      9  C   LIG    1       -0.665   2.980  -6.670  0.00  0.00    +0.060 A 
ATOM     10  C   LIG    1       -1.010   1.763  -6.110  0.00  0.00    -0.120 A 
ATOM     11  C   LIG    1       -2.018   1.002  -6.671  0.00  0.00    +0.060 A 
ATOM     12  C   LIG    1       -2.692   1.460  -7.787  0.00  0.00    -0.080 A 
BRANCH   7  14
ATOM     13  C   LIG    1       -4.039   2.295  -9.977  0.00  0.00    +0.250 C 
ATOM     14  O   LIG    1       -3.004   3.129  -9.453  0.00  0.00    -0.320 OA
ENDBRANCH   7  14
ENDBRANCH   6  10
ENDBRANCH   5   6
ENDBRANCH   1   5
BRANCH   3  15
ATOM     15  C   LIG    1       -0.013   1.086   0.008  0.00  0.00    +0.120 C 
BRANCH  15  16
ATOM     16  S   LIG    1       -0.862   1.671   1.500  0.00  0.00    -0.170 S 
BRANCH  16  17
ATOM     17  C   LIG    1        0.146   0.980   2.841  0.00  0.00    +0.120 C 
ATOM     18  C   LIG    1        1.541   1.608   2.806  0.00  0.00    +0.080 C 
BRANCH  17  19
ATOM     19  C   LIG    1       -0.506   1.279   4.166  0.00  0.00    +0.300 A 
ATOM     20  N   LIG    1        0.008   1.004   5.329  0.00  0.00    -0.480 NA
ATOM     21  C   LIG    1       -0.840   1.407   6.310  0.00  0.00    +0.050 A 
ATOM     22  C   LIG    1       -0.792   1.359   7.705  0.00  0.00    +0.070 A 
ATOM     23  C   LIG    1       -1.828   1.861   8.440  0.00  0.00    +0.000 A 
ATOM     24  C   LIG    1       -2.934   2.420   7.815  0.00  0.00    +0.030 A 
ATOM     25  C   LIG    1       -3.003   2.478   6.439  0.00  0.00    +0.010 A 
ATOM     26  C   LIG    1       -1.959   1.973   5.676  0.00  0.00    +0.050 A 
ATOM     27  N   LIG    1       -1.716   1.883   4.320  0.00  0.00    -0.590 N 
ATOM     28  H   LIG    1       -2.300   2.190   3.609  0.00  0.00    +0.430 HD
ENDBRANCH  17  19
ENDBRANCH  16  17
ENDBRANCH  15  16
ENDBRANCH   3  15
TORSDOF 8
