REMARK  Name = ZINCuL0000000gqa.1
REMARK                            x       y       z     vdW  Elec       q    Type
REMARK                         _______ _______ _______ _____ _____    ______ ____
ROOT
ATOM      1  N   LIG    1        2.951   0.328  -1.626  0.00  0.00    -1.070 NA
ENDROOT
BRANCH   1   2
ATOM      2  C   LIG    1        4.227  -0.154  -1.940  0.00  0.00    +0.270 A 
ATOM      3  C   LIG    1        5.061  -0.619  -0.935  0.00  0.00    -0.100 A 
ATOM      4  C   LIG    1        6.321  -1.096  -1.247  0.00  0.00    -0.150 A 
ATOM      5  C   LIG    1        6.753  -1.111  -2.560  0.00  0.00    -0.050 A 
ATOM      6  C   LIG    1        5.928  -0.649  -3.569  0.00  0.00    -0.020 A 
ATOM      7  C   LIG    1        4.661  -0.174  -3.266  0.00  0.00    +0.070 A 
BRANCH   7   8
ATOM      8  N   LIG    1        3.822   0.288  -4.287  0.00  0.00    -0.440 N 
ATOM      9  C   LIG    1        4.413   0.024  -5.623  0.00  0.00    +0.160 C 
ATOM     10  C   LIG    1        3.190   0.093  -6.572  0.00  0.00    +0.010 C 
ATOM     11  C   LIG    1        2.065  -0.556  -5.734  0.00  0.00    -0.010 C 
ATOM     12  C   LIG    1        2.526  -0.424  -4.271  0.00  0.00    +0.200 C 
ENDBRANCH   7   8
BRANCH   4  13
ATOM     13  C   LIG    1        7.226  -1.601  -0.153  0.00  0.00    +0.510 C 
ATOM     14  F   LIG    1        6.948  -0.916   1.035  0.00  0.00    -0.180 F 
ATOM     15  F   LIG    1        8.560  -1.385  -0.514  0.00  0.00    -0.190 F 
ATOM     16  F   LIG    1        7.010  -2.970   0.036  0.00  0.00    -0.190 F 
ENDBRANCH   4  13
ENDBRANCH   1   2
BRANCH   1  17
ATOM     17  S   LIG    1        2.436   0.344  -0.053  0.00  0.00    +2.600 S 
ATOM     18  O   LIG    1        2.316  -1.015   0.344  0.00  0.00    -1.030 OA
ATOM     19  O   LIG    1        3.255   1.284   0.628  0.00  0.00    -1.030 OA
BRANCH  17  23
ATOM     20  C   LIG    1       -1.756   2.054  -0.034  0.00  0.00    -0.030 A 
ATOM     21  C   LIG    1       -1.565   0.693  -0.177  0.00  0.00    -0.030 A 
ATOM     22  C   LIG    1       -0.286   0.170  -0.178  0.00  0.00    +0.110 A 
ATOM     23  C   LIG    1        0.804   1.010  -0.045  0.00  0.00    -0.630 A 
ATOM     24  C   LIG    1        0.614   2.372   0.095  0.00  0.00    +0.110 A 
ATOM     25  C   LIG    1       -0.666   2.894   0.100  0.00  0.00    -0.030 A 
BRANCH  20  26
ATOM     26  C   LIG    1       -3.151   2.623  -0.027  0.00  0.00    +0.080 C 
BRANCH  26  27
ATOM     27  C   LIG    1       -3.567   2.971  -1.458  0.00  0.00    -0.060 C 
BRANCH  27  29
ATOM     28  O   LIG    1       -5.568   3.657  -0.400  0.00  0.00    -0.700 OA
ATOM     29  C   LIG    1       -4.962   3.540  -1.451  0.00  0.00    +0.490 C 
ATOM     30  O   LIG    1       -5.486   3.883  -2.498  0.00  0.00    -0.710 OA
ENDBRANCH  27  29
ENDBRANCH  26  27
ENDBRANCH  20  26
ENDBRANCH  17  23
ENDBRANCH   1  17
TORSDOF 8
