REMARK  Name = ZINCrD000000CGNH.0
REMARK                            x       y       z     vdW  Elec       q    Type
REMARK                         _______ _______ _______ _____ _____    ______ ____
ROOT
ATOM      1  C   LIG    1        3.511   3.479  -0.703  0.00  0.00    -0.090 A 
ATOM      2  C   LIG    1        4.584   4.224  -1.106  0.00  0.00    +0.320 A 
ATOM      3  N   LIG    1        4.119   5.462  -1.379  0.00  0.00    -0.310 N 
ATOM      4  N   LIG    1        2.740   5.441  -1.128  0.00  0.00    -0.040 NA
ATOM      5  N   LIG    1        2.416   4.258  -0.737  0.00  0.00    -0.200 NA
ENDROOT
BRANCH   1   7
ATOM      6  O   LIG    1        4.574   1.420  -0.429  0.00  0.00    -0.510 OA
ATOM      7  C   LIG    1        3.548   2.060  -0.303  0.00  0.00    +0.610 C 
ATOM      8  N   LIG    1        2.445   1.473   0.202  0.00  0.00    -0.540 N 
ATOM      9  C   LIG    1        1.233   2.256   0.497  0.00  0.00    +0.280 C 
ATOM     10  C   LIG    1        0.680   1.764   1.843  0.00  0.00    +0.250 C 
ATOM     11  O   LIG    1        0.409   0.364   1.745  0.00  0.00    -0.310 OA
ATOM     12  C   LIG    1        1.385  -0.436   1.242  0.00  0.00    +0.100 A 
ATOM     13  C   LIG    1        1.356  -1.798   1.500  0.00  0.00    +0.010 A 
ATOM     14  C   LIG    1        2.345  -2.620   0.993  0.00  0.00    +0.030 A 
ATOM     15  C   LIG    1        3.362  -2.092   0.219  0.00  0.00    +0.000 A 
ATOM     16  C   LIG    1        3.397  -0.735  -0.046  0.00  0.00    +0.050 A 
ATOM     17  C   LIG    1        2.411   0.094   0.465  0.00  0.00    +0.080 A 
ENDBRANCH   1   7
BRANCH   3  18
ATOM     18  C   LIG    1        4.871   6.558  -1.826  0.00  0.00    +0.130 A 
ATOM     19  C   LIG    1        6.216   6.401  -2.130  0.00  0.00    +0.060 A 
ATOM     20  C   LIG    1        6.954   7.482  -2.571  0.00  0.00    +0.060 A 
ATOM     21  C   LIG    1        6.354   8.720  -2.710  0.00  0.00    +0.090 A 
ATOM     22  C   LIG    1        5.014   8.880  -2.408  0.00  0.00    -0.160 A 
ATOM     23  C   LIG    1        4.269   7.801  -1.972  0.00  0.00    +0.100 A 
BRANCH  22  24
ATOM     24  C   LIG    1        4.363  10.231  -2.561  0.00  0.00    +0.510 C 
ATOM     25  F   LIG    1        3.862  10.650  -1.324  0.00  0.00    -0.170 F 
ATOM     26  F   LIG    1        3.315  10.142  -3.483  0.00  0.00    -0.170 F 
ATOM     27  F   LIG    1        5.309  11.154  -3.018  0.00  0.00    -0.170 F 
ENDBRANCH  22  24
ENDBRANCH   3  18
TORSDOF 3
