REMARK  Name = ZINCBI0000000ddN.0
REMARK                            x       y       z     vdW  Elec       q    Type
REMARK                         _______ _______ _______ _____ _____    ______ ____
ROOT
ATOM      1  C   LIG    1       -6.326   2.421  -3.966  0.00  0.00    +0.200 A 
ATOM      2  C   LIG    1       -6.063   1.226  -3.313  0.00  0.00    -0.080 A 
ATOM      3  C   LIG    1       -5.582   1.236  -2.018  0.00  0.00    +0.120 A 
ATOM      4  C   LIG    1       -5.358   2.436  -1.363  0.00  0.00    -0.170 A 
ATOM      5  C   LIG    1       -5.619   3.632  -1.995  0.00  0.00    +0.120 A 
ATOM      6  C   LIG    1       -6.100   3.637  -3.306  0.00  0.00    -0.190 A 
ENDROOT
BRANCH   6   7
ATOM      7  C   LIG    1       -6.376   4.915  -3.990  0.00  0.00    +0.570 C 
ATOM      8  N   LIG    1       -6.158   6.082  -3.352  0.00  0.00    -0.670 N 
ATOM      9  H   LIG    1       -5.896   6.082  -2.418  0.00  0.00    +0.410 HD
ATOM     10  O   LIG    1       -6.800   4.915  -5.130  0.00  0.00    -0.500 OA
BRANCH   8  11
ATOM     11  C   LIG    1       -6.308   7.294  -4.038  0.00  0.00    +0.150 A 
ATOM     12  C   LIG    1       -6.167   7.332  -5.419  0.00  0.00    +0.050 A 
ATOM     13  C   LIG    1       -6.316   8.527  -6.095  0.00  0.00    -0.010 A 
ATOM     14  C   LIG    1       -6.605   9.690  -5.394  0.00  0.00    +0.060 A 
ATOM     15  C   LIG    1       -6.746   9.652  -4.013  0.00  0.00    +0.020 A 
ATOM     16  C   LIG    1       -6.603   8.456  -3.338  0.00  0.00    -0.090 A 
ATOM     17  C   LIG    1       -6.762   8.414  -1.840  0.00  0.00    +0.110 C 
BRANCH  14  18
ATOM     18  N   LIG    1       -6.756  10.900  -6.080  0.00  0.00    -0.480 N 
ATOM     19  C   LIG    1       -8.065  11.506  -5.798  0.00  0.00    +0.220 C 
ATOM     20  C   LIG    1       -8.166  12.853  -6.516  0.00  0.00    +0.280 C 
ATOM     21  N   LIG    1       -8.002  12.650  -7.962  0.00  0.00    -0.390 N 
ATOM     22  C   LIG    1       -6.681  12.068  -8.230  0.00  0.00    +0.280 C 
ATOM     23  C   LIG    1       -8.117  13.941  -8.653  0.00  0.00    +0.310 C 
ATOM     24  H   LIG    1       -8.719  12.025  -8.297  0.00  0.00    +0.420 HD
ATOM     25  C   LIG    1       -6.567  10.714  -7.525  0.00  0.00    +0.220 C 
ENDBRANCH  14  18
ENDBRANCH   8  11
ENDBRANCH   6   7
BRANCH   1  27
ATOM     26  C   LIG    1       -7.005   1.136  -5.845  0.00  0.00    +0.250 C 
ATOM     27  O   LIG    1       -6.799   2.413  -5.237  0.00  0.00    -0.280 OA
ENDBRANCH   1  27
BRANCH   4  28
ATOM     28  C   LIG    1       -4.833   2.432   0.050  0.00  0.00    +0.380 C 
BRANCH  28  29
ATOM     29  N   LIG    1       -3.368   2.452   0.026  0.00  0.00    -0.570 N 
ATOM     30  C   LIG    1       -2.592   1.353   0.006  0.00  0.00    +0.580 C 
ATOM     31  C   LIG    1       -1.176   1.777  -0.019  0.00  0.00    -0.140 A 
ATOM     32  C   LIG    1        0.035   1.104  -0.037  0.00  0.00    +0.100 A 
ATOM     33  C   LIG    1        1.220   1.823  -0.050  0.00  0.00    +0.060 A 
ATOM     34  C   LIG    1        1.201   3.205  -0.040  0.00  0.00    +0.050 A 
ATOM     35  C   LIG    1       -0.003   3.892  -0.017  0.00  0.00    +0.100 A 
ATOM     36  C   LIG    1       -1.195   3.186  -0.003  0.00  0.00    -0.140 A 
ATOM     37  O   LIG    1       -2.989   0.205   0.005  0.00  0.00    -0.460 OA
ATOM     38  C   LIG    1       -2.622   3.571   0.022  0.00  0.00    +0.580 C 
ATOM     39  O   LIG    1       -3.050   4.708   0.037  0.00  0.00    -0.460 OA
ENDBRANCH  28  29
ENDBRANCH   4  28
TORSDOF 6
