REMARK  Name = ZINCpk00000Fahkg.0
REMARK                            x       y       z     vdW  Elec       q    Type
REMARK                         _______ _______ _______ _____ _____    ______ ____
ROOT
ATOM      1  O   LIG    1        6.085   6.079   4.568  0.00  0.00    -0.470 OA
ATOM      2  C   LIG    1        5.347   6.889   5.086  0.00  0.00    +0.550 C 
ATOM      3  C   LIG    1        5.415   7.339   6.529  0.00  0.00    -0.030 C 
ATOM      4  C   LIG    1        4.232   7.030   7.449  0.00  0.00    +0.200 C 
ATOM      5  C   LIG    1        4.263   8.359   6.644  0.00  0.00    -0.140 C 
ATOM      6  C   LIG    1        3.670   8.382   5.253  0.00  0.00    +0.570 C 
ATOM      7  O   LIG    1        2.732   9.065   4.901  0.00  0.00    -0.460 OA
ATOM      8  N   LIG    1        4.343   7.528   4.472  0.00  0.00    -0.570 N 
ENDROOT
BRANCH   5   9
ATOM      9  C   LIG    1        4.420   9.672   7.367  0.00  0.00    -0.050 A 
ATOM     10  C   LIG    1        5.626   9.994   7.961  0.00  0.00    +0.010 A 
ATOM     11  C   LIG    1        5.771  11.200   8.621  0.00  0.00    +0.010 A 
ATOM     12  C   LIG    1        4.707  12.080   8.695  0.00  0.00    +0.010 A 
ATOM     13  C   LIG    1        3.500  11.755   8.106  0.00  0.00    +0.010 A 
ATOM     14  C   LIG    1        3.356  10.551   7.442  0.00  0.00    +0.040 A 
ENDBRANCH   5   9
BRANCH   8  15
ATOM     15  C   LIG    1        4.012   7.313   3.061  0.00  0.00    +0.280 C 
BRANCH  15  16
ATOM     16  C   LIG    1        2.993   6.178   2.943  0.00  0.00    +0.210 C 
BRANCH  16  17
ATOM     17  O   LIG    1        1.768   6.571   3.563  0.00  0.00    -0.540 OA
ATOM     18  H   LIG    1        1.364   7.358   3.173  0.00  0.00    +0.380 HD
ENDBRANCH  16  17
BRANCH  16  19
ATOM     19  C   LIG    1        2.741   5.870   1.466  0.00  0.00    +0.160 C 
BRANCH  19  20
ATOM     20  O   LIG    1        1.881   4.735   1.356  0.00  0.00    -0.370 OA
BRANCH  20  21
ATOM     21  C   LIG    1        1.581   4.361   0.009  0.00  0.00    +0.290 C 
BRANCH  21  22
ATOM     22  C   LIG    1        0.671   3.160   0.012  0.00  0.00    -0.020 A 
ATOM     23  C   LIG    1       -0.673   3.191   0.025  0.00  0.00    -0.030 A 
ATOM     24  C   LIG    1       -1.114   1.848   0.017  0.00  0.00    -0.070 A 
ATOM     25  C   LIG    1       -0.013   1.076   0.008  0.00  0.00    +0.180 A 
ATOM     26  O   LIG    1        1.066   1.876   0.002  0.00  0.00    -0.170 OA
ENDBRANCH  21  22
ENDBRANCH  20  21
ENDBRANCH  19  20
ENDBRANCH  16  19
ENDBRANCH  15  16
ENDBRANCH   8  15
TORSDOF 8
