REMARK  Name = ZINCqH0000001zU8.0
REMARK                            x       y       z     vdW  Elec       q    Type
REMARK                         _______ _______ _______ _____ _____    ______ ____
ROOT
ATOM      1  N   LIG    1       -2.821   1.449   0.263  0.00  0.00    -0.740 N 
ATOM      2  H   LIG    1       -2.468   2.029  -0.429  0.00  0.00    +0.400 HD
ATOM      3  C   LIG    1       -4.075   0.966   0.162  0.00  0.00    +0.510 C 
ATOM      4  O   LIG    1       -4.517   0.240   1.028  0.00  0.00    -0.530 OA
ENDROOT
BRANCH   1   5
ATOM      5  C   LIG    1       -1.992   1.099   1.419  0.00  0.00    +0.270 C 
BRANCH   5   6
ATOM      6  C   LIG    1       -0.575   1.638   1.212  0.00  0.00    +0.060 C 
BRANCH   6   7
ATOM      7  C   LIG    1        0.223   1.453   2.477  0.00  0.00    +0.090 A 
ATOM      8  C   LIG    1        0.887   0.333   2.845  0.00  0.00    -0.110 A 
ATOM      9  C   LIG    1        1.495   0.579   4.080  0.00  0.00    +0.230 A 
ATOM     10  N   LIG    1        1.200   1.801   4.445  0.00  0.00    -0.290 NA
ATOM     11  N   LIG    1        0.397   2.373   3.449  0.00  0.00    -0.370 N 
ATOM     12  C   LIG    1       -0.155   3.729   3.461  0.00  0.00    +0.350 C 
ENDBRANCH   6   7
BRANCH   6  14
ATOM     13  C   LIG    1        1.552   1.335  -0.062  0.00  0.00    +0.020 C 
ATOM     14  C   LIG    1        0.099   0.876   0.069  0.00  0.00    +0.000 C 
ATOM     15  C   LIG    1       -0.644   1.157  -1.239  0.00  0.00    +0.020 C 
ENDBRANCH   6  14
ENDBRANCH   5   6
ENDBRANCH   1   5
BRANCH   3  16
ATOM     16  C   LIG    1       -4.928   1.327  -1.026  0.00  0.00    +0.040 C 
BRANCH  16  17
ATOM     17  C   LIG    1       -6.295   0.652  -0.896  0.00  0.00    +0.040 C 
BRANCH  17  18
ATOM     18  C   LIG    1       -7.162   1.018  -2.103  0.00  0.00    +0.100 C 
BRANCH  18  19
ATOM     19  C   LIG    1       -8.508   0.353  -1.975  0.00  0.00    -0.170 A 
ATOM     20  C   LIG    1       -8.875  -0.819  -2.517  0.00  0.00    +0.220 A 
ATOM     21  N   LIG    1      -10.172  -1.101  -2.185  0.00  0.00    -0.600 N 
ATOM     22  H   LIG    1      -10.658  -1.894  -2.461  0.00  0.00    +0.420 HD
ATOM     23  C   LIG    1      -10.685  -0.091  -1.401  0.00  0.00    +0.090 A 
ATOM     24  C   LIG    1      -11.922   0.122  -0.803  0.00  0.00    -0.010 A 
ATOM     25  C   LIG    1      -12.135   1.261  -0.058  0.00  0.00    +0.020 A 
ATOM     26  C   LIG    1      -11.126   2.200   0.103  0.00  0.00    -0.030 A 
ATOM     27  C   LIG    1       -9.902   2.011  -0.477  0.00  0.00    +0.050 A 
ATOM     28  C   LIG    1       -9.663   0.861  -1.231  0.00  0.00    -0.100 A 
ENDBRANCH  18  19
ENDBRANCH  17  18
ENDBRANCH  16  17
ENDBRANCH   3  16
TORSDOF 8
