REMARK  Name = ZINCrH000004qnc1.0
REMARK                            x       y       z     vdW  Elec       q    Type
REMARK                         _______ _______ _______ _____ _____    ______ ____
ROOT
ATOM      1  C   LIG    1       -1.648   8.667   2.762  0.00  0.00    +0.130 C 
ATOM      2  C   LIG    1       -0.342   8.594   2.014  0.00  0.00    +0.010 A 
ATOM      3  C   LIG    1        0.828   9.101   2.438  0.00  0.00    +0.010 A 
ATOM      4  C   LIG    1        1.813   8.801   1.391  0.00  0.00    -0.270 A 
ATOM      5  C   LIG    1        1.124   8.115   0.409  0.00  0.00    +0.140 A 
ATOM      6  C   LIG    1        1.707   7.588  -0.877  0.00  0.00    +0.160 C 
ATOM      7  N   LIG    1       -0.158   7.998   0.800  0.00  0.00    -0.430 N 
ENDROOT
BRANCH   4   8
ATOM      8  C   LIG    1        3.234   9.155   1.389  0.00  0.00    +0.450 C 
ATOM      9  O   LIG    1        3.936   8.841   0.450  0.00  0.00    -0.460 OA
BRANCH   8  10
ATOM     10  C   LIG    1        3.825   9.911   2.551  0.00  0.00    +0.090 C 
BRANCH  10  11
ATOM     11  S   LIG    1        5.587  10.197   2.253  0.00  0.00    +0.090 S 
BRANCH  11  12
ATOM     12  C   LIG    1        6.008  11.071   3.723  0.00  0.00    -0.020 A 
ATOM     13  N   LIG    1        5.196  11.381   4.694  0.00  0.00    -0.270 NA
ATOM     14  N   LIG    1        5.673  12.008   5.678  0.00  0.00    -0.250 NA
ATOM     15  C   LIG    1        6.930  12.310   5.653  0.00  0.00    +0.220 A 
ATOM     16  S   LIG    1        7.606  11.691   4.145  0.00  0.00    +0.110 S 
ENDBRANCH  11  12
ENDBRANCH  10  11
ENDBRANCH   8  10
ENDBRANCH   4   8
BRANCH   7  17
ATOM     17  C   LIG    1       -1.209   7.332   0.028  0.00  0.00    +0.340 C 
BRANCH  17  18
ATOM     18  C   LIG    1       -1.263   5.851   0.412  0.00  0.00    +0.120 C 
ATOM     19  C   LIG    1       -2.424   5.168  -0.323  0.00  0.00    +0.240 C 
ATOM     20  O   LIG    1       -2.437   3.785   0.049  0.00  0.00    -0.300 OA
ATOM     21  C   LIG    1       -1.241   3.136   0.030  0.00  0.00    +0.050 A 
ATOM     22  C   LIG    1       -1.220   1.750   0.017  0.00  0.00    +0.030 A 
ATOM     23  C   LIG    1       -0.013   1.076   0.008  0.00  0.00    +0.020 A 
ATOM     24  C   LIG    1        1.175   1.782   0.000  0.00  0.00    +0.020 A 
ATOM     25  C   LIG    1        1.161   3.164   0.007  0.00  0.00    +0.030 A 
ATOM     26  C   LIG    1       -0.046   3.846   0.021  0.00  0.00    +0.050 A 
ATOM     27  O   LIG    1       -0.045   5.207   0.023  0.00  0.00    -0.300 OA
ENDBRANCH  17  18
ENDBRANCH   7  17
TORSDOF 6
