REMARK  Name = ZINCkj00000y7Hyw.0
REMARK                            x       y       z     vdW  Elec       q    Type
REMARK                         _______ _______ _______ _____ _____    ______ ____
ROOT
ATOM      1  C   LIG    1       -2.223   1.850   0.736  0.00  0.00    -0.130 C 
ATOM      2  C   LIG    1       -2.199   1.455  -0.756  0.00  0.00    +0.350 C 
ATOM      3  N   LIG    1       -0.776   1.600  -1.158  0.00  0.00    -0.510 N 
ATOM      4  C   LIG    1       -0.013   1.086   0.008  0.00  0.00    +0.350 C 
ATOM      5  H   LIG    1       -0.583   1.045  -1.979  0.00  0.00    +0.450 HD
ATOM      6  H   LIG    1       -0.553   2.570  -1.326  0.00  0.00    +0.440 HD
ATOM      7  C   LIG    1       -1.354   3.026   1.185  0.00  0.00    +0.190 C 
ATOM      8  C   LIG    1       -0.782   1.607   1.240  0.00  0.00    -0.240 C 
ENDROOT
BRANCH   8   9
ATOM      9  C   LIG    1       -0.499   0.940   2.588  0.00  0.00    +0.510 C 
ATOM     10  F   LIG    1       -1.110  -0.318   2.623  0.00  0.00    -0.170 F 
ATOM     11  F   LIG    1       -1.010   1.735   3.619  0.00  0.00    -0.160 F 
ATOM     12  F   LIG    1        0.882   0.792   2.754  0.00  0.00    -0.160 F 
ENDBRANCH   8   9
BRANCH   1  13
ATOM     13  C   LIG    1       -3.445   1.437   1.559  0.00  0.00    +0.360 C 
BRANCH  13  16
ATOM     14  O   LIG    1       -5.947   0.951   2.440  0.00  0.00    -0.510 OA
ATOM     15  C   LIG    1       -5.871   1.451   1.335  0.00  0.00    +0.580 C 
ATOM     16  N   LIG    1       -4.665   1.733   0.804  0.00  0.00    -0.720 N 
ATOM     17  H   LIG    1       -4.605   2.131  -0.078  0.00  0.00    +0.410 HD
BRANCH  15  18
ATOM     18  C   LIG    1       -7.105   1.750   0.571  0.00  0.00    +0.060 A 
ATOM     19  C   LIG    1       -8.348   1.452   1.123  0.00  0.00    +0.050 A 
ATOM     20  C   LIG    1       -9.494   1.743   0.399  0.00  0.00    +0.070 A 
ATOM     21  C   LIG    1       -9.356   2.312  -0.857  0.00  0.00    +0.010 A 
ATOM     22  C   LIG    1       -8.086   2.577  -1.346  0.00  0.00    +0.270 A 
ATOM     23  N   LIG    1       -7.016   2.296  -0.636  0.00  0.00    -0.470 NA
ENDBRANCH  15  18
ENDBRANCH  13  16
ENDBRANCH   1  13
TORSDOF 4
