REMARK  Name = ZINCtV000002Kt7V.0
REMARK                            x       y       z     vdW  Elec       q    Type
REMARK                         _______ _______ _______ _____ _____    ______ ____
ROOT
ATOM      1  C   LIG    1       -0.997   6.496   0.014  0.00  0.00    -0.020 A 
ATOM      2  C   LIG    1       -2.286   6.037  -0.260  0.00  0.00    +0.070 A 
ATOM      3  C   LIG    1       -3.346   6.920  -0.251  0.00  0.00    +0.030 A 
ATOM      4  C   LIG    1       -3.132   8.260   0.017  0.00  0.00    -0.100 A 
ATOM      5  C   LIG    1       -1.855   8.723   0.283  0.00  0.00    +0.040 A 
ATOM      6  C   LIG    1       -0.788   7.849   0.283  0.00  0.00    +0.030 A 
ENDROOT
BRANCH   1  11
ATOM      7  C   LIG    1        3.695   3.757   0.219  0.00  0.00    +0.160 C 
ATOM      8  C   LIG    1        2.295   4.303   0.107  0.00  0.00    -0.190 A 
ATOM      9  C   LIG    1        1.188   3.588  -0.184  0.00  0.00    +0.100 A 
ATOM     10  N   LIG    1        0.063   4.278  -0.224  0.00  0.00    -0.440 NA
ATOM     11  C   LIG    1        0.142   5.554   0.013  0.00  0.00    +0.110 A 
ATOM     12  S   LIG    1        1.820   5.985   0.331  0.00  0.00    +0.110 S 
BRANCH   9  13
ATOM     13  C   LIG    1        1.231   2.127  -0.435  0.00  0.00    -0.060 A 
ATOM     14  C   LIG    1        2.174   1.596  -1.312  0.00  0.00    +0.110 A 
ATOM     15  C   LIG    1        2.212   0.236  -1.543  0.00  0.00    -0.010 A 
ATOM     16  C   LIG    1        1.313  -0.603  -0.904  0.00  0.00    +0.140 A 
ATOM     17  C   LIG    1        0.373  -0.082  -0.030  0.00  0.00    -0.040 A 
ATOM     18  F   LIG    1        1.354  -1.933  -1.134  0.00  0.00    -0.130 F 
ATOM     19  C   LIG    1        0.328   1.279   0.208  0.00  0.00    +0.160 A 
ATOM     20  F   LIG    1       -0.589   1.787   1.060  0.00  0.00    -0.120 F 
ENDBRANCH   9  13
ENDBRANCH   1  11
BRANCH   4  21
ATOM     21  C   LIG    1       -4.293   9.220   0.018  0.00  0.00    +0.340 C 
BRANCH  21  22
ATOM     22  N   LIG    1       -4.475   9.770  -1.327  0.00  0.00    -0.710 N 
ATOM     23  H   LIG    1       -3.885   9.495  -2.047  0.00  0.00    +0.410 HD
ATOM     24  C   LIG    1       -5.462  10.656  -1.566  0.00  0.00    +0.650 C 
ATOM     25  O   LIG    1       -6.201  11.000  -0.664  0.00  0.00    -0.570 OA
BRANCH  24  26
ATOM     26  O   LIG    1       -5.629  11.161  -2.803  0.00  0.00    -0.360 OA
BRANCH  26  27
ATOM     27  C   LIG    1       -6.712  12.111  -2.986  0.00  0.00    +0.140 C 
ATOM     28  C   LIG    1       -8.042  11.443  -2.632  0.00  0.00    +0.040 C 
ATOM     29  C   LIG    1       -6.745  12.571  -4.445  0.00  0.00    +0.080 C 
ATOM     30  C   LIG    1       -6.489  13.320  -2.076  0.00  0.00    +0.040 C 
ENDBRANCH  26  27
ENDBRANCH  24  26
ENDBRANCH  21  22
ENDBRANCH   4  21
TORSDOF 6
