REMARK  Name = ZINCvU0000000535.0
REMARK                            x       y       z     vdW  Elec       q    Type
REMARK                         _______ _______ _______ _____ _____    ______ ____
ROOT
ATOM      1  O   LIG    1       -5.880  -0.755   1.108  0.00  0.00    -0.520 OA
ATOM      2  C   LIG    1       -5.338  -0.989   0.045  0.00  0.00    +0.570 C 
ATOM      3  N   LIG    1       -4.095  -1.509   0.023  0.00  0.00    -0.610 N 
ATOM      4  C   LIG    1       -3.347  -1.715   1.270  0.00  0.00    +0.300 C 
ATOM      5  C   LIG    1       -1.985  -1.024   1.148  0.00  0.00    +0.030 C 
ATOM      6  C   LIG    1       -1.269  -1.534  -0.105  0.00  0.00    +0.090 C 
ATOM      7  C   LIG    1       -2.099  -1.188  -1.344  0.00  0.00    +0.040 C 
ATOM      8  C   LIG    1       -3.462  -1.881  -1.250  0.00  0.00    +0.280 C 
ENDROOT
BRANCH   6   9
ATOM      9  C   LIG    1        0.085  -0.881  -0.210  0.00  0.00    +0.100 A 
ATOM     10  N   LIG    1        1.193  -1.521  -0.220  0.00  0.00    -0.460 NA
ATOM     11  C   LIG    1        2.331  -0.807  -0.319  0.00  0.00    +0.080 A 
ATOM     12  C   LIG    1        3.669  -1.247  -0.353  0.00  0.00    +0.140 A 
ATOM     13  C   LIG    1        4.688  -0.349  -0.458  0.00  0.00    -0.170 A 
ATOM     14  C   LIG    1        4.429   1.012  -0.536  0.00  0.00    +0.080 A 
ATOM     15  C   LIG    1        3.131   1.470  -0.505  0.00  0.00    +0.090 A 
ATOM     16  C   LIG    1        2.077   0.567  -0.398  0.00  0.00    -0.170 A 
ATOM     17  S   LIG    1        0.333   0.802  -0.332  0.00  0.00    +0.130 S 
BRANCH  13  18
ATOM     18  C   LIG    1        6.112  -0.840  -0.492  0.00  0.00    +0.510 C 
ATOM     19  F   LIG    1        6.287  -1.688  -1.591  0.00  0.00    -0.170 F 
ATOM     20  F   LIG    1        6.393  -1.539   0.687  0.00  0.00    -0.170 F 
ATOM     21  F   LIG    1        6.979   0.253  -0.604  0.00  0.00    -0.170 F 
ENDBRANCH  13  18
ENDBRANCH   6   9
BRANCH   2  22
ATOM     22  C   LIG    1       -6.041  -0.702  -1.220  0.00  0.00    -0.150 A 
ATOM     23  C   LIG    1       -6.198  -1.705  -2.179  0.00  0.00    +0.080 A 
ATOM     24  C   LIG    1       -6.856  -1.431  -3.358  0.00  0.00    -0.010 A 
ATOM     25  C   LIG    1       -7.363  -0.165  -3.598  0.00  0.00    +0.080 A 
ATOM     26  C   LIG    1       -7.215   0.836  -2.658  0.00  0.00    -0.050 A 
ATOM     27  C   LIG    1       -6.561   0.577  -1.464  0.00  0.00    +0.150 A 
BRANCH  27  28
ATOM     28  O   LIG    1       -6.419   1.558  -0.537  0.00  0.00    -0.310 OA
BRANCH  28  29
ATOM     29  C   LIG    1       -6.974   2.835  -0.855  0.00  0.00    +0.600 C 
ATOM     30  F   LIG    1       -8.352   2.707  -1.059  0.00  0.00    -0.190 F 
ATOM     31  F   LIG    1       -6.374   3.328  -2.019  0.00  0.00    -0.200 F 
ENDBRANCH  28  29
ENDBRANCH  27  28
ENDBRANCH   2  22
TORSDOF 5
