REMARK  Name = ZINCpe00000VVGGn.0
REMARK                            x       y       z     vdW  Elec       q    Type
REMARK                         _______ _______ _______ _____ _____    ______ ____
ROOT
ATOM      1  C   LIG    1       -5.788   3.456   4.152  0.00  0.00    +0.380 C 
ATOM      2  O   LIG    1       -6.097   2.562   4.904  0.00  0.00    -0.380 OA
ENDROOT
BRANCH   1   8
ATOM      3  C   LIG    1       -2.126   1.430   1.805  0.00  0.00    +0.530 C 
ATOM      4  N   LIG    1       -2.500   2.105   2.910  0.00  0.00    -0.610 N 
ATOM      5  C   LIG    1       -1.526   2.907   3.664  0.00  0.00    +0.270 C 
ATOM      6  C   LIG    1       -2.073   4.329   3.818  0.00  0.00    +0.020 C 
ATOM      7  C   LIG    1       -3.464   4.270   4.454  0.00  0.00    +0.050 C 
ATOM      8  C   LIG    1       -4.410   3.485   3.542  0.00  0.00    -0.040 C 
ATOM      9  C   LIG    1       -3.891   2.058   3.381  0.00  0.00    +0.300 C 
ATOM     10  O   LIG    1       -2.914   0.699   1.245  0.00  0.00    -0.530 OA
BRANCH   3  12
ATOM     11  C   LIG    1       -0.577   0.752  -0.009  0.00  0.00    +0.050 C 
ATOM     12  C   LIG    1       -0.726   1.583   1.267  0.00  0.00    -0.090 C 
ATOM     13  C   LIG    1       -0.460   3.056   0.950  0.00  0.00    +0.040 C 
ATOM     14  C   LIG    1        0.279   1.097   2.313  0.00  0.00    +0.040 C 
ENDBRANCH   3  12
ENDBRANCH   1   8
BRANCH   1  15
ATOM     15  C   LIG    1       -6.780   4.542   3.825  0.00  0.00    +0.100 C 
BRANCH  15  16
ATOM     16  C   LIG    1       -7.706   4.746   4.997  0.00  0.00    +0.530 C 
ATOM     17  N   LIG    1       -8.682   5.673   4.931  0.00  0.00    -0.610 N 
ATOM     18  C   LIG    1       -8.859   6.503   3.728  0.00  0.00    +0.240 C 
ATOM     19  C   LIG    1      -10.337   6.433   3.311  0.00  0.00    +0.220 C 
ATOM     20  O   LIG    1      -11.157   6.761   4.435  0.00  0.00    -0.370 OA
ATOM     21  C   LIG    1      -11.036   5.854   5.533  0.00  0.00    +0.220 C 
ATOM     22  C   LIG    1       -9.598   5.890   6.062  0.00  0.00    +0.270 C 
ATOM     23  O   LIG    1       -7.573   4.075   5.998  0.00  0.00    -0.490 OA
ENDBRANCH  15  16
BRANCH  15  24
ATOM     24  C   LIG    1       -7.564   4.150   2.643  0.00  0.00    +0.200 C 
ATOM     25  N   LIG    1       -8.169   3.848   1.730  0.00  0.00    -0.370 NA
ENDBRANCH  15  24
ENDBRANCH   1  15
TORSDOF 5
