REMARK  Name = ZINCpe000000TWZd.0
REMARK                            x       y       z     vdW  Elec       q    Type
REMARK                         _______ _______ _______ _____ _____    ______ ____
ROOT
ATOM      1  C   LIG    1        6.113   5.588   3.520  0.00  0.00    +0.080 A 
ATOM      2  N   LIG    1        6.563   5.027   2.417  0.00  0.00    -0.230 NA
ATOM      3  N   LIG    1        5.691   4.221   1.927  0.00  0.00    -0.380 N 
ATOM      4  H   LIG    1        5.810   3.696   1.120  0.00  0.00    +0.440 HD
ATOM      5  C   LIG    1        4.571   4.217   2.709  0.00  0.00    -0.040 A 
ATOM      6  C   LIG    1        4.817   5.091   3.751  0.00  0.00    +0.040 A 
ENDROOT
BRANCH   1  12
ATOM      7  C   LIG    1        8.129   6.977   4.015  0.00  0.00    +0.150 A 
ATOM      8  C   LIG    1        8.801   7.891   4.810  0.00  0.00    -0.080 A 
ATOM      9  C   LIG    1        8.196   8.397   5.945  0.00  0.00    +0.060 A 
ATOM     10  C   LIG    1        6.920   7.994   6.294  0.00  0.00    -0.030 A 
ATOM     11  C   LIG    1        6.237   7.088   5.508  0.00  0.00    +0.070 A 
ATOM     12  C   LIG    1        6.839   6.568   4.365  0.00  0.00    -0.050 A 
BRANCH   7  13
ATOM     13  O   LIG    1        8.723   6.479   2.899  0.00  0.00    -0.290 OA
BRANCH  13  15
ATOM     14  C   LIG    1       10.542   6.275   1.320  0.00  0.00    +0.070 C 
ATOM     15  C   LIG    1       10.042   6.942   2.604  0.00  0.00    +0.170 C 
ENDBRANCH  13  15
ENDBRANCH   7  13
ENDBRANCH   1  12
BRANCH   5  16
ATOM     16  C   LIG    1        3.346   3.431   2.489  0.00  0.00    +0.610 C 
ATOM     17  N   LIG    1        3.251   2.616   1.420  0.00  0.00    -0.580 N 
ATOM     18  H   LIG    1        3.991   2.546   0.796  0.00  0.00    +0.380 HD
ATOM     19  O   LIG    1        2.418   3.518   3.271  0.00  0.00    -0.480 OA
BRANCH  17  20
ATOM     20  N   LIG    1        2.114   1.887   1.215  0.00  0.00    -0.310 NA
ATOM     21  C   LIG    1        1.422   2.324   0.001  0.00  0.00    +0.230 C 
ATOM     22  C   LIG    1       -0.023   1.814   0.012  0.00  0.00    -0.300 C 
ATOM     23  S   LIG    1        0.002  -0.004   0.002  0.00  0.00    +2.410 S 
ATOM     24  C   LIG    1        1.111  -0.344   1.402  0.00  0.00    -0.300 C 
ATOM     25  O   LIG    1        0.630  -0.445  -1.194  0.00  0.00    -0.930 OA
ATOM     26  O   LIG    1       -1.298  -0.479   0.325  0.00  0.00    -0.930 OA
ATOM     27  C   LIG    1        2.405   0.451   1.207  0.00  0.00    +0.230 C 
ENDBRANCH  17  20
ENDBRANCH   5  16
TORSDOF 5
