REMARK  Name = ZINCrD000004eprI.0
REMARK                            x       y       z     vdW  Elec       q    Type
REMARK                         _______ _______ _______ _____ _____    ______ ____
ROOT
ATOM      1  O   LIG    1       -0.063  -0.074  -0.134  0.00  0.00    -0.580 OA
ATOM      2  C   LIG    1       -1.051  -0.690  -0.485  0.00  0.00    +0.710 C 
ATOM      3  N   LIG    1       -1.073  -2.034  -0.399  0.00  0.00    -0.630 N 
ATOM      4  C   LIG    1        0.044  -2.763   0.216  0.00  0.00    +0.300 C 
ATOM      5  C   LIG    1        0.542  -3.828  -0.760  0.00  0.00    +0.030 C 
ATOM      6  C   LIG    1       -0.630  -4.715  -1.185  0.00  0.00    +0.100 C 
ATOM      7  C   LIG    1       -1.687  -3.864  -1.893  0.00  0.00    +0.030 C 
ATOM      8  C   LIG    1       -2.212  -2.800  -0.924  0.00  0.00    +0.280 C 
ATOM      9  N   LIG    1       -2.124  -0.027  -0.960  0.00  0.00    -0.740 N 
ATOM     10  H   LIG    1       -2.884  -0.520  -1.307  0.00  0.00    +0.400 HD
ENDROOT
BRANCH   9  11
ATOM     11  C   LIG    1       -2.144   1.438  -0.952  0.00  0.00    +0.260 C 
ATOM     12  C   LIG    1       -3.594   1.929  -0.930  0.00  0.00    +0.040 C 
ATOM     13  C   LIG    1       -3.617   3.440  -0.670  0.00  0.00    +0.120 C 
ATOM     14  C   LIG    1       -2.654   4.101  -1.621  0.00  0.00    -0.030 A 
ATOM     15  C   LIG    1       -1.690   3.450  -2.307  0.00  0.00    +0.010 A 
ATOM     16  N   LIG    1       -1.033   4.347  -3.048  0.00  0.00    -0.480 NA
ATOM     17  C   LIG    1       -1.552   5.530  -2.848  0.00  0.00    +0.390 A 
ATOM     18  N   LIG    1       -2.568   5.416  -1.962  0.00  0.00    -0.560 N 
ATOM     19  H   LIG    1       -3.129   6.135  -1.631  0.00  0.00    +0.420 HD
ATOM     20  C   LIG    1       -1.443   1.964  -2.211  0.00  0.00    +0.130 C 
ENDBRANCH   9  11
BRANCH   6  21
ATOM     21  C   LIG    1       -0.135  -5.785  -2.124  0.00  0.00    +0.060 A 
ATOM     22  N   LIG    1       -0.218  -7.054  -1.907  0.00  0.00    -0.440 NA
ATOM     23  C   LIG    1        0.262  -7.855  -2.837  0.00  0.00    -0.020 A 
ATOM     24  C   LIG    1        0.788  -7.226  -3.893  0.00  0.00    -0.020 A 
ATOM     25  S   LIG    1        0.624  -5.492  -3.628  0.00  0.00    +0.200 S 
BRANCH  23  26
ATOM     26  C   LIG    1        0.227  -9.357  -2.718  0.00  0.00    +0.550 C 
ATOM     27  F   LIG    1       -1.102  -9.794  -2.728  0.00  0.00    -0.170 F 
ATOM     28  F   LIG    1        0.836  -9.743  -1.519  0.00  0.00    -0.170 F 
ATOM     29  F   LIG    1        0.913  -9.927  -3.795  0.00  0.00    -0.170 F 
ENDBRANCH  23  26
ENDBRANCH   6  21
TORSDOF 3
