REMARK  Name = ZINCrD000004eprI.1
REMARK                            x       y       z     vdW  Elec       q    Type
REMARK                         _______ _______ _______ _____ _____    ______ ____
ROOT
ATOM      1  O   LIG    1        0.865  -4.226   0.294  0.00  0.00    -0.580 OA
ATOM      2  C   LIG    1        1.558  -4.828   1.091  0.00  0.00    +0.710 C 
ATOM      3  N   LIG    1        1.945  -6.092   0.829  0.00  0.00    -0.630 N 
ATOM      4  C   LIG    1        1.628  -6.719  -0.462  0.00  0.00    +0.300 C 
ATOM      5  C   LIG    1        0.916  -8.046  -0.209  0.00  0.00    +0.030 C 
ATOM      6  C   LIG    1        1.771  -8.913   0.719  0.00  0.00    +0.100 C 
ATOM      7  C   LIG    1        1.957  -8.199   2.059  0.00  0.00    +0.030 C 
ATOM      8  C   LIG    1        2.686  -6.872   1.829  0.00  0.00    +0.270 C 
ATOM      9  N   LIG    1        1.941  -4.231   2.237  0.00  0.00    -0.740 N 
ATOM     10  H   LIG    1        2.433  -4.733   2.905  0.00  0.00    +0.400 HD
ENDROOT
BRANCH   9  11
ATOM     11  C   LIG    1        1.613  -2.822   2.474  0.00  0.00    +0.270 C 
ATOM     12  C   LIG    1        2.622  -2.222   3.457  0.00  0.00    +0.020 C 
ATOM     13  C   LIG    1        2.438  -0.701   3.515  0.00  0.00    +0.140 C 
ATOM     14  C   LIG    1        0.975  -0.406   3.733  0.00  0.00    +0.000 A 
ATOM     15  C   LIG    1       -0.014  -1.303   3.533  0.00  0.00    -0.020 A 
ATOM     16  N   LIG    1       -1.186  -0.680   3.834  0.00  0.00    -0.560 N 
ATOM     17  H   LIG    1       -2.074  -1.068   3.788  0.00  0.00    +0.420 HD
ATOM     18  C   LIG    1       -0.879   0.584   4.207  0.00  0.00    +0.390 A 
ATOM     19  N   LIG    1        0.418   0.737   4.144  0.00  0.00    -0.480 NA
ATOM     20  C   LIG    1        0.201  -2.718   3.064  0.00  0.00    +0.110 C 
ENDBRANCH   9  11
BRANCH   6  21
ATOM     21  C   LIG    1        1.085 -10.235   0.945  0.00  0.00    +0.060 A 
ATOM     22  N   LIG    1        1.578 -11.386   0.634  0.00  0.00    -0.440 NA
ATOM     23  C   LIG    1        0.844 -12.447   0.905  0.00  0.00    -0.020 A 
ATOM     24  C   LIG    1       -0.338 -12.175   1.466  0.00  0.00    -0.020 A 
ATOM     25  S   LIG    1       -0.464 -10.427   1.643  0.00  0.00    +0.190 S 
BRANCH  23  26
ATOM     26  C   LIG    1        1.299 -13.852   0.601  0.00  0.00    +0.550 C 
ATOM     27  F   LIG    1        2.415 -14.161   1.385  0.00  0.00    -0.170 F 
ATOM     28  F   LIG    1        1.638 -13.949  -0.753  0.00  0.00    -0.170 F 
ATOM     29  F   LIG    1        0.264 -14.749   0.888  0.00  0.00    -0.170 F 
ENDBRANCH  23  26
ENDBRANCH   6  21
TORSDOF 3
