REMARK  Name = ZINCvU0000000Ibo.0
REMARK                            x       y       z     vdW  Elec       q    Type
REMARK                         _______ _______ _______ _____ _____    ______ ____
ROOT
ATOM      1  N   LIG    1        3.621  -1.803   0.285  0.00  0.00    -0.420 NA
ATOM      2  C   LIG    1        4.497  -0.830   0.365  0.00  0.00    +0.380 C 
ATOM      3  S   LIG    1        4.037   0.779   0.943  0.00  0.00    -0.150 S 
ATOM      4  C   LIG    1        5.423   1.072   2.076  0.00  0.00    +0.110 C 
ATOM      5  C   LIG    1        6.735   0.837   1.325  0.00  0.00    +0.050 C 
ATOM      6  C   LIG    1        6.873  -0.637   0.953  0.00  0.00    +0.300 C 
ATOM      7  N   LIG    1        5.826  -1.021   0.005  0.00  0.00    -0.550 N 
ATOM      8  C   LIG    1        6.147  -1.548  -1.193  0.00  0.00    +0.590 C 
ATOM      9  O   LIG    1        7.309  -1.785  -1.461  0.00  0.00    -0.510 OA
ENDROOT
BRANCH   8  10
ATOM     10  C   LIG    1        5.088  -1.838  -2.179  0.00  0.00    -0.160 A 
ATOM     11  C   LIG    1        3.845  -1.198  -2.080  0.00  0.00    +0.060 A 
ATOM     12  C   LIG    1        2.857  -1.455  -2.984  0.00  0.00    -0.010 A 
ATOM     13  C   LIG    1        3.072  -2.360  -4.021  0.00  0.00    +0.130 A 
ATOM     14  N   LIG    1        2.285  -2.810  -5.055  0.00  0.00    -0.580 N 
ATOM     15  H   LIG    1        1.373  -2.526  -5.223  0.00  0.00    +0.410 HD
ATOM     16  C   LIG    1        2.977  -3.714  -5.811  0.00  0.00    +0.070 A 
ATOM     17  C   LIG    1        4.212  -3.878  -5.303  0.00  0.00    -0.150 A 
ATOM     18  C   LIG    1        5.259  -4.801  -5.871  0.00  0.00    +0.100 C 
ATOM     19  C   LIG    1        4.571  -5.787  -6.823  0.00  0.00    -0.020 C 
ATOM     20  C   LIG    1        3.676  -5.012  -7.795  0.00  0.00    +0.030 C 
ATOM     21  C   LIG    1        5.631  -6.560  -7.611  0.00  0.00    +0.030 C 
ATOM     22  C   LIG    1        2.473  -4.441  -7.037  0.00  0.00    +0.100 C 
ATOM     23  C   LIG    1        4.319  -3.012  -4.132  0.00  0.00    -0.110 A 
ATOM     24  C   LIG    1        5.327  -2.741  -3.211  0.00  0.00    +0.140 A 
ENDBRANCH   8  10
BRANCH   1  30
ATOM     25  C   LIG    1        1.785  -2.518   1.659  0.00  0.00    +0.150 A 
ATOM     26  C   LIG    1        0.495  -2.321   2.118  0.00  0.00    -0.070 A 
ATOM     27  C   LIG    1       -0.240  -1.234   1.677  0.00  0.00    +0.050 A 
ATOM     28  C   LIG    1        0.308  -0.340   0.775  0.00  0.00    -0.010 A 
ATOM     29  C   LIG    1        1.594  -0.523   0.308  0.00  0.00    +0.040 A 
ATOM     30  C   LIG    1        2.344  -1.615   0.746  0.00  0.00    +0.060 A 
BRANCH  25  32
ATOM     31  C   LIG    1        1.872  -4.465   3.022  0.00  0.00    +0.240 C 
ATOM     32  O   LIG    1        2.507  -3.586   2.091  0.00  0.00    -0.300 OA
ENDBRANCH  25  32
ENDBRANCH   1  30
TORSDOF 3
