REMARK  Name = ZINCkj00000y7KOm.1
REMARK                            x       y       z     vdW  Elec       q    Type
REMARK                         _______ _______ _______ _____ _____    ______ ____
ROOT
ATOM      1  C   LIG    1        2.376   1.227  -3.235  0.00  0.00    +0.140 C 
ATOM      2  C   LIG    1        1.219   0.915  -4.206  0.00  0.00    +0.090 C 
ATOM      3  C   LIG    1       -0.008   1.554  -3.505  0.00  0.00    +0.080 C 
ATOM      4  C   LIG    1        0.315   1.296  -2.012  0.00  0.00    +0.270 C 
ATOM      5  N   LIG    1        1.780   1.468  -1.908  0.00  0.00    -0.380 N 
ATOM      6  H   LIG    1        1.991   2.408  -1.608  0.00  0.00    +0.430 HD
ENDROOT
BRANCH   1   7
ATOM      7  C   LIG    1        3.334   0.036  -3.166  0.00  0.00    +0.300 C 
BRANCH   7  10
ATOM      8  C   LIG    1        4.233  -1.228  -6.664  0.00  0.00    +0.110 C 
ATOM      9  C   LIG    1        3.487  -0.968  -5.381  0.00  0.00    +0.530 C 
ATOM     10  N   LIG    1        4.001  -0.129  -4.460  0.00  0.00    -0.580 N 
ATOM     11  O   LIG    1        2.423  -1.514  -5.177  0.00  0.00    -0.530 OA
BRANCH  10  12
ATOM     12  C   LIG    1        5.227   0.618  -4.753  0.00  0.00    +0.210 C 
ATOM     13  C   LIG    1        5.791   1.512  -3.647  0.00  0.00    +0.030 C 
ATOM     14  C   LIG    1        5.116   2.139  -4.870  0.00  0.00    +0.020 C 
ENDBRANCH  10  12
ENDBRANCH   7  10
ENDBRANCH   1   7
BRANCH   5  15
ATOM     15  C   LIG    1        2.323   0.506  -0.940  0.00  0.00    +0.250 C 
BRANCH  15  16
ATOM     16  C   LIG    1        1.840   0.869   0.466  0.00  0.00    +0.220 C 
BRANCH  16  17
ATOM     17  C   LIG    1        2.555  -0.010   1.494  0.00  0.00    +0.430 C 
ATOM     18  F   LIG    1        2.183   0.384   2.784  0.00  0.00    -0.150 F 
ATOM     19  F   LIG    1        3.939   0.130   1.345  0.00  0.00    -0.170 F 
ATOM     20  F   LIG    1        2.197  -1.347   1.293  0.00  0.00    -0.170 F 
ENDBRANCH  16  17
BRANCH  16  21
ATOM     21  O   LIG    1        0.430   0.655   0.555  0.00  0.00    -0.520 OA
ATOM     22  H   LIG    1        0.159  -0.258   0.387  0.00  0.00    +0.400 HD
ENDBRANCH  16  21
ENDBRANCH  15  16
ENDBRANCH   5  15
TORSDOF 7
