REMARK  Name = ZINCkj00000y7KOm.0
REMARK                            x       y       z     vdW  Elec       q    Type
REMARK                         _______ _______ _______ _____ _____    ______ ____
ROOT
ATOM      1  C   LIG    1       -1.502   3.975   2.380  0.00  0.00    +0.160 C 
ATOM      2  C   LIG    1       -2.460   5.126   1.986  0.00  0.00    +0.100 C 
ATOM      3  C   LIG    1       -2.934   4.673   0.581  0.00  0.00    +0.080 C 
ATOM      4  C   LIG    1       -1.677   4.001  -0.011  0.00  0.00    +0.250 C 
ATOM      5  N   LIG    1       -0.821   3.603   1.122  0.00  0.00    -0.380 N 
ATOM      6  H   LIG    1        0.065   4.082   1.063  0.00  0.00    +0.440 HD
ENDROOT
BRANCH   1   7
ATOM      7  C   LIG    1       -0.483   4.459   3.414  0.00  0.00    +0.340 C 
BRANCH   7  10
ATOM      8  C   LIG    1        2.753   2.420   3.302  0.00  0.00    +0.130 C 
ATOM      9  C   LIG    1        1.685   3.435   2.983  0.00  0.00    +0.510 C 
ATOM     10  N   LIG    1        0.512   3.410   3.647  0.00  0.00    -0.600 N 
ATOM     11  O   LIG    1        1.881   4.274   2.130  0.00  0.00    -0.530 OA
BRANCH  10  12
ATOM     12  C   LIG    1        0.234   2.334   4.601  0.00  0.00    +0.190 C 
ATOM     13  C   LIG    1       -1.208   2.179   5.090  0.00  0.00    +0.030 C 
ATOM     14  C   LIG    1       -0.136   2.735   6.031  0.00  0.00    +0.040 C 
ENDBRANCH  10  12
ENDBRANCH   7  10
ENDBRANCH   1   7
BRANCH   5  15
ATOM     15  C   LIG    1       -0.602   2.151   1.089  0.00  0.00    +0.250 C 
BRANCH  15  16
ATOM     16  C   LIG    1        0.174   1.781  -0.177  0.00  0.00    +0.210 C 
BRANCH  16  17
ATOM     17  C   LIG    1        0.294   0.258  -0.275  0.00  0.00    +0.430 C 
ATOM     18  F   LIG    1        1.003  -0.080  -1.433  0.00  0.00    -0.150 F 
ATOM     19  F   LIG    1       -0.984  -0.308  -0.330  0.00  0.00    -0.170 F 
ATOM     20  F   LIG    1        0.973  -0.229   0.847  0.00  0.00    -0.180 F 
ENDBRANCH  16  17
BRANCH  16  21
ATOM     21  O   LIG    1        1.480   2.359  -0.122  0.00  0.00    -0.510 OA
ATOM     22  H   LIG    1        2.008   2.065   0.633  0.00  0.00    +0.390 HD
ENDBRANCH  16  21
ENDBRANCH  15  16
ENDBRANCH   5  15
TORSDOF 7
