REMARK  Name = ZINCpk00000KfKC5.0
REMARK                            x       y       z     vdW  Elec       q    Type
REMARK                         _______ _______ _______ _____ _____    ______ ____
ROOT
ATOM      1  C   LIG    1        1.536   2.082  -0.317  0.00  0.00    +0.220 C 
ATOM      2  C   LIG    1        0.032   1.835  -0.561  0.00  0.00    +0.040 C 
ATOM      3  C   LIG    1       -0.059   0.287  -0.628  0.00  0.00    +0.040 C 
ATOM      4  C   LIG    1        1.277  -0.074  -1.323  0.00  0.00    +0.240 C 
ATOM      5  N   LIG    1        2.256   0.887  -0.781  0.00  0.00    -0.610 N 
ATOM      6  C   LIG    1        3.589   0.700  -0.720  0.00  0.00    +0.560 C 
ATOM      7  O   LIG    1        4.308   1.585  -0.299  0.00  0.00    -0.460 OA
ENDROOT
BRANCH   6   8
ATOM      8  C   LIG    1        4.176  -0.579  -1.166  0.00  0.00    -0.110 A 
ATOM      9  C   LIG    1        3.906  -1.068  -2.445  0.00  0.00    +0.070 A 
ATOM     10  C   LIG    1        4.457  -2.264  -2.855  0.00  0.00    +0.030 A 
ATOM     11  C   LIG    1        5.279  -2.983  -2.004  0.00  0.00    +0.060 A 
ATOM     12  C   LIG    1        5.555  -2.510  -0.735  0.00  0.00    +0.010 A 
ATOM     13  C   LIG    1        5.014  -1.307  -0.308  0.00  0.00    +0.180 A 
BRANCH  13  14
ATOM     14  N   LIG    1        5.297  -0.824   0.973  0.00  0.00    -0.340 N 
ATOM     15  C   LIG    1        6.165  -1.341   1.872  0.00  0.00    +0.460 A 
ATOM     16  N   LIG    1        6.122  -0.580   2.934  0.00  0.00    -0.330 NA
ATOM     17  N   LIG    1        5.280   0.376   2.773  0.00  0.00    -0.040 NA
ATOM     18  N   LIG    1        4.735   0.298   1.606  0.00  0.00    -0.020 NA
ENDBRANCH  13  14
ENDBRANCH   6   8
BRANCH   1  19
ATOM     19  C   LIG    1        1.997   3.307  -1.108  0.00  0.00    +0.310 C 
BRANCH  19  23
ATOM     20  C   LIG    1        6.911   4.152  -1.624  0.00  0.00    +0.090 C 
ATOM     21  C   LIG    1        5.544   3.952  -1.022  0.00  0.00    -0.230 A 
ATOM     22  C   LIG    1        4.404   3.688  -1.702  0.00  0.00    +0.200 A 
ATOM     23  N   LIG    1        3.403   3.584  -0.803  0.00  0.00    -0.350 N 
ATOM     24  N   LIG    1        3.947   3.780   0.473  0.00  0.00    -0.260 NA
ATOM     25  C   LIG    1        5.230   4.001   0.341  0.00  0.00    +0.220 A 
ENDBRANCH  19  23
ENDBRANCH   1  19
TORSDOF 4
