REMARK  Name = ZINCvU0000000FAV.0
REMARK                            x       y       z     vdW  Elec       q    Type
REMARK                         _______ _______ _______ _____ _____    ______ ____
ROOT
ATOM      1  N   LIG    1       -2.161   5.516   0.233  0.00  0.00    -0.720 N 
ATOM      2  H   LIG    1       -1.270   5.893   0.296  0.00  0.00    +0.400 HD
ATOM      3  C   LIG    1       -2.321   4.184   0.103  0.00  0.00    +0.580 C 
ATOM      4  O   LIG    1       -3.438   3.711   0.023  0.00  0.00    -0.550 OA
ENDROOT
BRANCH   3   5
ATOM      5  C   LIG    1       -1.141   3.301   0.058  0.00  0.00    -0.230 A 
ATOM      6  C   LIG    1        0.144   3.846   0.026  0.00  0.00    +0.090 A 
ATOM      7  C   LIG    1        1.243   3.015  -0.016  0.00  0.00    -0.060 A 
ATOM      8  C   LIG    1        1.080   1.639  -0.027  0.00  0.00    +0.090 A 
ATOM      9  C   LIG    1       -0.184   1.085   0.005  0.00  0.00    -0.080 A 
ATOM     10  C   LIG    1       -1.303   1.906   0.042  0.00  0.00    +0.280 A 
BRANCH  10  11
ATOM     11  N   LIG    1       -2.576   1.351   0.069  0.00  0.00    -0.720 N 
ATOM     12  H   LIG    1       -3.357   1.924   0.011  0.00  0.00    +0.420 HD
BRANCH  11  13
ATOM     13  C   LIG    1       -2.740  -0.100   0.183  0.00  0.00    +0.310 C 
BRANCH  13  14
ATOM     14  C   LIG    1       -4.207  -0.442   0.190  0.00  0.00    -0.160 A 
ATOM     15  C   LIG    1       -4.907  -0.510   1.384  0.00  0.00    +0.090 A 
ATOM     16  C   LIG    1       -6.258  -0.822   1.342  0.00  0.00    -0.030 A 
ATOM     17  C   LIG    1       -6.854  -1.064   0.119  0.00  0.00    +0.270 A 
ATOM     18  N   LIG    1       -6.156  -0.995  -0.998  0.00  0.00    -0.480 NA
ATOM     19  C   LIG    1       -4.872  -0.696  -0.996  0.00  0.00    +0.280 A 
ENDBRANCH  13  14
ENDBRANCH  11  13
ENDBRANCH  10  11
ENDBRANCH   3   5
BRANCH   1  20
ATOM     20  C   LIG    1       -3.333   6.394   0.277  0.00  0.00    +0.390 C 
BRANCH  20  25
ATOM     21  C   LIG    1       -1.768  11.394   1.716  0.00  0.00    +0.160 C 
ATOM     22  C   LIG    1       -2.174  10.093   1.073  0.00  0.00    -0.200 A 
ATOM     23  C   LIG    1       -2.246   9.851  -0.252  0.00  0.00    +0.090 A 
ATOM     24  N   LIG    1       -2.632   8.620  -0.556  0.00  0.00    -0.440 NA
ATOM     25  C   LIG    1       -2.884   7.824   0.425  0.00  0.00    +0.010 A 
ATOM     26  S   LIG    1       -2.645   8.621   1.918  0.00  0.00    +0.160 S 
BRANCH  23  27
ATOM     27  C   LIG    1       -1.923  10.872  -1.278  0.00  0.00    -0.010 A 
ATOM     28  C   LIG    1       -2.232  12.212  -1.052  0.00  0.00    +0.050 A 
ATOM     29  C   LIG    1       -1.924  13.159  -2.008  0.00  0.00    +0.030 A 
ATOM     30  C   LIG    1       -1.319  12.778  -3.193  0.00  0.00    -0.030 A 
ATOM     31  C   LIG    1       -1.015  11.448  -3.425  0.00  0.00    +0.030 A 
ATOM     32 CL   LIG    1       -0.942  13.973  -4.394  0.00  0.00    -0.070 Cl
ATOM     33  C   LIG    1       -1.314  10.494  -2.473  0.00  0.00    +0.070 A 
ENDBRANCH  23  27
ENDBRANCH  20  25
ENDBRANCH   1  20
TORSDOF 7
