REMARK  Name = ZINCkj000005lqPH.0
REMARK                            x       y       z     vdW  Elec       q    Type
REMARK                         _______ _______ _______ _____ _____    ______ ____
ROOT
ATOM      1  N   LIG    1       -2.169   1.941   3.664  0.00  0.00    -0.720 N 
ATOM      2  H   LIG    1       -2.221   2.815   3.245  0.00  0.00    +0.400 HD
ATOM      3  C   LIG    1       -2.404   1.811   4.984  0.00  0.00    +0.580 C 
ATOM      4  O   LIG    1       -2.430   0.706   5.492  0.00  0.00    -0.510 OA
ENDROOT
BRANCH   3   5
ATOM      5  C   LIG    1       -2.629   3.007   5.813  0.00  0.00    -0.150 A 
ATOM      6  C   LIG    1       -2.711   4.269   5.238  0.00  0.00    +0.120 A 
ATOM      7  C   LIG    1       -2.925   5.380   6.058  0.00  0.00    -0.040 A 
ATOM      8  C   LIG    1       -3.053   5.249   7.397  0.00  0.00    +0.350 A 
ATOM      9  N   LIG    1       -2.980   4.034   8.009  0.00  0.00    -0.290 N 
ATOM     10  N   LIG    1       -3.078   3.643   9.350  0.00  0.00    -0.300 NA
ATOM     11  C   LIG    1       -2.936   2.339   9.424  0.00  0.00    +0.290 A 
ATOM     12  C   LIG    1       -2.742   1.833   8.146  0.00  0.00    -0.080 A 
ATOM     13  C   LIG    1       -2.777   2.899   7.266  0.00  0.00    +0.120 A 
ENDBRANCH   3   5
BRANCH   1  16
ATOM     14  C   LIG    1       -0.684   1.478   1.223  0.00  0.00    +0.160 C 
ATOM     15  C   LIG    1       -0.344   0.670   2.488  0.00  0.00    +0.070 C 
ATOM     16  C   LIG    1       -1.836   0.763   2.860  0.00  0.00    +0.290 C 
ATOM     17  C   LIG    1       -2.108   0.939   1.365  0.00  0.00    -0.120 C 
ATOM     18  C   LIG    1       -2.602  -0.227   0.508  0.00  0.00    +0.050 C 
ATOM     19  C   LIG    1       -4.006   0.391   0.631  0.00  0.00    +0.040 C 
ATOM     20  C   LIG    1       -3.311   1.743   0.871  0.00  0.00    +0.050 C 
BRANCH  14  21
ATOM     21  N   LIG    1        0.007   1.004   0.017  0.00  0.00    -0.630 N 
ATOM     22  H   LIG    1       -0.477   1.339  -0.802  0.00  0.00    +0.440 HD
ATOM     23  H   LIG    1        0.954   1.352   0.014  0.00  0.00    +0.440 HD
ATOM     24  H   LIG    1        0.020  -0.005   0.011  0.00  0.00    +0.430 HD
ENDBRANCH  14  21
ENDBRANCH   1  16
TORSDOF 3
