REMARK  Name = ZINCvU00000007vE.0
REMARK                            x       y       z     vdW  Elec       q    Type
REMARK                         _______ _______ _______ _____ _____    ______ ____
ROOT
ATOM      1  O   LIG    1       -1.285  -1.282  -4.534  0.00  0.00    -0.500 OA
ATOM      2  C   LIG    1       -0.348  -1.247  -5.304  0.00  0.00    +0.540 C 
ATOM      3  N   LIG    1       -0.369  -1.997  -6.424  0.00  0.00    -0.670 N 
ATOM      4  H   LIG    1        0.414  -2.037  -6.995  0.00  0.00    +0.420 HD
ENDROOT
BRANCH   3   5
ATOM      5  C   LIG    1       -1.514  -2.715  -6.761  0.00  0.00    +0.180 A 
ATOM      6  C   LIG    1       -2.243  -3.366  -5.776  0.00  0.00    +0.050 A 
ATOM      7  C   LIG    1       -3.382  -4.072  -6.111  0.00  0.00    +0.070 A 
ATOM      8  C   LIG    1       -3.798  -4.147  -7.431  0.00  0.00    -0.050 A 
ATOM      9  C   LIG    1       -3.083  -3.511  -8.424  0.00  0.00    +0.080 A 
ATOM     10 CL   LIG    1       -5.228  -5.045  -7.836  0.00  0.00    -0.060 Cl
ATOM     11  C   LIG    1       -1.932  -2.788  -8.099  0.00  0.00    -0.160 A 
BRANCH  11  12
ATOM     12  C   LIG    1       -1.162  -2.106  -9.155  0.00  0.00    +0.440 C 
ATOM     13  O   LIG    1       -0.472  -2.753  -9.919  0.00  0.00    -0.430 OA
BRANCH  12  14
ATOM     14  C   LIG    1       -1.230  -0.635  -9.286  0.00  0.00    -0.170 A 
ATOM     15  C   LIG    1       -2.096   0.102  -8.477  0.00  0.00    +0.070 A 
ATOM     16  C   LIG    1       -2.150   1.475  -8.601  0.00  0.00    +0.000 A 
ATOM     17  C   LIG    1       -1.356   2.120  -9.532  0.00  0.00    +0.050 A 
ATOM     18  C   LIG    1       -0.499   1.395 -10.341  0.00  0.00    +0.000 A 
ATOM     19  C   LIG    1       -0.431   0.023 -10.224  0.00  0.00    +0.080 A 
ENDBRANCH  12  14
ENDBRANCH  11  12
ENDBRANCH   3   5
BRANCH   2  20
ATOM     20  C   LIG    1        0.837  -0.365  -5.010  0.00  0.00    +0.090 C 
BRANCH  20  21
ATOM     21  S   LIG    1        0.566   0.508  -3.447  0.00  0.00    +0.100 S 
BRANCH  21  22
ATOM     22  C   LIG    1        2.061   1.437  -3.353  0.00  0.00    +0.130 A 
ATOM     23  N   LIG    1        3.041   1.429  -4.226  0.00  0.00    -0.290 NA
ATOM     24  N   LIG    1        3.975   2.224  -3.840  0.00  0.00    -0.280 NA
ATOM     25  C   LIG    1        3.647   2.786  -2.711  0.00  0.00    +0.230 A 
ATOM     26  N   LIG    1        2.418   2.301  -2.357  0.00  0.00    -0.430 N 
BRANCH  25  27
ATOM     27  C   LIG    1        4.470   3.783  -1.938  0.00  0.00    +0.040 C 
ATOM     28  C   LIG    1        5.724   4.340  -2.614  0.00  0.00    +0.070 C 
ATOM     29  C   LIG    1        5.855   3.340  -1.464  0.00  0.00    +0.050 C 
ENDBRANCH  25  27
BRANCH  26  30
ATOM     30  C   LIG    1        1.643   2.642  -1.162  0.00  0.00    +0.200 C 
ATOM     31  C   LIG    1        0.189   3.074  -1.362  0.00  0.00    +0.060 C 
ATOM     32  C   LIG    1        0.504   1.701  -0.766  0.00  0.00    +0.070 C 
ENDBRANCH  26  30
ENDBRANCH  21  22
ENDBRANCH  20  21
ENDBRANCH   2  20
TORSDOF 8
