REMARK  Name = ZINCrg000000siGm.0
REMARK                            x       y       z     vdW  Elec       q    Type
REMARK                         _______ _______ _______ _____ _____    ______ ____
ROOT
ATOM      1  C   LIG    1       -2.073  -3.016   0.006  0.00  0.00    +0.060 C 
ATOM      2  N   LIG    1       -3.303  -2.622   0.025  0.00  0.00    -0.150 NA
ATOM      3  N   LIG    1       -4.232  -3.661   0.024  0.00  0.00    -0.450 N 
ATOM      4  C   LIG    1       -3.512  -4.944   0.009  0.00  0.00    +0.200 C 
ATOM      5  C   LIG    1       -2.028  -4.527  -0.003  0.00  0.00    +0.120 C 
ENDROOT
BRANCH   3   6
ATOM      6  C   LIG    1       -5.619  -3.509   0.038  0.00  0.00    +0.230 A 
ATOM      7  C   LIG    1       -6.442  -4.629   0.035  0.00  0.00    -0.060 A 
ATOM      8  C   LIG    1       -7.815  -4.475   0.054  0.00  0.00    +0.040 A 
ATOM      9  C   LIG    1       -8.370  -3.208   0.067  0.00  0.00    -0.040 A 
ATOM     10  C   LIG    1       -7.554  -2.092   0.064  0.00  0.00    +0.050 A 
ATOM     11  C   LIG    1       -6.181  -2.238   0.051  0.00  0.00    -0.020 A 
ENDBRANCH   3   6
BRANCH   4  12
ATOM     12  C   LIG    1       -3.852  -5.729  -1.231  0.00  0.00    +0.510 C 
ATOM     13  O   LIG    1       -4.412  -5.184  -2.159  0.00  0.00    -0.510 OA
ATOM     14  N   LIG    1       -3.535  -7.037  -1.308  0.00  0.00    -0.850 N 
ATOM     15  H   LIG    1       -3.754  -7.542  -2.107  0.00  0.00    +0.410 HD
ATOM     16  H   LIG    1       -3.087  -7.472  -0.566  0.00  0.00    +0.400 HD
ENDBRANCH   4  12
BRANCH   1  17
ATOM     17  C   LIG    1       -0.900  -2.133  -0.001  0.00  0.00    +0.570 C 
ATOM     18  O   LIG    1        0.224  -2.610  -0.014  0.00  0.00    -0.540 OA
BRANCH  17  26
ATOM     19  C   LIG    1        0.778   5.555   0.024  0.00  0.00    +0.130 C 
ATOM     20  C   LIG    1        0.517   4.071   0.019  0.00  0.00    +0.030 C 
ATOM     21  C   LIG    1        1.555   3.198   0.004  0.00  0.00    +0.000 C 
ATOM     22  C   LIG    1        1.290   1.806  -0.001  0.00  0.00    +0.360 C 
ATOM     23  N   LIG    1        2.086   0.760  -0.014  0.00  0.00    -0.420 NA
ATOM     24  N   LIG    1        1.293  -0.394  -0.012  0.00  0.00    -0.330 NA
ATOM     25  C   LIG    1        0.002  -0.004   0.002  0.00  0.00    +0.520 C 
ATOM     26  N   LIG    1       -1.062  -0.805   0.008  0.00  0.00    -0.650 NA
ATOM     27  H   LIG    1        3.056   0.784  -0.023  0.00  0.00    +0.470 HD
ATOM     28  N   LIG    1       -0.016   1.361   0.009  0.00  0.00    -0.400 N 
ATOM     29  C   LIG    1       -1.050   2.263   0.029  0.00  0.00    +0.340 C 
ATOM     30  C   LIG    1       -0.806   3.587   0.029  0.00  0.00    -0.010 C 
ENDBRANCH  17  26
ENDBRANCH   1  17
TORSDOF 4
