REMARK  Name = ZINCpk00000xI6rn.0
REMARK                            x       y       z     vdW  Elec       q    Type
REMARK                         _______ _______ _______ _____ _____    ______ ____
ROOT
ATOM      1  N   LIG    1        1.299  -0.399  -0.562  0.00  0.00    -0.520 NA
ATOM      2  C   LIG    1        0.021  -0.208   0.149  0.00  0.00    +0.180 C 
ATOM      3  C   LIG    1       -0.259   1.309   0.186  0.00  0.00    +0.010 C 
ATOM      4  C   LIG    1        1.150   1.929  -0.003  0.00  0.00    -0.020 C 
ATOM      5  C   LIG    1        1.805   0.925  -0.984  0.00  0.00    +0.200 C 
ENDROOT
BRANCH   1   6
ATOM      6  C   LIG    1        1.131  -1.291  -1.717  0.00  0.00    +0.220 C 
BRANCH   6   7
ATOM      7  C   LIG    1        2.435  -1.396  -2.464  0.00  0.00    +0.500 C 
ATOM      8  O   LIG    1        3.438  -0.878  -2.012  0.00  0.00    -0.550 OA
BRANCH   7  15
ATOM      9  N   LIG    1        3.848  -2.798  -5.470  0.00  0.00    -0.380 N 
ATOM     10  N   LIG    1        5.201  -2.643  -5.802  0.00  0.00    -0.490 N 
ATOM     11  H   LIG    1        5.636  -2.995  -6.595  0.00  0.00    +0.450 HD
ATOM     12  C   LIG    1        5.802  -1.916  -4.817  0.00  0.00    +0.350 A 
ATOM     13  C   LIG    1        4.881  -1.603  -3.880  0.00  0.00    -0.110 A 
ATOM     14  C   LIG    1        3.643  -2.148  -4.278  0.00  0.00    +0.480 A 
ATOM     15  N   LIG    1        2.489  -2.055  -3.617  0.00  0.00    -0.680 NA
BRANCH   9  16
ATOM     16  C   LIG    1        2.840  -3.519  -6.251  0.00  0.00    +0.350 C 
BRANCH  16  18
ATOM     17  C   LIG    1        1.123  -3.309  -8.053  0.00  0.00    +0.030 C 
ATOM     18  C   LIG    1        2.176  -2.556  -7.238  0.00  0.00    -0.000 C 
ENDBRANCH  16  18
ENDBRANCH   9  16
ENDBRANCH   7  15
ENDBRANCH   6   7
ENDBRANCH   1   6
BRANCH   4  19
ATOM     19  C   LIG    1        1.056   3.323  -0.628  0.00  0.00    +0.270 C 
BRANCH  19  20
ATOM     20  N   LIG    1        0.405   4.237   0.313  0.00  0.00    -0.720 N 
ATOM     21  H   LIG    1        0.113   3.914   1.180  0.00  0.00    +0.400 HD
BRANCH  20  22
ATOM     22  C   LIG    1        0.207   5.568  -0.035  0.00  0.00    +0.400 A 
ATOM     23  C   LIG    1        0.629   6.025  -1.280  0.00  0.00    -0.110 A 
ATOM     24  C   LIG    1        0.425   7.352  -1.613  0.00  0.00    +0.100 A 
ATOM     25  C   LIG    1       -0.196   8.180  -0.688  0.00  0.00    -0.110 A 
ATOM     26  C   LIG    1       -0.590   7.660   0.528  0.00  0.00    +0.300 A 
ATOM     27  N   LIG    1       -0.387   6.389   0.818  0.00  0.00    -0.550 NA
ENDBRANCH  20  22
ENDBRANCH  19  20
ENDBRANCH   4  19
TORSDOF 8
