REMARK  Name = ZINCvU00000003Ma.0
REMARK                            x       y       z     vdW  Elec       q    Type
REMARK                         _______ _______ _______ _____ _____    ______ ____
ROOT
ATOM      1  N   LIG    1       -3.526   2.620   3.233  0.00  0.00    -0.630 N 
ATOM      2  H   LIG    1       -4.325   2.581   2.684  0.00  0.00    +0.420 HD
ATOM      3  C   LIG    1       -3.610   3.021   4.517  0.00  0.00    +0.550 C 
ATOM      4  O   LIG    1       -2.608   3.069   5.205  0.00  0.00    -0.480 OA
ENDROOT
BRANCH   1   8
ATOM      5  C   LIG    1       -0.013   1.086   0.008  0.00  0.00    +0.160 C 
ATOM      6  C   LIG    1       -0.718   1.572   1.248  0.00  0.00    +0.130 A 
ATOM      7  C   LIG    1       -2.053   1.826   1.366  0.00  0.00    -0.230 A 
ATOM      8  C   LIG    1       -2.287   2.258   2.692  0.00  0.00    +0.320 A 
ATOM      9  N   LIG    1       -1.139   2.265   3.324  0.00  0.00    -0.270 NA
ATOM     10  N   LIG    1       -0.142   1.839   2.438  0.00  0.00    -0.460 N 
ATOM     11  H   LIG    1        0.802   1.750   2.644  0.00  0.00    +0.450 HD
BRANCH   7  12
ATOM     12  C   LIG    1       -3.073   1.675   0.299  0.00  0.00    -0.010 A 
ATOM     13  C   LIG    1       -3.025   2.486  -0.833  0.00  0.00    +0.050 A 
ATOM     14  C   LIG    1       -3.974   2.340  -1.825  0.00  0.00    -0.010 A 
ATOM     15  C   LIG    1       -4.978   1.394  -1.692  0.00  0.00    +0.100 A 
ATOM     16  C   LIG    1       -5.031   0.589  -0.566  0.00  0.00    -0.010 A 
ATOM     17  F   LIG    1       -5.907   1.258  -2.662  0.00  0.00    -0.140 F 
ATOM     18  C   LIG    1       -4.085   0.726   0.429  0.00  0.00    +0.040 A 
ENDBRANCH   7  12
ENDBRANCH   1   8
BRANCH   3  19
ATOM     19  C   LIG    1       -4.917   3.402   5.087  0.00  0.00    -0.130 A 
ATOM     20  C   LIG    1       -6.067   3.353   4.296  0.00  0.00    +0.070 A 
ATOM     21  C   LIG    1       -7.285   3.704   4.833  0.00  0.00    +0.020 A 
ATOM     22  C   LIG    1       -7.370   4.118   6.158  0.00  0.00    +0.160 A 
ATOM     23  C   LIG    1       -6.226   4.173   6.947  0.00  0.00    +0.020 A 
ATOM     24  C   LIG    1       -5.005   3.818   6.418  0.00  0.00    +0.120 A 
BRANCH  22  25
ATOM     25  N   LIG    1       -8.607   4.480   6.698  0.00  0.00    -0.450 N 
ATOM     26  C   LIG    1       -9.140   4.031   7.870  0.00  0.00    +0.490 A 
ATOM     27  N   LIG    1      -10.306   4.573   8.066  0.00  0.00    -0.480 NA
ATOM     28  C   LIG    1      -10.603   5.407   7.035  0.00  0.00    +0.050 A 
ATOM     29  C   LIG    1      -11.699   6.223   6.743  0.00  0.00    +0.070 A 
ATOM     30  C   LIG    1      -11.698   6.982   5.595  0.00  0.00    +0.010 A 
ATOM     31  C   LIG    1      -10.624   6.934   4.718  0.00  0.00    +0.030 A 
ATOM     32  C   LIG    1       -9.537   6.130   4.989  0.00  0.00    +0.010 A 
ATOM     33  C   LIG    1       -9.516   5.364   6.146  0.00  0.00    +0.050 A 
ENDBRANCH  22  25
ENDBRANCH   3  19
TORSDOF 4
