REMARK  Name = ZINCrD00000laOjr.0
REMARK                            x       y       z     vdW  Elec       q    Type
REMARK                         _______ _______ _______ _____ _____    ______ ____
ROOT
ATOM      1  O   LIG    1       -0.926   7.868  -5.415  0.00  0.00    -0.320 OA
ENDROOT
BRANCH   1   3
ATOM      2  C   LIG    1       -2.763   7.906  -7.013  0.00  0.00    +0.060 C 
ATOM      3  C   LIG    1       -1.683   8.728  -6.307  0.00  0.00    +0.180 C 
BRANCH   3   4
ATOM      4  C   LIG    1       -0.756   9.326  -7.334  0.00  0.00    +0.520 C 
ATOM      5  N   LIG    1       -1.219  10.240  -8.209  0.00  0.00    -0.730 N 
ATOM      6  H   LIG    1       -2.150  10.513  -8.178  0.00  0.00    +0.400 HD
ATOM      7  O   LIG    1        0.407   8.985  -7.372  0.00  0.00    -0.510 OA
BRANCH   5   8
ATOM      8  C   LIG    1       -0.318  10.821  -9.207  0.00  0.00    +0.240 C 
ATOM      9  C   LIG    1        0.453  11.991  -8.563  0.00  0.00    +0.020 C 
ATOM     10  C   LIG    1        1.697  12.245  -9.371  0.00  0.00    +0.000 C 
ATOM     11  C   LIG    1        1.493  13.343 -10.433  0.00  0.00    +0.000 C 
ATOM     12  C   LIG    1        0.137  13.232 -11.155  0.00  0.00    +0.000 C 
ATOM     13  C   LIG    1       -0.221  11.810 -11.492  0.00  0.00    +0.030 C 
ATOM     14  C   LIG    1       -1.101  11.243 -10.359  0.00  0.00    +0.010 C 
ENDBRANCH   5   8
ENDBRANCH   3   4
ENDBRANCH   1   3
BRANCH   1  15
ATOM     15  C   LIG    1       -1.375   7.752  -4.150  0.00  0.00    +0.550 C 
ATOM     16  O   LIG    1       -2.372   8.354  -3.801  0.00  0.00    -0.520 OA
BRANCH  15  17
ATOM     17  C   LIG    1       -0.658   6.896  -3.189  0.00  0.00    -0.280 A 
ATOM     18  C   LIG    1       -0.999   6.683  -1.867  0.00  0.00    +0.330 A 
ATOM     19  N   LIG    1       -0.090   5.842  -1.349  0.00  0.00    -0.350 N 
ATOM     20  N   LIG    1        0.839   5.522  -2.346  0.00  0.00    -0.290 NA
ATOM     21  C   LIG    1        0.508   6.140  -3.446  0.00  0.00    +0.300 A 
BRANCH  19  22
ATOM     22  C   LIG    1       -0.070   5.347   0.030  0.00  0.00    +0.380 C 
BRANCH  22  23
ATOM     23  C   LIG    1       -0.050   3.840   0.022  0.00  0.00    -0.120 A 
ATOM     24  C   LIG    1        1.156   3.165   0.008  0.00  0.00    +0.050 A 
ATOM     25  C   LIG    1        1.175   1.783   0.000  0.00  0.00    +0.010 A 
ATOM     26  C   LIG    1       -0.013   1.076   0.008  0.00  0.00    +0.010 A 
ATOM     27  C   LIG    1       -1.219   1.751   0.017  0.00  0.00    +0.010 A 
ATOM     28  C   LIG    1       -1.238   3.133   0.030  0.00  0.00    +0.020 A 
ENDBRANCH  22  23
ENDBRANCH  19  22
ENDBRANCH  15  17
ENDBRANCH   1  15
TORSDOF 7
