REMARK  Name = ZINCvU0000000Ivw.0
REMARK                            x       y       z     vdW  Elec       q    Type
REMARK                         _______ _______ _______ _____ _____    ______ ____
ROOT
ATOM      1  C   LIG    1        3.318  -4.459  -1.385  0.00  0.00    +0.010 C 
ATOM      2  C   LIG    1        2.035  -4.305  -2.204  0.00  0.00    +0.080 C 
ENDROOT
BRANCH   1   3
ATOM      3  C   LIG    1        4.432  -3.688  -2.046  0.00  0.00    -0.090 A 
ATOM      4  C   LIG    1        5.133  -2.736  -1.329  0.00  0.00    +0.020 A 
ATOM      5  C   LIG    1        6.157  -2.031  -1.934  0.00  0.00    +0.010 A 
ATOM      6  C   LIG    1        6.474  -2.272  -3.257  0.00  0.00    +0.010 A 
ATOM      7  C   LIG    1        5.769  -3.220  -3.975  0.00  0.00    +0.010 A 
ATOM      8  C   LIG    1        4.748  -3.928  -3.370  0.00  0.00    +0.030 A 
ENDBRANCH   1   3
BRANCH   1   9
ATOM      9  C   LIG    1        3.694  -5.917  -1.308  0.00  0.00    +0.460 C 
ATOM     10  O   LIG    1        3.771  -6.465  -0.235  0.00  0.00    -0.440 OA
BRANCH   9  11
ATOM     11  O   LIG    1        3.942  -6.606  -2.433  0.00  0.00    -0.290 OA
BRANCH  11  15
ATOM     12  C   LIG    1        5.260 -10.494  -1.998  0.00  0.00    +0.150 A 
ATOM     13  C   LIG    1        3.922 -10.186  -1.787  0.00  0.00    +0.040 A 
ATOM     14  C   LIG    1        3.482  -8.885  -1.932  0.00  0.00    +0.040 A 
ATOM     15  C   LIG    1        4.376  -7.886  -2.290  0.00  0.00    +0.070 A 
ATOM     16  C   LIG    1        5.711  -8.195  -2.507  0.00  0.00    +0.040 A 
ATOM     17  C   LIG    1        6.154  -9.494  -2.356  0.00  0.00    +0.010 A 
BRANCH  12  20
ATOM     18  C   LIG    1        5.327 -14.257  -1.906  0.00  0.00    +0.110 C 
ATOM     19  C   LIG    1        4.898 -12.839  -2.182  0.00  0.00    +0.510 C 
ATOM     20  N   LIG    1        5.706 -11.813  -1.851  0.00  0.00    -0.680 N 
ATOM     21  H   LIG    1        6.597 -11.989  -1.511  0.00  0.00    +0.410 HD
ATOM     22  O   LIG    1        3.824 -12.622  -2.703  0.00  0.00    -0.520 OA
ENDBRANCH  12  20
ENDBRANCH  11  15
ENDBRANCH   9  11
ENDBRANCH   1   9
BRANCH   1  23
ATOM     23  C   LIG    1        3.090  -3.917   0.027  0.00  0.00    +0.190 C 
BRANCH  23  24
ATOM     24  C   LIG    1        1.879  -4.580   0.631  0.00  0.00    +0.080 A 
ATOM     25  N   LIG    1        1.914  -5.666   1.306  0.00  0.00    -0.420 NA
ATOM     26  C   LIG    1        0.752  -6.146   1.787  0.00  0.00    +0.080 A 
ATOM     27  C   LIG    1        0.503  -7.304   2.551  0.00  0.00    +0.070 A 
ATOM     28  C   LIG    1       -0.764  -7.614   2.941  0.00  0.00    +0.030 A 
ATOM     29  C   LIG    1       -1.833  -6.799   2.595  0.00  0.00    +0.040 A 
ATOM     30  C   LIG    1       -1.620  -5.661   1.850  0.00  0.00    +0.060 A 
ATOM     31  C   LIG    1       -0.331  -5.329   1.442  0.00  0.00    -0.180 A 
ATOM     32  S   LIG    1        0.288  -3.977   0.498  0.00  0.00    +0.090 S 
ENDBRANCH  23  24
ENDBRANCH   1  23
TORSDOF 7
