REMARK  Name = ZINCpe00000VVGg8.0
REMARK                            x       y       z     vdW  Elec       q    Type
REMARK                         _______ _______ _______ _____ _____    ______ ____
ROOT
ATOM      1  C   LIG    1       -0.171   5.421   0.033  0.00  0.00    +0.340 C 
ATOM      2  N   LIG    1       -0.091   3.958   0.024  0.00  0.00    -0.510 N 
ATOM      3  C   LIG    1       -1.220   3.224   0.031  0.00  0.00    +0.710 A 
ATOM      4  N   LIG    1       -1.188   1.880   0.018  0.00  0.00    -0.650 N 
ATOM      5  H   LIG    1       -2.020   1.383   0.019  0.00  0.00    +0.440 HD
ATOM      6  C   LIG    1       -0.014   1.214   0.009  0.00  0.00    +0.600 A 
ATOM      7  C   LIG    1        1.193   1.944   0.001  0.00  0.00    -0.150 A 
ATOM      8  N   LIG    1        2.531   1.605  -0.013  0.00  0.00    -0.410 N 
ATOM      9  C   LIG    1        3.086   0.249  -0.025  0.00  0.00    +0.350 C 
ATOM     10  C   LIG    1        3.230   2.757  -0.013  0.00  0.00    +0.290 A 
ATOM     11  N   LIG    1        2.405   3.773  -0.000  0.00  0.00    -0.470 NA
ATOM     12  O   LIG    1        0.002  -0.004   0.002  0.00  0.00    -0.510 OA
ATOM     13  O   LIG    1       -2.296   3.791   0.044  0.00  0.00    -0.530 OA
ATOM     14  C   LIG    1        1.145   3.333   0.009  0.00  0.00    +0.320 A 
ENDROOT
BRANCH  10  15
ATOM     15  C   LIG    1        4.733   2.859  -0.027  0.00  0.00    +0.320 C 
BRANCH  15  16
ATOM     16  N   LIG    1        5.235   2.886   1.354  0.00  0.00    -0.660 NA
ATOM     17  H   LIG    1        4.918   2.078   1.869  0.00  0.00    +0.350 HD
BRANCH  16  18
ATOM     18  C   LIG    1        6.700   2.986   1.380  0.00  0.00    +0.230 C 
ATOM     19  C   LIG    1        7.170   3.624   2.705  0.00  0.00    +0.070 C 
ATOM     20  C   LIG    1        7.417   2.389   3.598  0.00  0.00    +0.080 C 
ATOM     21  C   LIG    1        7.733   1.263   2.638  0.00  0.00    -0.050 A 
ATOM     22  C   LIG    1        8.333   0.036   2.862  0.00  0.00    -0.010 A 
ATOM     23  C   LIG    1        8.522  -0.848   1.814  0.00  0.00    +0.110 A 
ATOM     24  C   LIG    1        8.110  -0.504   0.538  0.00  0.00    -0.020 A 
ATOM     25  C   LIG    1        7.510   0.720   0.315  0.00  0.00    +0.060 A 
ATOM     26  F   LIG    1        9.109  -2.045   2.035  0.00  0.00    -0.140 F 
ATOM     27  C   LIG    1        7.321   1.605   1.363  0.00  0.00    -0.150 A 
ENDBRANCH  16  18
ENDBRANCH  15  16
ENDBRANCH  10  15
TORSDOF 3
