REMARK  Name = ZINCqH0000033mTp.0
REMARK                            x       y       z     vdW  Elec       q    Type
REMARK                         _______ _______ _______ _____ _____    ______ ____
ROOT
ATOM      1  N   LIG    1       -3.566   2.048  -0.173  0.00  0.00    -0.620 N 
ATOM      2  C   LIG    1       -2.397   1.384  -0.081  0.00  0.00    +0.710 C 
ATOM      3  N   LIG    1       -1.240   2.069   0.019  0.00  0.00    -0.680 N 
ATOM      4  H   LIG    1       -1.253   3.034   0.107  0.00  0.00    +0.410 HD
ATOM      5  O   LIG    1       -2.385   0.169  -0.088  0.00  0.00    -0.550 OA
ATOM      6  C   LIG    1       -3.580   3.513  -0.165  0.00  0.00    +0.290 C 
ENDROOT
BRANCH   3   7
ATOM      7  C   LIG    1       -0.016   1.384  -0.004  0.00  0.00    +0.130 A 
ATOM      8  C   LIG    1        0.075   0.144  -0.619  0.00  0.00    +0.090 A 
ATOM      9  C   LIG    1        1.283  -0.526  -0.646  0.00  0.00    +0.010 A 
ATOM     10  C   LIG    1        2.403   0.037  -0.059  0.00  0.00    +0.110 A 
ATOM     11  C   LIG    1        2.315   1.275   0.557  0.00  0.00    -0.020 A 
ATOM     12  F   LIG    1        3.582  -0.620  -0.087  0.00  0.00    -0.130 F 
ATOM     13  C   LIG    1        1.109   1.950   0.586  0.00  0.00    +0.090 A 
ATOM     14  F   LIG    1        1.024   3.157   1.187  0.00  0.00    -0.130 F 
ENDBRANCH   3   7
BRANCH   1  15
ATOM     15  C   LIG    1       -4.824   1.304  -0.282  0.00  0.00    +0.340 C 
BRANCH  15  18
ATOM     16  N   LIG    1       -7.243   0.075   2.362  0.00  0.00    -0.480 N 
ATOM     17  C   LIG    1       -6.698   0.257   1.012  0.00  0.00    +0.220 C 
ATOM     18  C   LIG    1       -5.380   1.036   1.118  0.00  0.00    +0.100 C 
ATOM     19  O   LIG    1       -4.455   0.236   1.862  0.00  0.00    -0.280 OA
ATOM     20  C   LIG    1       -4.928  -0.350   2.996  0.00  0.00    +0.090 A 
ATOM     21  C   LIG    1       -4.020  -0.868   3.908  0.00  0.00    +0.000 A 
ATOM     22  C   LIG    1       -4.468  -1.474   5.067  0.00  0.00    +0.040 A 
ATOM     23  C   LIG    1       -5.823  -1.566   5.320  0.00  0.00    -0.020 A 
ATOM     24  C   LIG    1       -6.734  -1.052   4.418  0.00  0.00    +0.050 A 
ATOM     25  C   LIG    1       -6.292  -0.438   3.250  0.00  0.00    +0.020 A 
BRANCH  16  27
ATOM     26  C   LIG    1       -8.147   1.170   4.358  0.00  0.00    +0.040 C 
ATOM     27  C   LIG    1       -7.817   1.327   2.872  0.00  0.00    +0.180 C 
ENDBRANCH  16  27
ENDBRANCH  15  18
ENDBRANCH   1  15
TORSDOF 4
