REMARK  Name = ZINCtV00000L6kfC.0
REMARK                            x       y       z     vdW  Elec       q    Type
REMARK                         _______ _______ _______ _____ _____    ______ ____
ROOT
ATOM      1  C   LIG    1        2.474   1.060  -0.031  0.00  0.00    +0.220 A 
ATOM      2  N   LIG    1        2.616  -0.027   0.701  0.00  0.00    -0.460 NA
ATOM      3  C   LIG    1        3.767  -0.705   0.740  0.00  0.00    +0.140 A 
ATOM      4  C   LIG    1        3.894  -1.862   1.529  0.00  0.00    +0.050 A 
ATOM      5  C   LIG    1        5.076  -2.537   1.554  0.00  0.00    +0.040 A 
ATOM      6  C   LIG    1        6.168  -2.100   0.808  0.00  0.00    +0.020 A 
ATOM      7  C   LIG    1        6.082  -0.983   0.032  0.00  0.00    +0.040 A 
ATOM      8  C   LIG    1        4.881  -0.264  -0.017  0.00  0.00    -0.090 A 
ATOM      9  C   LIG    1        4.756   0.903  -0.813  0.00  0.00    +0.040 A 
ATOM     10  C   LIG    1        3.529   1.562  -0.817  0.00  0.00    +0.090 A 
ENDROOT
BRANCH   1  15
ATOM     11  C   LIG    1       -2.587   3.806  -0.036  0.00  0.00    +0.090 C 
ATOM     12  C   LIG    1       -1.262   3.087  -0.035  0.00  0.00    -0.070 A 
ATOM     13  C   LIG    1       -0.088   3.807   0.093  0.00  0.00    +0.010 A 
ATOM     14  C   LIG    1        1.128   3.155   0.089  0.00  0.00    +0.030 A 
ATOM     15  C   LIG    1        1.171   1.767  -0.032  0.00  0.00    -0.060 A 
ATOM     16  C   LIG    1       -0.016   1.046  -0.155  0.00  0.00    +0.060 A 
ATOM     17  C   LIG    1       -1.226   1.710  -0.156  0.00  0.00    +0.010 A 
ENDBRANCH   1  15
BRANCH   9  18
ATOM     18  C   LIG    1        5.892   1.401  -1.621  0.00  0.00    -0.060 A 
ATOM     19  C   LIG    1        6.469   2.638  -1.329  0.00  0.00    +0.030 A 
ATOM     20  C   LIG    1        7.532   3.094  -2.082  0.00  0.00    +0.020 A 
ATOM     21  C   LIG    1        8.017   2.334  -3.131  0.00  0.00    +0.020 A 
ATOM     22  C   LIG    1        7.445   1.109  -3.429  0.00  0.00    +0.010 A 
ATOM     23  C   LIG    1        6.386   0.640  -2.680  0.00  0.00    +0.020 A 
ENDBRANCH   9  18
BRANCH  10  24
ATOM     24  N   LIG    1        3.349   2.711  -1.587  0.00  0.00    -0.550 N 
ATOM     25  C   LIG    1        2.760   2.629  -2.905  0.00  0.00    +0.280 C 
ATOM     26  C   LIG    1        2.654   4.009  -3.566  0.00  0.00    +0.140 C 
ATOM     27  S   LIG    1        3.362   5.143  -2.330  0.00  0.00    -0.150 S 
ATOM     28  C   LIG    1        3.721   3.901  -1.125  0.00  0.00    +0.550 C 
ATOM     29  O   LIG    1        4.231   4.104  -0.040  0.00  0.00    -0.470 OA
ENDBRANCH  10  24
TORSDOF 3
