REMARK  Name = ZINCrg000000nQKr.0
REMARK                            x       y       z     vdW  Elec       q    Type
REMARK                         _______ _______ _______ _____ _____    ______ ____
ROOT
ATOM      1  C   LIG    1        1.154   3.171   0.008  0.00  0.00    +0.220 A 
ATOM      2  C   LIG    1       -0.060   3.845   0.023  0.00  0.00    -0.010 A 
ATOM      3  C   LIG    1       -1.243   3.133   0.031  0.00  0.00    +0.200 A 
ATOM      4  C   LIG    1       -1.220   1.750   0.017  0.00  0.00    -0.690 A 
ATOM      5  C   LIG    1       -0.013   1.076   0.008  0.00  0.00    +0.220 A 
ATOM      6  C   LIG    1        1.174   1.782   0.000  0.00  0.00    -0.040 A 
ENDROOT
BRANCH   4   7
ATOM      7  S   LIG    1       -2.732   0.846   0.019  0.00  0.00    +2.690 S 
ATOM      8  O   LIG    1       -2.437  -0.430  -0.534  0.00  0.00    -0.940 OA
ATOM      9  O   LIG    1       -3.720   1.715  -0.516  0.00  0.00    -0.940 OA
BRANCH   7  10
ATOM     10  N   LIG    1       -3.146   0.585   1.601  0.00  0.00    -1.000 NA
ATOM     11  C   LIG    1       -2.692  -0.620   2.314  0.00  0.00    +0.270 C 
ATOM     12  C   LIG    1       -2.057  -0.180   3.643  0.00  0.00    +0.210 C 
ATOM     13  O   LIG    1       -2.974   0.664   4.344  0.00  0.00    -0.370 OA
ATOM     14  C   LIG    1       -3.289   1.880   3.661  0.00  0.00    +0.210 C 
ATOM     15  C   LIG    1       -3.982   1.548   2.334  0.00  0.00    +0.270 C 
ENDBRANCH   7  10
ENDBRANCH   4   7
BRANCH   6  16
ATOM     16  N   LIG    1        2.466   1.059  -0.015  0.00  0.00    +0.030 N 
ATOM     17  O   LIG    1        3.512   1.683  -0.022  0.00  0.00    -0.090 OA
ATOM     18  O   LIG    1        2.482  -0.159  -0.022  0.00  0.00    -0.190 OA
ENDBRANCH   6  16
BRANCH   1  19
ATOM     19  N   LIG    1        2.353   3.888   0.001  0.00  0.00    -0.500 N 
BRANCH  19  21
ATOM     20  C   LIG    1        2.757   3.720   2.410  0.00  0.00    +0.040 C 
ATOM     21  C   LIG    1        2.507   4.668   1.236  0.00  0.00    +0.200 C 
ENDBRANCH  19  21
BRANCH  19  22
ATOM     22  C   LIG    1        2.442   4.753  -1.183  0.00  0.00    +0.220 C 
BRANCH  22  23
ATOM     23  C   LIG    1        3.856   5.328  -1.290  0.00  0.00    +0.130 C 
BRANCH  23  24
ATOM     24  C   LIG    1        3.947   6.215  -2.504  0.00  0.00    +0.460 C 
ATOM     25  O   LIG    1        2.980   6.372  -3.212  0.00  0.00    -0.510 OA
BRANCH  24  26
ATOM     26  O   LIG    1        5.102   6.832  -2.800  0.00  0.00    -0.360 OA
ATOM     27  C   LIG    1        5.117   7.671  -3.984  0.00  0.00    +0.260 C 
ENDBRANCH  24  26
ENDBRANCH  23  24
ENDBRANCH  22  23
ENDBRANCH  19  22
ENDBRANCH   1  19
TORSDOF 9
