REMARK  Name = ZINCqH0000004Jub.0
REMARK                            x       y       z     vdW  Elec       q    Type
REMARK                         _______ _______ _______ _____ _____    ______ ____
ROOT
ATOM      1  N   LIG    1       -3.430  -2.500  -0.307  0.00  0.00    -0.520 NA
ATOM      2  C   LIG    1       -2.737  -2.809  -1.565  0.00  0.00    +0.190 C 
ATOM      3  C   LIG    1       -2.391  -4.300  -1.602  0.00  0.00    +0.210 C 
ATOM      4  N   LIG    1       -3.624  -5.089  -1.476  0.00  0.00    -0.480 N 
ATOM      5  C   LIG    1       -4.317  -4.780  -0.217  0.00  0.00    +0.210 C 
ATOM      6  C   LIG    1       -4.663  -3.290  -0.181  0.00  0.00    +0.200 C 
ENDROOT
BRANCH   4   7
ATOM      7  C   LIG    1       -3.357  -6.451  -1.577  0.00  0.00    +0.310 A 
ATOM      8  N   LIG    1       -2.680  -7.059  -0.616  0.00  0.00    -0.480 NA
ATOM      9  C   LIG    1       -2.409  -8.350  -0.669  0.00  0.00    +0.300 A 
ATOM     10  C   LIG    1       -2.818  -9.115  -1.744  0.00  0.00    -0.080 A 
ATOM     11  C   LIG    1       -3.526  -8.514  -2.777  0.00  0.00    +0.100 A 
ATOM     12 CL   LIG    1       -2.449 -10.810  -1.804  0.00  0.00    -0.040 Cl
ATOM     13  C   LIG    1       -3.799  -7.160  -2.690  0.00  0.00    -0.050 A 
ATOM     14 CL   LIG    1       -4.682  -6.357  -3.951  0.00  0.00    -0.020 Cl
ENDBRANCH   4   7
BRANCH   1  15
ATOM     15  C   LIG    1       -3.712  -1.062  -0.201  0.00  0.00    +0.220 C 
BRANCH  15  18
ATOM     16  N   LIG    1       -2.429   1.040   0.022  0.00  0.00    -0.670 N 
ATOM     17  H   LIG    1       -3.273   1.513   0.093  0.00  0.00    +0.410 HD
ATOM     18  C   LIG    1       -2.416  -0.303  -0.087  0.00  0.00    +0.510 C 
ATOM     19  O   LIG    1       -1.360  -0.901  -0.095  0.00  0.00    -0.500 OA
BRANCH  16  25
ATOM     20  C   LIG    1       -1.156   3.011  -0.551  0.00  0.00    -0.110 A 
ATOM     21  C   LIG    1        0.035   3.710  -0.543  0.00  0.00    +0.020 A 
ATOM     22  C   LIG    1        1.158   3.160   0.049  0.00  0.00    -0.010 A 
ATOM     23  C   LIG    1        1.091   1.910   0.635  0.00  0.00    +0.010 A 
ATOM     24  C   LIG    1       -0.097   1.206   0.631  0.00  0.00    +0.020 A 
ATOM     25  C   LIG    1       -1.225   1.753   0.033  0.00  0.00    +0.150 A 
BRANCH  20  27
ATOM     26  C   LIG    1       -3.222   4.317  -0.133  0.00  0.00    +0.020 C 
ATOM     27  C   LIG    1       -2.378   3.612  -1.196  0.00  0.00    +0.060 C 
ENDBRANCH  20  27
ENDBRANCH  16  25
ENDBRANCH  15  18
ENDBRANCH   1  15
TORSDOF 5
