REMARK  Name = ZINCqH0000005EtQ.0
REMARK                            x       y       z     vdW  Elec       q    Type
REMARK                         _______ _______ _______ _____ _____    ______ ____
ROOT
ATOM      1  C   LIG    1        2.422   1.186  -0.015  0.00  0.00    +0.340 C 
ENDROOT
BRANCH   1   2
ATOM      2  C   LIG    1        3.483   2.068  -0.621  0.00  0.00    -0.100 A 
ATOM      3  C   LIG    1        3.511   3.418  -0.325  0.00  0.00    +0.050 A 
ATOM      4  C   LIG    1        4.488   4.226  -0.877  0.00  0.00    +0.030 A 
ATOM      5  C   LIG    1        5.430   3.686  -1.733  0.00  0.00    +0.080 A 
ATOM      6  C   LIG    1        5.398   2.336  -2.032  0.00  0.00    -0.180 A 
ATOM      7  C   LIG    1        4.425   1.528  -1.476  0.00  0.00    +0.110 A 
BRANCH   6   8
ATOM      8  C   LIG    1        6.425   1.748  -2.965  0.00  0.00    +0.510 C 
ATOM      9  F   LIG    1        6.659   0.412  -2.619  0.00  0.00    -0.170 F 
ATOM     10  F   LIG    1        7.617   2.472  -2.863  0.00  0.00    -0.170 F 
ATOM     11  F   LIG    1        5.951   1.812  -4.280  0.00  0.00    -0.170 F 
ENDBRANCH   6   8
ENDBRANCH   1   2
BRANCH   1  12
ATOM     12  N   LIG    1        1.143   1.901   0.001  0.00  0.00    -0.710 N 
ATOM     13  H   LIG    1        1.130   2.871   0.007  0.00  0.00    +0.410 HD
ATOM     14  C   LIG    1       -0.014   1.212   0.009  0.00  0.00    +0.570 C 
ATOM     15  O   LIG    1        0.002  -0.004   0.002  0.00  0.00    -0.520 OA
BRANCH  14  16
ATOM     16  C   LIG    1       -1.304   1.933   0.019  0.00  0.00    -0.140 A 
ATOM     17  C   LIG    1       -1.325   3.329   0.032  0.00  0.00    +0.070 A 
ATOM     18  C   LIG    1       -2.531   3.997   0.037  0.00  0.00    -0.010 A 
ATOM     19  C   LIG    1       -3.721   3.285   0.038  0.00  0.00    +0.130 A 
ATOM     20  C   LIG    1       -3.705   1.898   0.030  0.00  0.00    -0.120 A 
ATOM     21  C   LIG    1       -5.002   1.131   0.032  0.00  0.00    +0.110 C 
ATOM     22  F   LIG    1       -4.900   3.944   0.048  0.00  0.00    -0.130 F 
ATOM     23  C   LIG    1       -2.505   1.220   0.021  0.00  0.00    +0.120 A 
ENDBRANCH  14  16
ENDBRANCH   1  12
BRANCH   1  24
ATOM     24  C   LIG    1        2.813   0.825   1.395  0.00  0.00    +0.450 C 
ATOM     25  O   LIG    1        2.098   1.134   2.318  0.00  0.00    -0.490 OA
BRANCH  24  27
ATOM     26  C   LIG    1        4.270  -0.153   3.007  0.00  0.00    +0.280 C 
ATOM     27  O   LIG    1        3.957   0.161   1.625  0.00  0.00    -0.350 OA
ENDBRANCH  24  27
ENDBRANCH   1  24
TORSDOF 6
