REMARK  Name = ZINCrD00000F5LFn.0
REMARK                            x       y       z     vdW  Elec       q    Type
REMARK                         _______ _______ _______ _____ _____    ______ ____
ROOT
ATOM      1  C   LIG    1        9.950   0.589   4.988  0.00  0.00    +0.550 C 
ATOM      2  N   LIG    1        9.123  -0.364   4.513  0.00  0.00    -0.610 N 
ATOM      3  C   LIG    1        9.583  -1.752   4.373  0.00  0.00    +0.280 C 
ATOM      4  C   LIG    1        8.604  -2.672   5.110  0.00  0.00    +0.030 C 
ATOM      5  C   LIG    1        7.186  -2.423   4.591  0.00  0.00    -0.070 C 
ATOM      6  C   LIG    1        6.787  -0.972   4.866  0.00  0.00    +0.030 C 
ATOM      7  C   LIG    1        6.211  -3.365   5.301  0.00  0.00    +0.030 C 
ATOM      8  C   LIG    1        4.788  -3.098   4.804  0.00  0.00    +0.010 C 
ATOM      9  C   LIG    1        4.716  -3.369   3.303  0.00  0.00    +0.270 C 
ATOM     10  N   LIG    1        5.751  -2.576   2.624  0.00  0.00    -0.600 N 
ATOM     11  C   LIG    1        5.429  -1.758   1.603  0.00  0.00    +0.550 C 
ATOM     12  O   LIG    1        6.291  -1.105   1.053  0.00  0.00    -0.530 OA
ATOM     13  C   LIG    1        7.142  -2.688   3.084  0.00  0.00    +0.290 C 
ATOM     14  C   LIG    1        7.745  -0.033   4.126  0.00  0.00    +0.270 C 
ATOM     15  O   LIG    1       11.056   0.286   5.395  0.00  0.00    -0.550 OA
ENDROOT
BRANCH  11  16
ATOM     16  C   LIG    1        3.997  -1.655   1.143  0.00  0.00    -0.050 C 
ATOM     17  C   LIG    1        3.655  -2.223  -0.236  0.00  0.00    +0.080 C 
ATOM     18  C   LIG    1        3.696  -0.709  -0.022  0.00  0.00    +0.050 C 
BRANCH  18  19
ATOM     19  C   LIG    1        2.381   0.026   0.001  0.00  0.00    -0.090 A 
ATOM     20  C   LIG    1        1.194  -0.681   0.012  0.00  0.00    +0.040 A 
ATOM     21  C   LIG    1       -0.013  -0.006   0.033  0.00  0.00    +0.000 A 
ATOM     22  C   LIG    1       -0.034   1.375   0.044  0.00  0.00    +0.040 A 
ATOM     23  C   LIG    1        1.152   2.085   0.034  0.00  0.00    -0.010 A 
ATOM     24  C   LIG    1        2.361   1.411   0.013  0.00  0.00    +0.110 A 
ATOM     25  F   LIG    1        3.521   2.104   0.003  0.00  0.00    -0.130 F 
ENDBRANCH  18  19
ENDBRANCH  11  16
BRANCH   1  27
ATOM     26  C   LIG    1       10.365   2.946   5.390  0.00  0.00    +0.140 C 
ATOM     27  C   LIG    1        9.516   1.994   5.015  0.00  0.00    -0.090 C 
ENDBRANCH   1  27
TORSDOF 3
