REMARK  Name = ZINCtV000002PpHn.0
REMARK                            x       y       z     vdW  Elec       q    Type
REMARK                         _______ _______ _______ _____ _____    ______ ____
ROOT
ATOM      1  O   LIG    1       -1.689   3.894  -0.034  0.00  0.00    -0.310 OA
ENDROOT
BRANCH   1   5
ATOM      2  C   LIG    1        2.098   2.317   0.425  0.00  0.00    -0.200 A 
ATOM      3  C   LIG    1        0.987   1.469   0.371  0.00  0.00    +0.100 A 
ATOM      4  C   LIG    1       -0.273   1.999   0.212  0.00  0.00    -0.080 A 
ATOM      5  C   LIG    1       -0.444   3.376   0.117  0.00  0.00    +0.160 A 
ATOM      6  C   LIG    1        0.657   4.223   0.172  0.00  0.00    -0.020 A 
ATOM      7  C   LIG    1        1.922   3.701   0.324  0.00  0.00    +0.120 A 
BRANCH   2   9
ATOM      8  O   LIG    1        4.402   2.291   0.055  0.00  0.00    -0.450 OA
ATOM      9  C   LIG    1        3.451   1.754   0.590  0.00  0.00    +0.440 C 
BRANCH   9  10
ATOM     10  C   LIG    1        3.651   0.537   1.404  0.00  0.00    -0.160 A 
ATOM     11  C   LIG    1        2.595   0.013   2.152  0.00  0.00    +0.060 A 
ATOM     12  C   LIG    1        2.788  -1.126   2.907  0.00  0.00    +0.000 A 
ATOM     13  C   LIG    1        4.026  -1.742   2.932  0.00  0.00    +0.040 A 
ATOM     14  C   LIG    1        5.079  -1.225   2.196  0.00  0.00    +0.000 A 
ATOM     15  C   LIG    1        4.899  -0.090   1.434  0.00  0.00    +0.070 A 
ENDBRANCH   9  10
ENDBRANCH   2   9
ENDBRANCH   1   5
BRANCH   1  16
ATOM     16  C   LIG    1       -2.776   2.967  -0.082  0.00  0.00    +0.260 C 
BRANCH  16  17
ATOM     17  C   LIG    1       -4.070   3.720  -0.253  0.00  0.00    -0.100 A 
ATOM     18  C   LIG    1       -4.062   5.099  -0.336  0.00  0.00    +0.050 A 
ATOM     19  C   LIG    1       -5.250   5.790  -0.493  0.00  0.00    +0.020 A 
ATOM     20  C   LIG    1       -6.448   5.104  -0.568  0.00  0.00    +0.030 A 
ATOM     21  C   LIG    1       -6.461   3.724  -0.485  0.00  0.00    +0.020 A 
ATOM     22  C   LIG    1       -5.271   3.028  -0.332  0.00  0.00    +0.090 A 
BRANCH  22  23
ATOM     23  O   LIG    1       -5.281   1.672  -0.256  0.00  0.00    -0.260 OA
BRANCH  23  24
ATOM     24  C   LIG    1       -5.313   1.102   0.977  0.00  0.00    +0.120 A 
ATOM     25  C   LIG    1       -5.438   1.898   2.107  0.00  0.00    -0.060 A 
ATOM     26  C   LIG    1       -5.477   1.316   3.359  0.00  0.00    +0.050 A 
ATOM     27  C   LIG    1       -5.378  -0.057   3.488  0.00  0.00    -0.020 A 
ATOM     28  C   LIG    1       -5.247  -0.852   2.364  0.00  0.00    +0.050 A 
ATOM     29  C   LIG    1       -5.214  -0.276   1.109  0.00  0.00    -0.020 A 
ENDBRANCH  23  24
ENDBRANCH  22  23
ENDBRANCH  16  17
ENDBRANCH   1  16
TORSDOF 7
