REMARK  Name = ZINCrH000004oQrT.0
REMARK                            x       y       z     vdW  Elec       q    Type
REMARK                         _______ _______ _______ _____ _____    ______ ____
ROOT
ATOM      1  C   LIG    1       -4.050   0.018   1.649  0.00  0.00    +0.510 C 
ATOM      2  N   LIG    1       -2.916   0.702   1.401  0.00  0.00    -0.730 N 
ATOM      3  H   LIG    1       -2.366   1.013   2.137  0.00  0.00    +0.400 HD
ATOM      4  O   LIG    1       -4.738  -0.371   0.728  0.00  0.00    -0.540 OA
ENDROOT
BRANCH   1   5
ATOM      5  C   LIG    1       -4.465  -0.264   3.070  0.00  0.00    +0.060 C 
BRANCH   5   6
ATOM      6  C   LIG    1       -5.778  -1.050   3.072  0.00  0.00    +0.170 C 
BRANCH   6  10
ATOM      7  C   LIG    1       -6.397  -2.332   6.434  0.00  0.00    +0.020 A 
ATOM      8  C   LIG    1       -7.101  -1.188   6.509  0.00  0.00    -0.050 A 
ATOM      9  C   LIG    1       -6.968  -0.543   5.258  0.00  0.00    -0.050 A 
ATOM     10  C   LIG    1       -6.192  -1.332   4.493  0.00  0.00    -0.010 A 
ATOM     11  O   LIG    1       -5.854  -2.417   5.209  0.00  0.00    -0.170 OA
BRANCH   7  15
ATOM     12  C   LIG    1       -7.369  -5.541   8.423  0.00  0.00    +0.070 C 
ATOM     13  C   LIG    1       -6.747  -4.769   7.258  0.00  0.00    -0.030 C 
ATOM     14  C   LIG    1       -5.245  -4.483   7.321  0.00  0.00    +0.030 C 
ATOM     15  C   LIG    1       -6.250  -3.349   7.536  0.00  0.00    +0.050 C 
ENDBRANCH   7  15
ENDBRANCH   6  10
ENDBRANCH   5   6
ENDBRANCH   1   5
BRANCH   2  16
ATOM     16  C   LIG    1       -2.513   0.977   0.019  0.00  0.00    +0.320 C 
BRANCH  16  17
ATOM     17  C   LIG    1       -1.220   1.750   0.017  0.00  0.00    -0.140 A 
ATOM     18  C   LIG    1       -0.013   1.076  -0.009  0.00  0.00    +0.060 A 
ATOM     19  C   LIG    1        1.174   1.782  -0.016  0.00  0.00    -0.030 A 
ATOM     20  C   LIG    1        1.155   3.170   0.008  0.00  0.00    +0.170 A 
ATOM     21  C   LIG    1       -0.059   3.844   0.039  0.00  0.00    +0.000 A 
ATOM     22  C   LIG    1       -1.243   3.132   0.046  0.00  0.00    +0.060 A 
BRANCH  20  23
ATOM     23  N   LIG    1        2.356   3.889  -0.001  0.00  0.00    -0.560 N 
ATOM     24  C   LIG    1        3.687   3.277   0.089  0.00  0.00    +0.260 C 
ATOM     25  C   LIG    1        4.643   4.426   0.479  0.00  0.00    +0.060 C 
ATOM     26  C   LIG    1        3.886   5.662  -0.061  0.00  0.00    +0.070 C 
ATOM     27  C   LIG    1        2.438   5.227  -0.097  0.00  0.00    +0.520 C 
ATOM     28  O   LIG    1        1.490   5.976  -0.196  0.00  0.00    -0.510 OA
ENDBRANCH  20  23
ENDBRANCH  16  17
ENDBRANCH   2  16
TORSDOF 7
