REMARK  Name = ZINCqH0000051BOE.0
REMARK                            x       y       z     vdW  Elec       q    Type
REMARK                         _______ _______ _______ _____ _____    ______ ____
ROOT
ATOM      1  O   LIG    1        1.168  -3.006   0.747  0.00  0.00    -0.500 OA
ATOM      2  C   LIG    1        1.903  -2.037   0.794  0.00  0.00    +0.590 C 
ATOM      3  N   LIG    1        3.168  -2.128   0.339  0.00  0.00    -0.620 N 
ATOM      4  C   LIG    1        4.087  -0.981   0.421  0.00  0.00    +0.250 C 
ATOM      5  C   LIG    1        4.716  -0.760  -0.954  0.00  0.00    +0.220 C 
ATOM      6  O   LIG    1        5.276  -1.991  -1.421  0.00  0.00    -0.360 OA
ATOM      7  C   LIG    1        4.318  -3.035  -1.609  0.00  0.00    +0.240 C 
ATOM      8  C   LIG    1        3.670  -3.374  -0.262  0.00  0.00    +0.310 C 
ENDROOT
BRANCH   2   9
ATOM      9  C   LIG    1        1.411  -0.771   1.347  0.00  0.00    -0.060 A 
ATOM     10  C   LIG    1        0.094  -0.363   1.405  0.00  0.00    +0.060 A 
ATOM     11  C   LIG    1        0.083   0.895   2.003  0.00  0.00    -0.170 A 
ATOM     12  C   LIG    1        1.367   1.233   2.296  0.00  0.00    +0.050 A 
ATOM     13  C   LIG    1        1.766   2.533   2.951  0.00  0.00    +0.100 C 
ATOM     14  C   LIG    1        0.595   3.515   2.832  0.00  0.00    +0.030 C 
ATOM     15  C   LIG    1       -0.692   2.838   3.311  0.00  0.00    +0.010 C 
ATOM     16  C   LIG    1       -1.113   1.765   2.301  0.00  0.00    +0.090 C 
ATOM     17  N   LIG    1        2.181   0.228   1.903  0.00  0.00    -0.540 N 
ATOM     18  H   LIG    1        3.146   0.212   1.998  0.00  0.00    +0.420 HD
ENDBRANCH   2   9
BRANCH   8  19
ATOM     19  C   LIG    1        2.525  -4.331  -0.475  0.00  0.00    +0.120 A 
ATOM     20  N   LIG    1        2.350  -5.405   0.199  0.00  0.00    -0.460 NA
ATOM     21  C   LIG    1        1.281  -6.167  -0.101  0.00  0.00    +0.090 A 
ATOM     22  C   LIG    1        0.853  -7.382   0.472  0.00  0.00    +0.060 A 
ATOM     23  C   LIG    1       -0.272  -8.000   0.018  0.00  0.00    +0.020 A 
ATOM     24  C   LIG    1       -1.017  -7.449  -1.015  0.00  0.00    +0.030 A 
ATOM     25  C   LIG    1       -0.623  -6.264  -1.593  0.00  0.00    +0.060 A 
ATOM     26  C   LIG    1        0.525  -5.617  -1.142  0.00  0.00    -0.170 A 
ATOM     27  S   LIG    1        1.297  -4.115  -1.639  0.00  0.00    +0.120 S 
ENDBRANCH   8  19
TORSDOF 2
