REMARK  Name = ZINCpk00000KfKVn.0
REMARK                            x       y       z     vdW  Elec       q    Type
REMARK                         _______ _______ _______ _____ _____    ______ ____
ROOT
ATOM      1  C   LIG    1       -0.788   1.574  -3.712  0.00  0.00    +0.290 C 
ENDROOT
BRANCH   1   2
ATOM      2  N   LIG    1       -0.991   3.018  -3.853  0.00  0.00    -0.710 N 
ATOM      3  H   LIG    1       -0.318   3.636  -3.526  0.00  0.00    +0.410 HD
ATOM      4  C   LIG    1       -2.111   3.488  -4.437  0.00  0.00    +0.510 C 
ATOM      5  O   LIG    1       -2.907   2.717  -4.930  0.00  0.00    -0.510 OA
BRANCH   4   6
ATOM      6  C   LIG    1       -2.374   4.971  -4.478  0.00  0.00    +0.240 C 
ATOM      7  C   LIG    1       -1.668   5.606  -5.696  0.00  0.00    +0.080 C 
ATOM      8  C   LIG    1       -2.790   5.579  -6.760  0.00  0.00    +0.060 C 
ATOM      9  C   LIG    1       -4.068   5.565  -5.951  0.00  0.00    +0.530 C 
ATOM     10  O   LIG    1       -5.170   5.822  -6.389  0.00  0.00    -0.520 OA
ATOM     11  N   LIG    1       -3.806   5.227  -4.677  0.00  0.00    -0.710 N 
ATOM     12  H   LIG    1       -4.476   5.161  -3.979  0.00  0.00    +0.410 HD
ENDBRANCH   4   6
ENDBRANCH   1   2
BRANCH   1  13
ATOM     13  C   LIG    1       -0.108   1.040  -4.947  0.00  0.00    +0.450 C 
ATOM     14  O   LIG    1        0.178   1.788  -5.851  0.00  0.00    -0.500 OA
BRANCH  13  16
ATOM     15  C   LIG    1        0.836  -0.713  -6.258  0.00  0.00    +0.260 C 
ATOM     16  O   LIG    1        0.180  -0.268  -5.041  0.00  0.00    -0.360 OA
ENDBRANCH  13  16
ENDBRANCH   1  13
BRANCH   1  17
ATOM     17  C   LIG    1        0.087   1.298  -2.488  0.00  0.00    +0.060 C 
BRANCH  17  18
ATOM     18  C   LIG    1       -0.639   1.769  -1.226  0.00  0.00    +0.050 C 
ATOM     19  C   LIG    1       -1.890   0.918  -1.018  0.00  0.00    +0.020 C 
ATOM     20  C   LIG    1       -2.482   1.256   0.356  0.00  0.00    +0.020 C 
ATOM     21  C   LIG    1       -1.542   0.716   1.432  0.00  0.00    +0.070 C 
ATOM     22  C   LIG    1       -0.129   1.170   1.178  0.00  0.00    -0.070 A 
ATOM     23  C   LIG    1        0.775   1.089   2.229  0.00  0.00    +0.000 A 
ATOM     24  C   LIG    1        2.087   1.479   2.057  0.00  0.00    +0.000 A 
ATOM     25  C   LIG    1        2.507   1.954   0.828  0.00  0.00    +0.000 A 
ATOM     26  C   LIG    1        1.610   2.037  -0.217  0.00  0.00    +0.000 A 
ATOM     27  C   LIG    1        0.288   1.647  -0.045  0.00  0.00    -0.070 A 
ENDBRANCH  17  18
ENDBRANCH   1  17
TORSDOF 6
