REMARK  Name = ZINCb70000003Xx2.0
REMARK                            x       y       z     vdW  Elec       q    Type
REMARK                         _______ _______ _______ _____ _____    ______ ____
ROOT
ATOM      1  C   LIG    1        2.425   0.139  -0.110  0.00  0.00    +0.010 A 
ATOM      2  C   LIG    1        2.308   1.485  -0.141  0.00  0.00    +0.000 A 
ATOM      3  O   LIG    1        1.110   2.074  -0.022  0.00  0.00    -0.210 OA
ATOM      4  C   LIG    1       -0.015   1.368   0.132  0.00  0.00    +0.340 A 
ATOM      5  C   LIG    1        0.009   0.020   0.174  0.00  0.00    -0.120 A 
ATOM      6  C   LIG    1        1.252  -0.649   0.052  0.00  0.00    +0.370 A 
ATOM      7  O   LIG    1        1.315  -1.868   0.085  0.00  0.00    -0.440 OA
ENDROOT
BRANCH   1   9
ATOM      8  C   LIG    1        3.871  -1.239  -1.402  0.00  0.00    +0.250 C 
ATOM      9  O   LIG    1        3.645  -0.452  -0.231  0.00  0.00    -0.310 OA
ENDBRANCH   1   9
BRANCH   2  10
ATOM     10  C   LIG    1        3.541   2.335  -0.312  0.00  0.00    +0.400 C 
BRANCH  10  11
ATOM     11  N   LIG    1        3.466   3.054  -1.591  0.00  0.00    -0.640 N 
ATOM     12  H   LIG    1        3.408   2.390  -2.348  0.00  0.00    +0.440 HD
ATOM     13  H   LIG    1        4.292   3.624  -1.705  0.00  0.00    +0.450 HD
ATOM     14  H   LIG    1        2.647   3.644  -1.597  0.00  0.00    +0.440 HD
ENDBRANCH  10  11
ENDBRANCH   2  10
TORSDOF 3
