REMARK  Name = ZINCrD000000f3ho.0
REMARK                            x       y       z     vdW  Elec       q    Type
REMARK                         _______ _______ _______ _____ _____    ______ ____
ROOT
ATOM      1  N   LIG    1       -0.015   1.456  -0.035  0.00  0.00    -0.620 N 
ATOM      2  C   LIG    1       -1.190   2.115  -0.014  0.00  0.00    +0.710 C 
ATOM      3  N   LIG    1       -2.349   1.426  -0.006  0.00  0.00    -0.740 N 
ATOM      4  H   LIG    1       -2.336   0.456  -0.015  0.00  0.00    +0.390 HD
ATOM      5  O   LIG    1       -1.206   3.330  -0.003  0.00  0.00    -0.570 OA
ENDROOT
BRANCH   3   6
ATOM      6  C   LIG    1       -3.627   2.142   0.017  0.00  0.00    +0.260 C 
ATOM      7  C   LIG    1       -4.104   2.433  -1.424  0.00  0.00    +0.040 C 
ATOM      8  C   LIG    1       -5.093   1.273  -1.702  0.00  0.00    +0.180 C 
ATOM      9  N   LIG    1       -5.774   1.086  -0.395  0.00  0.00    -0.450 N 
ATOM     10  C   LIG    1       -4.725   1.255   0.634  0.00  0.00    +0.210 C 
BRANCH   9  11
ATOM     11  C   LIG    1       -6.358  -0.183  -0.311  0.00  0.00    +0.080 A 
ATOM     12  C   LIG    1       -6.381  -1.013  -1.422  0.00  0.00    +0.030 A 
ATOM     13  C   LIG    1       -6.955  -2.269  -1.335  0.00  0.00    -0.050 A 
ATOM     14  C   LIG    1       -7.517  -2.695  -0.145  0.00  0.00    +0.050 A 
ATOM     15  C   LIG    1       -7.502  -1.869   0.966  0.00  0.00    -0.040 A 
ATOM     16 CL   LIG    1       -6.977  -3.309  -2.724  0.00  0.00    -0.070 Cl
ATOM     17  C   LIG    1       -6.924  -0.614   0.888  0.00  0.00    +0.120 A 
BRANCH  17  18
ATOM     18  O   LIG    1       -6.909   0.199   1.979  0.00  0.00    -0.300 OA
ATOM     19  C   LIG    1       -7.508  -0.309   3.173  0.00  0.00    +0.240 C 
ENDBRANCH  17  18
ENDBRANCH   9  11
ENDBRANCH   3   6
BRANCH   1  20
ATOM     20  C   LIG    1        0.004  -0.009  -0.049  0.00  0.00    +0.430 C 
BRANCH  20  22
ATOM     21  C   LIG    1        0.060  -0.913   2.437  0.00  0.00    +0.060 C 
ATOM     22  C   LIG    1        0.035  -0.512   1.334  0.00  0.00    -0.230 C 
ENDBRANCH  20  22
ENDBRANCH   1  20
BRANCH   1  23
ATOM     23  C   LIG    1        1.244   2.205  -0.051  0.00  0.00    +0.440 C 
BRANCH  23  24
ATOM     24  C   LIG    1        1.651   2.475  -1.477  0.00  0.00    -0.050 A 
ATOM     25  C   LIG    1        1.301   3.551  -2.204  0.00  0.00    -0.030 A 
ATOM     26  C   LIG    1        1.901   3.398  -3.475  0.00  0.00    -0.070 A 
ATOM     27  C   LIG    1        2.574   2.234  -3.451  0.00  0.00    +0.160 A 
ATOM     28  O   LIG    1        2.419   1.679  -2.238  0.00  0.00    -0.180 OA
ENDBRANCH  23  24
ENDBRANCH   1  23
TORSDOF 7
