REMARK  Name = ZINCqH0000003NxD.0
REMARK                            x       y       z     vdW  Elec       q    Type
REMARK                         _______ _______ _______ _____ _____    ______ ____
ROOT
ATOM      1  C   LIG    1       -2.449   1.120   0.020  0.00  0.00    +0.290 C 
ATOM      2  C   LIG    1       -2.816   0.743   1.456  0.00  0.00    +0.040 C 
ENDROOT
BRANCH   1   6
ATOM      3  C   LIG    1       -5.550   3.544  -1.653  0.00  0.00    +0.110 A 
ATOM      4  C   LIG    1       -4.607   4.106  -0.809  0.00  0.00    -0.030 A 
ATOM      5  C   LIG    1       -3.605   3.320  -0.270  0.00  0.00    +0.010 A 
ATOM      6  C   LIG    1       -3.543   1.972  -0.571  0.00  0.00    -0.090 A 
ATOM      7  C   LIG    1       -4.478   1.406  -1.418  0.00  0.00    -0.020 A 
ATOM      8  C   LIG    1       -5.487   2.187  -1.957  0.00  0.00    +0.110 A 
BRANCH   3   9
ATOM      9  O   LIG    1       -6.535   4.316  -2.185  0.00  0.00    -0.300 OA
BRANCH   9  11
ATOM     10  C   LIG    1       -7.710   6.402  -2.519  0.00  0.00    +0.070 C 
ATOM     11  C   LIG    1       -6.537   5.700  -1.830  0.00  0.00    +0.170 C 
ENDBRANCH   9  11
ENDBRANCH   3   9
BRANCH   8  12
ATOM     12  O   LIG    1       -6.410   1.631  -2.786  0.00  0.00    -0.300 OA
BRANCH  12  13
ATOM     13  C   LIG    1       -6.283   0.233  -3.053  0.00  0.00    +0.170 C 
ATOM     14  C   LIG    1       -7.403  -0.210  -3.997  0.00  0.00    +0.070 C 
ENDBRANCH  12  13
ENDBRANCH   8  12
ENDBRANCH   1   6
BRANCH   1  15
ATOM     15  N   LIG    1       -1.191   1.870   0.018  0.00  0.00    -0.720 N 
ATOM     16  H   LIG    1       -1.204   2.840   0.023  0.00  0.00    +0.400 HD
ATOM     17  C   LIG    1       -0.014   1.212   0.009  0.00  0.00    +0.570 C 
ATOM     18  O   LIG    1        0.002  -0.004   0.002  0.00  0.00    -0.510 OA
BRANCH  17  19
ATOM     19  C   LIG    1        1.253   1.967   0.001  0.00  0.00    -0.220 A 
ATOM     20  C   LIG    1        1.249   3.366   0.002  0.00  0.00    +0.130 A 
ATOM     21  C   LIG    1        2.464   4.027   0.001  0.00  0.00    -0.070 A 
ATOM     22  C   LIG    1        3.637   3.294  -0.015  0.00  0.00    +0.340 A 
ATOM     23  N   LIG    1        3.618   1.975  -0.022  0.00  0.00    -0.550 NA
ATOM     24  C   LIG    1        2.485   1.294  -0.015  0.00  0.00    +0.380 A 
BRANCH  24  25
ATOM     25  O   LIG    1        2.512  -0.059  -0.022  0.00  0.00    -0.270 OA
BRANCH  25  26
ATOM     26  C   LIG    1        3.799  -0.682  -0.037  0.00  0.00    +0.200 C 
ATOM     27  C   LIG    1        3.629  -2.203  -0.044  0.00  0.00    +0.070 C 
ENDBRANCH  25  26
ENDBRANCH  24  25
ENDBRANCH  17  19
ENDBRANCH   1  15
TORSDOF 9
