REMARK  Name = ZINCvU0000000H2Y.0
REMARK                            x       y       z     vdW  Elec       q    Type
REMARK                         _______ _______ _______ _____ _____    ______ ____
ROOT
ATOM      1  C   LIG    1        1.070  11.591  -0.151  0.00  0.00    +0.520 C 
ATOM      2  N   LIG    1        2.151  12.268  -0.587  0.00  0.00    -0.640 N 
ATOM      3  H   LIG    1        3.021  11.839  -0.592  0.00  0.00    +0.420 HD
ATOM      4  O   LIG    1       -0.034  12.085  -0.246  0.00  0.00    -0.490 OA
ENDROOT
BRANCH   2   5
ATOM      5  C   LIG    1        2.018  13.582  -1.029  0.00  0.00    +0.220 A 
ATOM      6  C   LIG    1        2.742  14.662  -0.610  0.00  0.00    +0.040 A 
ATOM      7  N   LIG    1        2.302  15.742  -1.290  0.00  0.00    -0.470 NA
ATOM      8  C   LIG    1        1.343  15.383  -2.095  0.00  0.00    +0.420 A 
ATOM      9  N   LIG    1        1.132  14.045  -1.965  0.00  0.00    -0.450 N 
ATOM     10  C   LIG    1        0.141  13.247  -2.692  0.00  0.00    +0.340 C 
BRANCH   6  11
ATOM     11  C   LIG    1        3.820  14.650   0.407  0.00  0.00    -0.010 A 
ATOM     12  C   LIG    1        3.736  13.795   1.505  0.00  0.00    +0.050 A 
ATOM     13  C   LIG    1        4.744  13.784   2.447  0.00  0.00    -0.010 A 
ATOM     14  C   LIG    1        5.835  14.627   2.308  0.00  0.00    +0.100 A 
ATOM     15  C   LIG    1        5.921  15.482   1.220  0.00  0.00    -0.010 A 
ATOM     16  F   LIG    1        6.817  14.617   3.235  0.00  0.00    -0.140 F 
ATOM     17  C   LIG    1        4.920  15.497   0.271  0.00  0.00    +0.080 A 
ENDBRANCH   6  11
ENDBRANCH   2   5
BRANCH   1  19
ATOM     18  C   LIG    1        2.030  10.329   1.756  0.00  0.00    +0.060 C 
ATOM     19  C   LIG    1        1.232  10.220   0.454  0.00  0.00    +0.170 C 
BRANCH  19  20
ATOM     20  O   LIG    1       -0.055   9.665   0.729  0.00  0.00    -0.280 OA
BRANCH  20  21
ATOM     21  C   LIG    1       -0.145   8.310   0.778  0.00  0.00    +0.130 A 
ATOM     22  C   LIG    1        0.977   7.532   0.528  0.00  0.00    -0.080 A 
ATOM     23  C   LIG    1        0.888   6.157   0.577  0.00  0.00    +0.060 A 
ATOM     24  C   LIG    1       -0.329   5.548   0.877  0.00  0.00    -0.080 A 
ATOM     25  C   LIG    1       -1.455   6.332   1.123  0.00  0.00    +0.070 A 
ATOM     26  C   LIG    1       -1.359   7.707   1.079  0.00  0.00    +0.000 A 
BRANCH  24  27
ATOM     27  C   LIG    1       -0.428   4.069   0.930  0.00  0.00    -0.040 A 
ATOM     28  C   LIG    1       -1.644   3.459   1.231  0.00  0.00    +0.020 A 
ATOM     29  C   LIG    1       -1.730   2.082   1.279  0.00  0.00    +0.000 A 
ATOM     30  C   LIG    1       -0.611   1.308   1.030  0.00  0.00    +0.000 A 
ATOM     31  C   LIG    1        0.600   1.908   0.736  0.00  0.00    +0.000 A 
ATOM     32  C   LIG    1        0.696   3.284   0.680  0.00  0.00    +0.000 A 
ENDBRANCH  24  27
ENDBRANCH  20  21
ENDBRANCH  19  20
ENDBRANCH   1  19
TORSDOF 6
