REMARK  Name = ZINCqH0000007DnU.0
REMARK                            x       y       z     vdW  Elec       q    Type
REMARK                         _______ _______ _______ _____ _____    ______ ____
ROOT
ATOM      1  C   LIG    1        2.300   4.215  -0.427  0.00  0.00    -0.100 C 
ATOM      2  C   LIG    1        2.788   5.014  -1.351  0.00  0.00    -0.010 C 
ATOM      3  C   LIG    1        4.129   5.678  -1.234  0.00  0.00    +0.290 C 
ATOM      4  N   LIG    1        4.599   5.636   0.157  0.00  0.00    -0.470 N 
ATOM      5  C   LIG    1        4.519   4.262   0.680  0.00  0.00    +0.250 C 
ATOM      6  C   LIG    1        3.043   3.887   0.837  0.00  0.00    +0.050 C 
ENDROOT
BRANCH   1  11
ATOM      7  C   LIG    1       -1.411   3.846  -0.902  0.00  0.00    +0.130 A 
ATOM      8  C   LIG    1       -1.525   2.471  -1.057  0.00  0.00    -0.080 A 
ATOM      9  C   LIG    1       -0.401   1.668  -0.998  0.00  0.00    +0.050 A 
ATOM     10  C   LIG    1        0.843   2.229  -0.796  0.00  0.00    -0.030 A 
ATOM     11  C   LIG    1        0.968   3.611  -0.644  0.00  0.00    -0.010 A 
ATOM     12  C   LIG    1       -0.167   4.419  -0.698  0.00  0.00    -0.010 A 
BRANCH   7  14
ATOM     13  C   LIG    1       -3.770   3.972  -1.168  0.00  0.00    +0.250 C 
ATOM     14  O   LIG    1       -2.519   4.630  -0.955  0.00  0.00    -0.320 OA
ENDBRANCH   7  14
ENDBRANCH   1  11
BRANCH   4  15
ATOM     15  C   LIG    1        3.879   6.514   0.952  0.00  0.00    +0.340 A 
ATOM     16  C   LIG    1        4.292   6.753   2.260  0.00  0.00    -0.030 A 
ATOM     17  C   LIG    1        3.581   7.625   3.041  0.00  0.00    +0.130 A 
ATOM     18  C   LIG    1        2.447   8.242   2.493  0.00  0.00    -0.120 A 
ATOM     19  C   LIG    1        2.087   7.951   1.176  0.00  0.00    +0.360 A 
ATOM     20  N   LIG    1        2.803   7.110   0.458  0.00  0.00    -0.500 NA
BRANCH  18  21
ATOM     21  C   LIG    1        1.645   9.184   3.297  0.00  0.00    +0.240 A 
ATOM     22  N   LIG    1        0.560   9.831   2.907  0.00  0.00    -0.480 NA
ATOM     23  C   LIG    1        0.179  10.566   3.963  0.00  0.00    +0.180 A 
ATOM     24  N   LIG    1        1.026  10.341   4.925  0.00  0.00    -0.390 NA
ATOM     25  C   LIG    1       -1.014  11.484   4.025  0.00  0.00    +0.200 C 
ATOM     26  O   LIG    1        1.872   9.548   4.569  0.00  0.00    +0.080 OA
ENDBRANCH  18  21
ENDBRANCH   4  15
TORSDOF 4
