REMARK  Name = ZINCrH000004syzv.0
REMARK                            x       y       z     vdW  Elec       q    Type
REMARK                         _______ _______ _______ _____ _____    ______ ____
ROOT
ATOM      1  C   LIG    1        2.441   4.233   0.004  0.00  0.00    +0.560 C 
ATOM      2  N   LIG    1        2.409   5.580   0.009  0.00  0.00    -0.670 N 
ATOM      3  H   LIG    1        1.561   6.046  -0.055  0.00  0.00    +0.410 HD
ATOM      4  O   LIG    1        3.508   3.650  -0.001  0.00  0.00    -0.470 OA
ENDROOT
BRANCH   1  12
ATOM      5  C   LIG    1        1.169  -2.147  -0.020  0.00  0.00    +0.160 C 
ATOM      6  C   LIG    1        1.151  -0.640  -0.013  0.00  0.00    +0.120 A 
ATOM      7  N   LIG    1        0.001  -0.004  -0.008  0.00  0.00    -0.420 NA
ATOM      8  C   LIG    1       -0.017   1.334  -0.003  0.00  0.00    +0.100 A 
ATOM      9  C   LIG    1       -1.232   2.041  -0.003  0.00  0.00    +0.070 A 
ATOM     10  C   LIG    1       -1.232   3.405   0.008  0.00  0.00    +0.110 A 
ATOM     11  C   LIG    1       -0.039   4.124   0.009  0.00  0.00    +0.060 A 
ATOM     12  C   LIG    1        1.181   3.466   0.003  0.00  0.00    -0.070 A 
ATOM     13  F   LIG    1       -2.408   4.070   0.014  0.00  0.00    -0.120 F 
ATOM     14  C   LIG    1        1.206   2.048  -0.003  0.00  0.00    +0.100 A 
ATOM     15  N   LIG    1        2.362   1.381  -0.008  0.00  0.00    -0.390 NA
ATOM     16  C   LIG    1        2.355   0.066  -0.014  0.00  0.00    +0.120 A 
ATOM     17  C   LIG    1        3.661  -0.687  -0.021  0.00  0.00    +0.160 C 
ENDBRANCH   1  12
BRANCH   2  18
ATOM     18  C   LIG    1        3.601   6.308   0.108  0.00  0.00    +0.150 A 
ATOM     19  C   LIG    1        3.626   7.508   0.806  0.00  0.00    +0.010 A 
ATOM     20  C   LIG    1        4.803   8.227   0.910  0.00  0.00    +0.040 A 
ATOM     21  C   LIG    1        5.955   7.753   0.306  0.00  0.00    +0.050 A 
ATOM     22  O   LIG    1        7.120   8.458   0.399  0.00  0.00    -0.320 OA
ATOM     23  C   LIG    1        8.154   7.857   1.180  0.00  0.00    +0.230 C 
ATOM     24  C   LIG    1        8.952   6.865   0.347  0.00  0.00    -0.020 C 
ATOM     25  C   LIG    1        8.113   5.679  -0.102  0.00  0.00    +0.230 C 
ATOM     26  O   LIG    1        7.074   6.100  -0.989  0.00  0.00    -0.320 OA
ATOM     27  C   LIG    1        5.932   6.556  -0.397  0.00  0.00    +0.090 A 
ATOM     28  C   LIG    1        4.758   5.831  -0.498  0.00  0.00    +0.030 A 
ENDBRANCH   2  18
TORSDOF 2
