REMARK  Name = ZINCqH0000038G18.0
REMARK                            x       y       z     vdW  Elec       q    Type
REMARK                         _______ _______ _______ _____ _____    ______ ____
ROOT
ATOM      1  N   LIG    1        2.976   0.893   3.637  0.00  0.00    -0.670 N 
ATOM      2  H   LIG    1        3.845   0.463   3.611  0.00  0.00    +0.410 HD
ATOM      3  C   LIG    1        2.283   1.080   2.496  0.00  0.00    +0.560 C 
ATOM      4  O   LIG    1        1.154   1.530   2.537  0.00  0.00    -0.500 OA
ENDROOT
BRANCH   1  10
ATOM      5  C   LIG    1       -0.710   4.829   8.568  0.00  0.00    +0.230 C 
ATOM      6  C   LIG    1        0.121   3.850   7.777  0.00  0.00    +0.250 A 
ATOM      7  N   LIG    1        0.328   3.917   6.497  0.00  0.00    -0.480 NA
ATOM      8  C   LIG    1        1.119   2.875   6.125  0.00  0.00    +0.050 A 
ATOM      9  C   LIG    1        1.655   2.457   4.907  0.00  0.00    +0.080 A 
ATOM     10  C   LIG    1        2.441   1.319   4.858  0.00  0.00    +0.150 A 
ATOM     11  C   LIG    1        2.707   0.600   6.021  0.00  0.00    +0.030 A 
ATOM     12  C   LIG    1        2.186   1.010   7.229  0.00  0.00    +0.070 A 
ATOM     13  C   LIG    1        1.392   2.145   7.292  0.00  0.00    -0.010 A 
ATOM     14  O   LIG    1        0.752   2.786   8.296  0.00  0.00    -0.210 OA
ENDBRANCH   1  10
BRANCH   3  15
ATOM     15  C   LIG    1        2.894   0.738   1.198  0.00  0.00    -0.140 A 
ATOM     16  C   LIG    1        4.188   0.215   1.146  0.00  0.00    +0.050 A 
ATOM     17  C   LIG    1        4.755  -0.098  -0.070  0.00  0.00    +0.020 A 
ATOM     18  C   LIG    1        4.046   0.099  -1.244  0.00  0.00    +0.060 A 
ATOM     19  C   LIG    1        2.764   0.610  -1.209  0.00  0.00    +0.010 A 
ATOM     20  C   LIG    1        2.177   0.930   0.007  0.00  0.00    +0.210 A 
BRANCH  20  21
ATOM     21  N   LIG    1        0.883   1.446   0.045  0.00  0.00    -0.570 N 
ATOM     22  C   LIG    1       -0.172   0.613   0.141  0.00  0.00    +0.560 C 
ATOM     23  O   LIG    1        0.004  -0.585   0.195  0.00  0.00    -0.530 OA
ATOM     24  C   LIG    1        0.670   2.894  -0.020  0.00  0.00    +0.300 C 
BRANCH  22  25
ATOM     25  C   LIG    1       -1.571   1.171   0.176  0.00  0.00    -0.070 C 
ATOM     26  C   LIG    1       -2.353   1.039   1.485  0.00  0.00    +0.060 C 
ATOM     27  C   LIG    1       -2.727   0.174   0.280  0.00  0.00    +0.060 C 
ENDBRANCH  22  25
ENDBRANCH  20  21
ENDBRANCH   3  15
TORSDOF 4
