REMARK  Name = ZINCrD000000ASfb.0
REMARK                            x       y       z     vdW  Elec       q    Type
REMARK                         _______ _______ _______ _____ _____    ______ ____
ROOT
ATOM      1  C   LIG    1       -2.459   0.866   0.018  0.00  0.00    -0.110 A 
ATOM      2  C   LIG    1       -2.443  -0.529   0.005  0.00  0.00    +0.100 A 
ATOM      3  C   LIG    1       -3.626  -1.232   0.013  0.00  0.00    +0.080 A 
ATOM      4  C   LIG    1       -4.851  -0.553   0.024  0.00  0.00    -0.050 A 
ATOM      5  C   LIG    1       -6.099  -1.335   0.032  0.00  0.00    +0.420 C 
ATOM      6  C   LIG    1       -7.399  -0.798  -0.396  0.00  0.00    -0.080 A 
ATOM      7  C   LIG    1       -8.413  -1.688  -0.774  0.00  0.00    +0.080 A 
ATOM      8  C   LIG    1       -9.641  -1.206  -1.174  0.00  0.00    +0.070 A 
ATOM      9  C   LIG    1       -9.878   0.157  -1.202  0.00  0.00    +0.050 A 
ATOM     10  C   LIG    1       -8.883   1.042  -0.830  0.00  0.00    +0.120 A 
ATOM     11  C   LIG    1       -7.648   0.573  -0.429  0.00  0.00    -0.610 A 
ATOM     12  S   LIG    1       -6.393   1.716   0.040  0.00  0.00    +2.580 S 
ATOM     13  O   LIG    1       -6.313   2.676  -1.005  0.00  0.00    -0.910 OA
ATOM     14  O   LIG    1       -6.649   2.061   1.395  0.00  0.00    -0.910 OA
ATOM     15  O   LIG    1       -6.052  -2.488   0.413  0.00  0.00    -0.400 OA
ATOM     16  C   LIG    1       -4.864   0.841   0.030  0.00  0.00    -0.610 A 
ATOM     17  C   LIG    1       -3.678   1.545   0.028  0.00  0.00    +0.190 A 
ENDROOT
BRANCH   1  19
ATOM     18  O   LIG    1       -1.204   2.839   0.023  0.00  0.00    -0.520 OA
ATOM     19  C   LIG    1       -1.187   1.624   0.017  0.00  0.00    +0.560 C 
ATOM     20  N   LIG    1       -0.011   0.966   0.007  0.00  0.00    -0.720 N 
ATOM     21  H   LIG    1        0.002  -0.004   0.002  0.00  0.00    +0.400 HD
BRANCH  20  22
ATOM     22  C   LIG    1        1.248   1.716  -0.001  0.00  0.00    +0.260 C 
BRANCH  22  23
ATOM     23  C   LIG    1        2.424   0.737  -0.017  0.00  0.00    -0.020 C 
ATOM     24  C   LIG    1        2.438  -0.065   1.286  0.00  0.00    +0.010 C 
ATOM     25  C   LIG    1        3.615  -1.043   1.269  0.00  0.00    +0.000 C 
ATOM     26  C   LIG    1        4.925  -0.264   1.135  0.00  0.00    +0.000 C 
ATOM     27  C   LIG    1        4.910   0.538  -0.168  0.00  0.00    +0.000 C 
ATOM     28  C   LIG    1        3.733   1.517  -0.151  0.00  0.00    +0.030 C 
ENDBRANCH  22  23
ENDBRANCH  20  22
ENDBRANCH   1  19
TORSDOF 3
