REMARK  Name = ZINCvU00000003Li.0
REMARK                            x       y       z     vdW  Elec       q    Type
REMARK                         _______ _______ _______ _____ _____    ______ ____
ROOT
ATOM      1  C   LIG    1       -4.926   1.468  -2.917  0.00  0.00    +0.130 C 
ATOM      2  C   LIG    1       -4.301   1.477  -1.546  0.00  0.00    +0.210 C 
ATOM      3  C   LIG    1       -3.050   0.993  -1.382  0.00  0.00    -0.300 C 
ATOM      4  C   LIG    1       -2.459   1.021   0.013  0.00  0.00    +0.340 C 
ATOM      5  N   LIG    1       -3.304   1.577   1.084  0.00  0.00    -0.710 N 
ATOM      6  H   LIG    1       -2.982   1.622   1.998  0.00  0.00    +0.430 HD
ATOM      7  C   LIG    1       -4.535   2.023   0.763  0.00  0.00    +0.710 C 
ATOM      8  O   LIG    1       -5.239   2.484   1.640  0.00  0.00    -0.570 OA
ATOM      9  N   LIG    1       -5.007   1.974  -0.488  0.00  0.00    -0.650 N 
ATOM     10  H   LIG    1       -5.902   2.311  -0.653  0.00  0.00    +0.430 HD
ENDROOT
BRANCH   4  11
ATOM     11  C   LIG    1       -1.185   1.823  -0.037  0.00  0.00    -0.150 A 
ATOM     12  C   LIG    1        0.036   1.176  -0.102  0.00  0.00    +0.070 A 
ATOM     13  C   LIG    1        1.205   1.910  -0.155  0.00  0.00    -0.020 A 
ATOM     14  C   LIG    1        1.155   3.296  -0.136  0.00  0.00    +0.140 A 
ATOM     15  C   LIG    1       -0.070   3.942  -0.065  0.00  0.00    -0.080 A 
ATOM     16  C   LIG    1       -1.237   3.204  -0.013  0.00  0.00    +0.070 A 
BRANCH  14  17
ATOM     17  O   LIG    1        2.304   4.019  -0.188  0.00  0.00    -0.310 OA
BRANCH  17  18
ATOM     18  C   LIG    1        2.176   5.443  -0.165  0.00  0.00    +0.240 C 
BRANCH  18  19
ATOM     19  C   LIG    1        3.545   6.071  -0.230  0.00  0.00    -0.100 A 
ATOM     20  C   LIG    1        4.232   6.351   0.936  0.00  0.00    +0.020 A 
ATOM     21  C   LIG    1        5.490   6.922   0.877  0.00  0.00    +0.010 A 
ATOM     22  C   LIG    1        6.054   7.224  -0.348  0.00  0.00    +0.020 A 
ATOM     23  C   LIG    1        5.364   6.950  -1.514  0.00  0.00    +0.010 A 
ATOM     24  C   LIG    1        4.109   6.373  -1.455  0.00  0.00    +0.030 A 
ENDBRANCH  18  19
ENDBRANCH  17  18
ENDBRANCH  14  17
ENDBRANCH   4  11
BRANCH   3  25
ATOM     25  C   LIG    1       -2.316   0.479  -2.477  0.00  0.00    +0.480 C 
ATOM     26  O   LIG    1       -1.958   1.222  -3.373  0.00  0.00    -0.430 OA
BRANCH  25  27
ATOM     27  C   LIG    1       -1.983  -0.962  -2.533  0.00  0.00    -0.160 A 
ATOM     28  C   LIG    1       -2.491  -1.836  -1.570  0.00  0.00    +0.080 A 
ATOM     29  C   LIG    1       -2.181  -3.178  -1.630  0.00  0.00    +0.020 A 
ATOM     30  C   LIG    1       -1.360  -3.658  -2.638  0.00  0.00    -0.010 A 
ATOM     31  C   LIG    1       -0.849  -2.794  -3.592  0.00  0.00    +0.020 A 
ATOM     32 CL   LIG    1       -0.969  -5.348  -2.703  0.00  0.00    -0.060 Cl
ATOM     33  C   LIG    1       -1.156  -1.451  -3.546  0.00  0.00    +0.090 A 
ENDBRANCH  25  27
ENDBRANCH   3  25
TORSDOF 6
