REMARK  Name = ZINCvU00000004vR.0
REMARK                            x       y       z     vdW  Elec       q    Type
REMARK                         _______ _______ _______ _____ _____    ______ ____
ROOT
ATOM      1  O   LIG    1       -0.018   1.339   0.025  0.00  0.00    -0.330 OA
ENDROOT
BRANCH   1   2
ATOM      2  C   LIG    1        0.000  -0.003   0.026  0.00  0.00    +0.470 C 
ATOM      3  O   LIG    1        1.054  -0.594   0.018  0.00  0.00    -0.490 OA
BRANCH   2   4
ATOM      4  C   LIG    1       -1.295  -0.774   0.037  0.00  0.00    +0.150 C 
ATOM      5  C   LIG    1       -2.080  -0.407   1.267  0.00  0.00    -0.160 A 
ATOM      6  C   LIG    1       -2.771   0.791   1.298  0.00  0.00    +0.080 A 
ATOM      7  C   LIG    1       -3.497   1.147   2.418  0.00  0.00    -0.010 A 
ATOM      8  C   LIG    1       -3.536   0.305   3.514  0.00  0.00    +0.060 A 
ATOM      9  C   LIG    1       -2.851  -0.891   3.487  0.00  0.00    +0.000 A 
ATOM     10  C   LIG    1       -2.120  -1.253   2.362  0.00  0.00    +0.130 A 
ATOM     11  O   LIG    1       -1.454  -2.432   2.357  0.00  0.00    -0.240 OA
ATOM     12  C   LIG    1       -1.090  -3.002   1.183  0.00  0.00    +0.130 A 
ATOM     13  C   LIG    1       -0.808  -4.362   1.146  0.00  0.00    +0.000 A 
ATOM     14  C   LIG    1       -0.436  -4.961  -0.041  0.00  0.00    +0.060 A 
ATOM     15  C   LIG    1       -0.341  -4.207  -1.196  0.00  0.00    -0.010 A 
ATOM     16  C   LIG    1       -0.621  -2.854  -1.163  0.00  0.00    +0.070 A 
ATOM     17  C   LIG    1       -0.995  -2.248   0.024  0.00  0.00    -0.140 A 
ENDBRANCH   2   4
ENDBRANCH   1   2
BRANCH   1  18
ATOM     18  C   LIG    1        1.267   2.015   0.014  0.00  0.00    +0.270 C 
BRANCH  18  21
ATOM     19  N   LIG    1        2.108   4.341   0.005  0.00  0.00    -0.670 N 
ATOM     20  H   LIG    1        3.008   3.985   0.064  0.00  0.00    +0.410 HD
ATOM     21  C   LIG    1        1.050   3.506   0.014  0.00  0.00    +0.520 C 
ATOM     22  O   LIG    1       -0.077   3.955   0.022  0.00  0.00    -0.490 OA
BRANCH  19  28
ATOM     23  C   LIG    1        2.810   6.509  -0.797  0.00  0.00    -0.100 A 
ATOM     24  C   LIG    1        2.609   7.872  -0.889  0.00  0.00    +0.030 A 
ATOM     25  C   LIG    1        1.512   8.455  -0.281  0.00  0.00    -0.010 A 
ATOM     26  C   LIG    1        0.613   7.675   0.422  0.00  0.00    +0.020 A 
ATOM     27  C   LIG    1        0.804   6.310   0.514  0.00  0.00    +0.020 A 
ATOM     28  C   LIG    1        1.908   5.723  -0.091  0.00  0.00    +0.140 A 
BRANCH  23  29
ATOM     29  C   LIG    1        4.005   5.876  -1.460  0.00  0.00    +0.020 C 
ATOM     30  C   LIG    1        4.018   6.244  -2.946  0.00  0.00    +0.030 C 
BRANCH  29  32
ATOM     31  C   LIG    1        6.492   5.650  -1.385  0.00  0.00    +0.010 C 
ATOM     32  C   LIG    1        5.286   6.385  -0.797  0.00  0.00    +0.010 C 
ENDBRANCH  29  32
ENDBRANCH  23  29
ENDBRANCH  19  28
ENDBRANCH  18  21
ENDBRANCH   1  18
TORSDOF 7
