REMARK  Name = ZINCvU00000006zf.0
REMARK                            x       y       z     vdW  Elec       q    Type
REMARK                         _______ _______ _______ _____ _____    ______ ____
ROOT
ATOM      1  C   LIG    1        6.353   1.630  -0.003  0.00  0.00    -0.130 A 
ATOM      2  C   LIG    1        6.190   2.954   0.415  0.00  0.00    +0.060 A 
ATOM      3  C   LIG    1        7.284   3.782   0.516  0.00  0.00    +0.040 A 
ATOM      4  C   LIG    1        8.551   3.306   0.190  0.00  0.00    +0.160 A 
ATOM      5  C   LIG    1        8.716   1.990  -0.232  0.00  0.00    +0.010 A 
ATOM      6  C   LIG    1        7.627   1.155  -0.329  0.00  0.00    +0.090 A 
ENDROOT
BRANCH   1   9
ATOM      7  N   LIG    1        3.955   1.198   0.208  0.00  0.00    -0.670 N 
ATOM      8  H   LIG    1        3.834   2.128   0.454  0.00  0.00    +0.410 HD
ATOM      9  C   LIG    1        5.183   0.738  -0.106  0.00  0.00    +0.550 C 
ATOM     10  O   LIG    1        5.325  -0.412  -0.475  0.00  0.00    -0.510 OA
BRANCH   7  17
ATOM     11  C   LIG    1        1.675   0.729  -0.435  0.00  0.00    -0.090 A 
ATOM     12  C   LIG    1        0.592  -0.128  -0.461  0.00  0.00    +0.020 A 
ATOM     13  C   LIG    1        0.683  -1.378   0.123  0.00  0.00    +0.000 A 
ATOM     14  C   LIG    1        1.857  -1.775   0.735  0.00  0.00    +0.020 A 
ATOM     15  C   LIG    1        2.944  -0.923   0.765  0.00  0.00    -0.070 A 
ATOM     16  C   LIG    1        4.224  -1.356   1.433  0.00  0.00    +0.090 C 
ATOM     17  C   LIG    1        2.857   0.333   0.180  0.00  0.00    +0.140 A 
BRANCH  11  19
ATOM     18  C   LIG    1        2.125   2.028  -2.498  0.00  0.00    +0.020 C 
ATOM     19  C   LIG    1        1.576   2.091  -1.072  0.00  0.00    +0.070 C 
ENDBRANCH  11  19
ENDBRANCH   7  17
ENDBRANCH   1   9
BRANCH   4  20
ATOM     20  N   LIG    1        9.655   4.147   0.287  0.00  0.00    -0.950 N 
BRANCH  20  21
ATOM     21  S   LIG    1       10.085   4.782   1.754  0.00  0.00    +2.600 S 
ATOM     22  O   LIG    1        8.852   4.937   2.445  0.00  0.00    -0.940 OA
ATOM     23  O   LIG    1       10.887   5.909   1.427  0.00  0.00    -0.940 OA
ATOM     24  C   LIG    1       11.091   3.488   2.531  0.00  0.00    -0.280 C 
ENDBRANCH  20  21
BRANCH  20  25
ATOM     25  C   LIG    1       10.436   4.471  -0.909  0.00  0.00    +0.360 C 
BRANCH  25  26
ATOM     26  C   LIG    1        9.796   5.631  -1.628  0.00  0.00    -0.110 A 
ATOM     27  C   LIG    1        8.843   5.399  -2.602  0.00  0.00    +0.050 A 
ATOM     28  C   LIG    1        8.253   6.463  -3.259  0.00  0.00    +0.010 A 
ATOM     29  C   LIG    1        8.624   7.759  -2.948  0.00  0.00    -0.030 A 
ATOM     30  C   LIG    1        9.582   7.990  -1.977  0.00  0.00    +0.030 A 
ATOM     31 CL   LIG    1        7.888   9.095  -3.778  0.00  0.00    -0.070 Cl
ATOM     32  C   LIG    1       10.167   6.926  -1.317  0.00  0.00    +0.060 A 
ENDBRANCH  25  26
ENDBRANCH  20  25
ENDBRANCH   4  20
TORSDOF 7
