REMARK  Name = ZINCrD000000CTe0.0
REMARK                            x       y       z     vdW  Elec       q    Type
REMARK                         _______ _______ _______ _____ _____    ______ ____
ROOT
ATOM      1  C   LIG    1        0.002  -0.004   0.002  0.00  0.00    +0.590 C 
ATOM      2  N   LIG    1        1.173  -0.661  -0.114  0.00  0.00    -0.620 N 
ATOM      3  C   LIG    1        2.509  -0.039  -0.135  0.00  0.00    +0.250 C 
ATOM      4  C   LIG    1        3.409  -1.057  -0.880  0.00  0.00    +0.040 C 
ATOM      5  C   LIG    1        2.839  -2.407  -0.370  0.00  0.00    +0.070 C 
ATOM      6  C   LIG    1        1.329  -2.118  -0.234  0.00  0.00    +0.280 C 
ATOM      7  O   LIG    1       -1.043  -0.625   0.037  0.00  0.00    -0.490 OA
ENDROOT
BRANCH   1  18
ATOM      8  O   LIG    1       -3.142   1.148   0.578  0.00  0.00    -0.490 OA
ATOM      9  C   LIG    1       -2.618   2.046  -0.053  0.00  0.00    +0.590 C 
ATOM     10  N   LIG    1       -3.318   2.839  -0.903  0.00  0.00    -0.730 N 
ATOM     11  H   LIG    1       -4.287   2.849  -0.881  0.00  0.00    +0.410 HD
ATOM     12  C   LIG    1       -2.595   3.675  -1.848  0.00  0.00    +0.270 C 
ATOM     13  C   LIG    1       -2.175   5.030  -1.279  0.00  0.00    +0.040 C 
ATOM     14  C   LIG    1       -1.598   4.837   0.132  0.00  0.00    +0.140 C 
ATOM     15  C   LIG    1       -0.707   3.624   0.152  0.00  0.00    +0.040 A 
ATOM     16  O   LIG    1        0.622   3.569   0.254  0.00  0.00    -0.150 OA
ATOM     17  C   LIG    1        1.061   2.303   0.214  0.00  0.00    +0.230 A 
ATOM     18  C   LIG    1       -0.012   1.466   0.087  0.00  0.00    -0.180 A 
ATOM     19  C   LIG    1       -1.176   2.350   0.046  0.00  0.00    -0.190 A 
ENDBRANCH   1  18
BRANCH   6  20
ATOM     20  C   LIG    1        0.785  -2.795   0.997  0.00  0.00    -0.060 A 
ATOM     21  C   LIG    1        0.634  -2.080   2.170  0.00  0.00    +0.020 A 
ATOM     22  C   LIG    1        0.129  -2.699   3.301  0.00  0.00    +0.130 A 
ATOM     23  C   LIG    1       -0.215  -4.039   3.260  0.00  0.00    -0.010 A 
ATOM     24  C   LIG    1       -0.060  -4.758   2.088  0.00  0.00    +0.100 A 
ATOM     25  F   LIG    1       -0.397  -6.066   2.048  0.00  0.00    -0.120 F 
ATOM     26  F   LIG    1       -0.021  -1.997   4.445  0.00  0.00    -0.120 F 
ATOM     27  C   LIG    1        0.440  -4.135   0.955  0.00  0.00    +0.070 A 
ATOM     28  F   LIG    1        0.592  -4.836  -0.190  0.00  0.00    -0.120 F 
ENDBRANCH   6  20
TORSDOF 2
