REMARK  Name = ZINCrg00000J1y5s.0
REMARK                            x       y       z     vdW  Elec       q    Type
REMARK                         _______ _______ _______ _____ _____    ______ ____
ROOT
ATOM      1  O   LIG    1        1.396   4.224  -1.721  0.00  0.00    -0.340 OA
ENDROOT
BRANCH   1   2
ATOM      2  C   LIG    1        0.978   5.505  -1.729  0.00  0.00    +0.510 C 
ATOM      3  O   LIG    1        1.369   6.277  -0.876  0.00  0.00    -0.480 OA
BRANCH   2   4
ATOM      4  C   LIG    1        0.045   5.970  -2.773  0.00  0.00    -0.100 A 
ATOM      5  C   LIG    1       -0.311   5.123  -3.825  0.00  0.00    +0.100 A 
ATOM      6  C   LIG    1       -1.187   5.562  -4.795  0.00  0.00    +0.040 A 
ATOM      7  C   LIG    1       -1.708   6.843  -4.737  0.00  0.00    +0.090 A 
ATOM      8  C   LIG    1       -1.360   7.694  -3.706  0.00  0.00    +0.040 A 
ATOM      9  C   LIG    1       -0.484   7.267  -2.719  0.00  0.00    +0.180 A 
BRANCH   9  10
ATOM     10  N   LIG    1       -0.131   8.127  -1.674  0.00  0.00    -0.340 N 
ATOM     11  C   LIG    1        0.435   9.350  -1.773  0.00  0.00    +0.470 A 
ATOM     12  N   LIG    1        0.594   9.804  -0.558  0.00  0.00    -0.330 NA
ATOM     13  N   LIG    1        0.168   8.951   0.303  0.00  0.00    -0.040 NA
ATOM     14  N   LIG    1       -0.294   7.907  -0.295  0.00  0.00    -0.040 NA
ENDBRANCH   9  10
ENDBRANCH   2   4
ENDBRANCH   1   2
BRANCH   1  15
ATOM     15  C   LIG    1        2.313   3.836  -0.664  0.00  0.00    +0.340 C 
BRANCH  15  21
ATOM     16  C   LIG    1        2.361  -2.406  -1.009  0.00  0.00    +0.120 A 
ATOM     17  N   LIG    1        3.398  -1.667  -1.186  0.00  0.00    -0.230 NA
ATOM     18  N   LIG    1        3.280  -0.285  -1.087  0.00  0.00    -0.370 N 
ATOM     19  C   LIG    1        4.264   0.646  -1.242  0.00  0.00    +0.540 A 
ATOM     20  C   LIG    1        3.962   2.002  -1.107  0.00  0.00    -0.080 A 
ATOM     21  C   LIG    1        2.668   2.379  -0.816  0.00  0.00    +0.200 A 
ATOM     22  N   LIG    1        1.738   1.442  -0.672  0.00  0.00    -0.480 NA
ATOM     23  O   LIG    1        5.405   0.295  -1.500  0.00  0.00    -0.490 OA
ATOM     24  C   LIG    1        2.027   0.162  -0.801  0.00  0.00    +0.310 A 
ATOM     25  S   LIG    1        1.024  -1.293  -0.670  0.00  0.00    +0.140 S 
BRANCH  16  27
ATOM     26  C   LIG    1        3.683  -4.468  -1.397  0.00  0.00    +0.070 C 
ATOM     27  C   LIG    1        2.295  -3.911  -1.077  0.00  0.00    +0.180 C 
ENDBRANCH  16  27
ENDBRANCH  15  21
ENDBRANCH   1  15
TORSDOF 6
