REMARK  Name = ZINCnE000001QOT4.1
REMARK                            x       y       z     vdW  Elec       q    Type
REMARK                         _______ _______ _______ _____ _____    ______ ____
ROOT
ATOM      1  N   LIG    1        5.261  -1.535  -0.341  0.00  0.00    -0.700 NA
ATOM      2  C   LIG    1        6.548  -1.283  -0.654  0.00  0.00    +0.650 C 
ATOM      3  N   LIG    1        7.415  -2.302  -0.811  0.00  0.00    -0.740 N 
ATOM      4  H   LIG    1        7.114  -3.217  -0.699  0.00  0.00    +0.390 HD
ATOM      5  O   LIG    1        6.926  -0.136  -0.794  0.00  0.00    -0.620 OA
ENDROOT
BRANCH   1  10
ATOM      6  C   LIG    1        3.901   3.129  -0.248  0.00  0.00    +0.120 C 
ATOM      7  C   LIG    1        3.698   1.641  -0.126  0.00  0.00    +0.150 A 
ATOM      8  C   LIG    1        2.507   1.088   0.184  0.00  0.00    -0.330 A 
ATOM      9  S   LIG    1        2.714  -0.661   0.216  0.00  0.00    +0.030 S 
ATOM     10  C   LIG    1        4.368  -0.485  -0.179  0.00  0.00    +0.360 A 
ATOM     11  N   LIG    1        4.668   0.771  -0.307  0.00  0.00    -0.560 NA
BRANCH   8  12
ATOM     12  C   LIG    1        1.250   1.820   0.445  0.00  0.00    +0.050 A 
ATOM     13  C   LIG    1        0.064   1.417  -0.170  0.00  0.00    +0.000 A 
ATOM     14  C   LIG    1       -1.105   2.108   0.073  0.00  0.00    +0.000 A 
ATOM     15  C   LIG    1       -1.105   3.191   0.934  0.00  0.00    -0.040 A 
ATOM     16  C   LIG    1        0.067   3.596   1.547  0.00  0.00    +0.000 A 
ATOM     17  C   LIG    1        1.244   2.917   1.308  0.00  0.00    +0.000 A 
ENDBRANCH   8  12
ENDBRANCH   1  10
BRANCH   3  18
ATOM     18  C   LIG    1        8.814  -2.028  -1.151  0.00  0.00    +0.250 C 
BRANCH  18  19
ATOM     19  C   LIG    1        9.578  -3.349  -1.270  0.00  0.00    -0.020 C 
ATOM     20  C   LIG    1        9.127  -4.124  -2.533  0.00  0.00    +0.030 C 
ATOM     21  C   LIG    1       10.343  -5.038  -2.825  0.00  0.00    -0.020 C 
ATOM     22  C   LIG    1       11.566  -4.158  -2.493  0.00  0.00    +0.150 C 
ATOM     23  C   LIG    1       11.079  -3.084  -1.504  0.00  0.00    +0.040 C 
BRANCH  22  24
ATOM     24  O   LIG    1       12.063  -3.540  -3.681  0.00  0.00    -0.560 OA
ATOM     25  H   LIG    1       12.385  -4.165  -4.345  0.00  0.00    +0.370 HD
ENDBRANCH  22  24
ENDBRANCH  18  19
ENDBRANCH   3  18
TORSDOF 5
