REMARK  Name = ZINCrD00000hQ5Bp.0
REMARK                            x       y       z     vdW  Elec       q    Type
REMARK                         _______ _______ _______ _____ _____    ______ ____
ROOT
ATOM      1  S   LIG    1        3.181  -0.597   4.023  0.00  0.00    +2.690 S 
ATOM      2  O   LIG    1        3.543  -0.704   2.654  0.00  0.00    -0.950 OA
ATOM      3  O   LIG    1        3.156  -1.707   4.910  0.00  0.00    -0.950 OA
ENDROOT
BRANCH   1   6
ATOM      4  C   LIG    1       -0.681   0.106   4.897  0.00  0.00    +0.110 A 
ATOM      5  C   LIG    1        0.593  -0.443   4.874  0.00  0.00    +0.040 A 
ATOM      6  C   LIG    1        1.564   0.104   4.058  0.00  0.00    -0.650 A 
ATOM      7  C   LIG    1        1.271   1.203   3.272  0.00  0.00    -0.010 A 
ATOM      8  C   LIG    1        0.004   1.755   3.297  0.00  0.00    +0.030 A 
ATOM      9  C   LIG    1        2.335   1.800   2.387  0.00  0.00    +0.100 C 
ATOM     10  C   LIG    1       -0.973   1.210   4.108  0.00  0.00    -0.050 A 
ATOM     11  C   LIG    1       -2.354   1.812   4.135  0.00  0.00    +0.110 C 
BRANCH   4  12
ATOM     12  O   LIG    1       -1.640  -0.432   5.695  0.00  0.00    -0.310 OA
BRANCH  12  14
ATOM     13  C   LIG    1       -2.470  -2.030   7.308  0.00  0.00    +0.070 C 
ATOM     14  C   LIG    1       -1.269  -1.567   6.480  0.00  0.00    +0.180 C 
ENDBRANCH  12  14
ENDBRANCH   4  12
ENDBRANCH   1   6
BRANCH   1  15
ATOM     15  N   LIG    1        4.210   0.513   4.694  0.00  0.00    -1.000 NA
ATOM     16  C   LIG    1        4.961   1.454   3.848  0.00  0.00    +0.310 C 
ATOM     17  C   LIG    1        4.736   2.874   4.390  0.00  0.00    +0.200 C 
ATOM     18  N   LIG    1        5.083   2.910   5.816  0.00  0.00    -0.480 N 
ATOM     19  C   LIG    1        4.204   2.032   6.601  0.00  0.00    +0.180 C 
ATOM     20  C   LIG    1        4.403   0.581   6.151  0.00  0.00    +0.320 C 
BRANCH  18  21
ATOM     21  C   LIG    1        5.052   4.219   6.307  0.00  0.00    +0.100 A 
ATOM     22  C   LIG    1        4.251   4.534   7.397  0.00  0.00    +0.000 A 
ATOM     23  C   LIG    1        4.225   5.826   7.884  0.00  0.00    +0.010 A 
ATOM     24  C   LIG    1        4.989   6.810   7.279  0.00  0.00    +0.070 A 
ATOM     25  C   LIG    1        5.784   6.499   6.189  0.00  0.00    +0.010 A 
ATOM     26  F   LIG    1        4.959   8.075   7.753  0.00  0.00    -0.140 F 
ATOM     27  C   LIG    1        5.817   5.207   5.702  0.00  0.00    +0.030 A 
ENDBRANCH  18  21
ENDBRANCH   1  15
TORSDOF 5
