REMARK  Name = ZINCnE000001Cm3M.0
REMARK                            x       y       z     vdW  Elec       q    Type
REMARK                         _______ _______ _______ _____ _____    ______ ____
ROOT
ATOM      1  S   LIG    1        0.211   1.607  -0.018  0.00  0.00    +2.690 S 
ATOM      2  O   LIG    1        0.910   2.844  -0.019  0.00  0.00    -0.940 OA
ATOM      3  O   LIG    1        0.850   0.353  -0.214  0.00  0.00    -0.940 OA
ENDROOT
BRANCH   1   4
ATOM      4  C   LIG    1       -0.619   1.505   1.533  0.00  0.00    -0.690 A 
ATOM      5  C   LIG    1       -0.520   0.359   2.292  0.00  0.00    +0.190 A 
ATOM      6  C   LIG    1       -1.175   0.283   3.525  0.00  0.00    -0.140 A 
ATOM      7  C   LIG    1       -1.934   1.366   3.974  0.00  0.00    +0.130 A 
ATOM      8  C   LIG    1       -2.029   2.505   3.202  0.00  0.00    +0.000 A 
ATOM      9  C   LIG    1       -1.373   2.576   1.984  0.00  0.00    +0.050 A 
ATOM     10 CL   LIG    1       -1.499   4.013   1.018  0.00  0.00    -0.070 Cl
BRANCH   6  11
ATOM     11  C   LIG    1       -1.069  -0.939   4.344  0.00  0.00    +0.520 C 
ATOM     12  O   LIG    1       -0.404  -1.885   3.949  0.00  0.00    -0.670 OA
ATOM     13  O   LIG    1       -1.647  -1.005   5.420  0.00  0.00    -0.680 OA
ENDBRANCH   6  11
ENDBRANCH   1   4
BRANCH   1  14
ATOM     14  N   LIG    1       -0.953   1.726  -1.190  0.00  0.00    -0.930 N 
BRANCH  14  15
ATOM     15  C   LIG    1       -1.798   0.644  -1.448  0.00  0.00    +0.170 A 
ATOM     16  C   LIG    1       -1.371  -0.651  -1.184  0.00  0.00    -0.010 A 
ATOM     17  C   LIG    1       -2.211  -1.718  -1.435  0.00  0.00    +0.050 A 
ATOM     18  C   LIG    1       -3.472  -1.499  -1.960  0.00  0.00    -0.020 A 
ATOM     19  C   LIG    1       -3.898  -0.211  -2.229  0.00  0.00    +0.020 A 
ATOM     20  C   LIG    1       -3.065   0.861  -1.974  0.00  0.00    -0.020 A 
ENDBRANCH  14  15
BRANCH  14  21
ATOM     21  C   LIG    1       -1.097   2.967  -1.956  0.00  0.00    +0.330 C 
BRANCH  21  23
ATOM     22  C   LIG    1       -1.050   3.041  -4.396  0.00  0.00    +0.030 C 
ATOM     23  C   LIG    1       -0.396   2.822  -3.283  0.00  0.00    -0.060 C 
ENDBRANCH  21  23
ENDBRANCH  14  21
ENDBRANCH   1  14
TORSDOF 6
