REMARK  Name = ZINCAx0000000d8Q.0
REMARK                            x       y       z     vdW  Elec       q    Type
REMARK                         _______ _______ _______ _____ _____    ______ ____
ROOT
ATOM      1  C   LIG    1        0.760   6.362  -4.204  0.00  0.00    -0.120 A 
ATOM      2  C   LIG    1        2.155   6.415  -4.290  0.00  0.00    +0.110 A 
ATOM      3  C   LIG    1        2.922   5.690  -3.415  0.00  0.00    +0.030 A 
ATOM      4  C   LIG    1        2.313   4.902  -2.442  0.00  0.00    +0.160 A 
ATOM      5  C   LIG    1        0.925   4.843  -2.357  0.00  0.00    +0.010 A 
ATOM      6  C   LIG    1        0.152   5.569  -3.226  0.00  0.00    +0.100 A 
ENDROOT
BRANCH   1   7
ATOM      7  C   LIG    1       -0.068   7.140  -5.144  0.00  0.00    +0.510 C 
ATOM      8  O   LIG    1        0.462   7.828  -5.994  0.00  0.00    -0.500 OA
BRANCH   7   9
ATOM      9  O   LIG    1       -1.412   7.088  -5.060  0.00  0.00    -0.330 OA
BRANCH   9  10
ATOM     10  C   LIG    1       -2.163   7.879  -6.018  0.00  0.00    +0.270 C 
BRANCH  10  12
ATOM     11  O   LIG    1       -4.020   6.971  -4.878  0.00  0.00    -0.490 OA
ATOM     12  C   LIG    1       -3.639   7.697  -5.772  0.00  0.00    +0.520 C 
ATOM     13  N   LIG    1       -4.535   8.340  -6.546  0.00  0.00    -0.670 N 
ATOM     14  H   LIG    1       -4.232   8.972  -7.216  0.00  0.00    +0.420 HD
BRANCH  13  15
ATOM     15  C   LIG    1       -5.905   8.096  -6.382  0.00  0.00    +0.150 A 
ATOM     16  C   LIG    1       -6.420   7.849  -5.117  0.00  0.00    +0.040 A 
ATOM     17  C   LIG    1       -7.771   7.609  -4.953  0.00  0.00    +0.060 A 
ATOM     18  C   LIG    1       -8.615   7.613  -6.051  0.00  0.00    +0.020 A 
ATOM     19  O   LIG    1       -9.962   7.408  -6.157  0.00  0.00    -0.310 OA
ATOM     20  C   LIG    1      -10.199   7.128  -7.549  0.00  0.00    +0.430 C 
ATOM     21  O   LIG    1       -9.126   7.810  -8.224  0.00  0.00    -0.310 OA
ATOM     22  C   LIG    1       -8.102   7.860  -7.322  0.00  0.00    +0.050 A 
ATOM     23  C   LIG    1       -6.749   8.107  -7.484  0.00  0.00    +0.020 A 
ENDBRANCH  13  15
ENDBRANCH  10  12
ENDBRANCH   9  10
ENDBRANCH   7   9
ENDBRANCH   1   7
BRANCH   4  24
ATOM     24  N   LIG    1        3.094   4.168  -1.556  0.00  0.00    -1.060 N 
ATOM     25  H   LIG    1        3.169   3.206  -1.658  0.00  0.00    +0.430 HD
BRANCH  24  26
ATOM     26  S   LIG    1        3.897   4.935  -0.328  0.00  0.00    +2.690 S 
ATOM     27  O   LIG    1        4.540   3.918   0.429  0.00  0.00    -0.940 OA
ATOM     28  O   LIG    1        4.596   6.021  -0.922  0.00  0.00    -0.940 OA
BRANCH  26  29
ATOM     29  C   LIG    1        2.678   5.646   0.728  0.00  0.00    -0.680 A 
ATOM     30  C   LIG    1        2.098   4.882   1.723  0.00  0.00    +0.140 A 
ATOM     31  C   LIG    1        1.140   5.435   2.552  0.00  0.00    +0.020 A 
ATOM     32  C   LIG    1        0.755   6.757   2.384  0.00  0.00    +0.110 A 
ATOM     33  O   LIG    1       -0.191   7.287   3.206  0.00  0.00    -0.300 OA
ATOM     34  C   LIG    1       -0.275   8.716   3.255  0.00  0.00    +0.230 C 
ATOM     35  C   LIG    1       -0.240   9.248   1.816  0.00  0.00    +0.230 C 
ATOM     36  O   LIG    1        0.990   8.829   1.213  0.00  0.00    -0.300 OA
ATOM     37  C   LIG    1        1.345   7.527   1.388  0.00  0.00    +0.030 A 
ATOM     38  C   LIG    1        2.304   6.966   0.559  0.00  0.00    +0.140 A 
ENDBRANCH  26  29
ENDBRANCH  24  26
ENDBRANCH   4  24
TORSDOF 8
