REMARK  Name = ZINCah0000002xCb.0
REMARK                            x       y       z     vdW  Elec       q    Type
REMARK                         _______ _______ _______ _____ _____    ______ ____
ROOT
ATOM      1  C   LIG    1       -1.191   3.156   0.029  0.00  0.00    +0.320 A 
ATOM      2  C   LIG    1       -1.211   1.768   0.017  0.00  0.00    -0.030 A 
ATOM      3  C   LIG    1       -0.013   1.076   0.008  0.00  0.00    +0.090 A 
ATOM      4  C   LIG    1        1.173   1.804   0.001  0.00  0.00    +0.010 A 
ATOM      5  C   LIG    1        1.116   3.189   0.008  0.00  0.00    +0.150 A 
ATOM      6  C   LIG    1        2.394   3.987   0.001  0.00  0.00    +0.140 C 
ATOM      7  N   LIG    1       -0.045   3.816   0.022  0.00  0.00    -0.530 NA
ENDROOT
BRANCH   1   9
ATOM      8  C   LIG    1       -2.275   5.271   0.050  0.00  0.00    +0.260 C 
ATOM      9  O   LIG    1       -2.361   3.844   0.044  0.00  0.00    -0.310 OA
ENDBRANCH   1   9
BRANCH   4  10
ATOM     10  O   LIG    1        2.374   1.165  -0.013  0.00  0.00    -0.490 OA
ATOM     11  H   LIG    1        2.713   0.985  -0.901  0.00  0.00    +0.390 HD
ENDBRANCH   4  10
TORSDOF 2
