REMARK  Name = ZINCpe00000TMEM9.1
REMARK                            x       y       z     vdW  Elec       q    Type
REMARK                         _______ _______ _______ _____ _____    ______ ____
ROOT
ATOM      1  O   LIG    1       -0.319  -7.761  -1.050  0.00  0.00    -0.540 OA
ATOM      2  C   LIG    1       -0.452  -6.894  -0.209  0.00  0.00    +0.710 C 
ATOM      3  N   LIG    1       -0.469  -7.131   1.108  0.00  0.00    -0.680 N 
ATOM      4  H   LIG    1       -0.378  -8.011   1.505  0.00  0.00    +0.430 HD
ATOM      5  C   LIG    1       -0.629  -5.993   1.816  0.00  0.00    +0.530 C 
ATOM      6  C   LIG    1       -0.726  -4.889   0.788  0.00  0.00    +0.120 C 
ATOM      7  C   LIG    1       -2.078  -4.190   0.885  0.00  0.00    +0.060 C 
ATOM      8  C   LIG    1       -2.177  -3.119  -0.206  0.00  0.00    +0.290 C 
ATOM      9  N   LIG    1       -1.013  -2.229  -0.102  0.00  0.00    -0.610 N 
ATOM     10  C   LIG    1        0.333  -2.818  -0.126  0.00  0.00    +0.300 C 
ATOM     11  C   LIG    1       -1.176  -0.895   0.009  0.00  0.00    +0.610 C 
ATOM     12  O   LIG    1       -2.289  -0.429   0.153  0.00  0.00    -0.520 OA
ATOM     13  C   LIG    1        0.414  -3.893   0.971  0.00  0.00    +0.060 C 
ATOM     14  O   LIG    1       -0.684  -5.881   3.021  0.00  0.00    -0.460 OA
ATOM     15  N   LIG    1       -0.598  -5.587  -0.498  0.00  0.00    -0.720 N 
ATOM     16  H   LIG    1       -0.616  -5.185  -1.381  0.00  0.00    +0.440 HD
ENDROOT
BRANCH  11  17
ATOM     17  C   LIG    1       -0.002  -0.001  -0.045  0.00  0.00    -0.010 A 
ATOM     18  N   LIG    1        1.237  -0.354  -0.325  0.00  0.00    -0.250 NA
ATOM     19  N   LIG    1        2.014   0.668  -0.286  0.00  0.00    -0.380 N 
ATOM     20  H   LIG    1        2.969   0.648  -0.459  0.00  0.00    +0.450 HD
ATOM     21  C   LIG    1        1.300   1.785   0.033  0.00  0.00    +0.070 A 
ATOM     22  C   LIG    1        0.001   1.391   0.195  0.00  0.00    +0.010 A 
BRANCH  21  23
ATOM     23  C   LIG    1        1.829   3.160   0.175  0.00  0.00    -0.030 A 
ATOM     24  C   LIG    1        0.971   4.210   0.502  0.00  0.00    +0.040 A 
ATOM     25  C   LIG    1        1.471   5.489   0.639  0.00  0.00    +0.020 A 
ATOM     26  C   LIG    1        2.818   5.732   0.443  0.00  0.00    +0.020 A 
ATOM     27  C   LIG    1        3.674   4.696   0.113  0.00  0.00    +0.020 A 
ATOM     28  C   LIG    1        3.187   3.412  -0.021  0.00  0.00    +0.010 A 
ENDBRANCH  21  23
ENDBRANCH  11  17
TORSDOF 2
