REMARK  Name = ZINCpe00000TMEM9.0
REMARK                            x       y       z     vdW  Elec       q    Type
REMARK                         _______ _______ _______ _____ _____    ______ ____
ROOT
ATOM      1  O   LIG    1        0.764   4.011   0.037  0.00  0.00    -0.530 OA
ATOM      2  C   LIG    1       -0.428   3.866  -0.151  0.00  0.00    +0.710 C 
ATOM      3  N   LIG    1       -1.252   4.858  -0.510  0.00  0.00    -0.680 N 
ATOM      4  H   LIG    1       -0.971   5.776  -0.652  0.00  0.00    +0.440 HD
ATOM      5  C   LIG    1       -2.521   4.423  -0.651  0.00  0.00    +0.530 C 
ATOM      6  C   LIG    1       -2.479   2.945  -0.339  0.00  0.00    +0.120 C 
ATOM      7  C   LIG    1       -3.363   2.632   0.863  0.00  0.00    +0.070 C 
ATOM      8  C   LIG    1       -3.249   1.142   1.204  0.00  0.00    +0.270 C 
ATOM      9  N   LIG    1       -3.546   0.358  -0.003  0.00  0.00    -0.610 N 
ATOM     10  C   LIG    1       -2.791   0.636  -1.232  0.00  0.00    +0.310 C 
ATOM     11  C   LIG    1       -4.494  -0.600   0.018  0.00  0.00    +0.600 C 
ATOM     12  O   LIG    1       -4.817  -1.158  -1.013  0.00  0.00    -0.510 OA
ATOM     13  C   LIG    1       -2.909   2.130  -1.554  0.00  0.00    +0.060 C 
ATOM     14  O   LIG    1       -3.491   5.080  -0.966  0.00  0.00    -0.450 OA
ATOM     15  N   LIG    1       -1.069   2.688  -0.021  0.00  0.00    -0.720 N 
ATOM     16  H   LIG    1       -0.675   1.838   0.229  0.00  0.00    +0.440 HD
ENDROOT
BRANCH  11  17
ATOM     17  C   LIG    1       -5.137  -0.971   1.289  0.00  0.00    -0.040 A 
ATOM     18  C   LIG    1       -6.377  -1.561   1.447  0.00  0.00    +0.040 A 
ATOM     19  C   LIG    1       -6.540  -1.714   2.836  0.00  0.00    +0.070 A 
ATOM     20  N   LIG    1       -5.459  -1.240   3.418  0.00  0.00    -0.260 NA
ATOM     21  N   LIG    1       -4.624  -0.806   2.545  0.00  0.00    -0.380 N 
ATOM     22  H   LIG    1       -3.758  -0.417   2.746  0.00  0.00    +0.450 HD
BRANCH  19  23
ATOM     23  C   LIG    1       -7.718  -2.304   3.521  0.00  0.00    -0.010 A 
ATOM     24  C   LIG    1       -8.801  -2.765   2.776  0.00  0.00    +0.030 A 
ATOM     25  C   LIG    1       -9.892  -3.317   3.417  0.00  0.00    +0.010 A 
ATOM     26  C   LIG    1       -9.914  -3.404   4.797  0.00  0.00    +0.010 A 
ATOM     27  C   LIG    1       -8.844  -2.943   5.542  0.00  0.00    +0.010 A 
ATOM     28  C   LIG    1       -7.746  -2.394   4.910  0.00  0.00    +0.040 A 
ENDBRANCH  19  23
ENDBRANCH  11  17
TORSDOF 2
