REMARK  Name = ZINCpe00000gMPRZ.0
REMARK                            x       y       z     vdW  Elec       q    Type
REMARK                         _______ _______ _______ _____ _____    ______ ____
ROOT
ATOM      1  N   LIG    1       -4.881   1.430  -0.995  0.00  0.00    -0.530 NA
ATOM      2  C   LIG    1       -4.199   2.412  -1.849  0.00  0.00    +0.190 C 
ATOM      3  C   LIG    1       -2.914   1.792  -2.407  0.00  0.00    +0.300 C 
ATOM      4  N   LIG    1       -2.113   1.284  -1.283  0.00  0.00    -0.610 N 
ATOM      5  C   LIG    1       -2.767   0.397  -0.308  0.00  0.00    +0.280 C 
ATOM      6  C   LIG    1       -0.814   1.618  -1.152  0.00  0.00    +0.530 C 
ATOM      7  O   LIG    1       -0.290   2.347  -1.968  0.00  0.00    -0.530 OA
ATOM      8  C   LIG    1       -4.060   1.076   0.171  0.00  0.00    +0.170 C 
ENDROOT
BRANCH   6   9
ATOM      9  C   LIG    1       -0.013   1.086   0.008  0.00  0.00    -0.010 C 
ATOM     10  C   LIG    1       -0.557   1.625   1.351  0.00  0.00    +0.070 C 
ATOM     11  C   LIG    1        0.681   1.849   2.190  0.00  0.00    +0.520 C 
ATOM     12  N   LIG    1        1.774   1.858   1.408  0.00  0.00    -0.610 N 
ATOM     13  O   LIG    1        0.688   1.998   3.394  0.00  0.00    -0.520 OA
ATOM     14  C   LIG    1        1.422   1.658  -0.003  0.00  0.00    +0.300 C 
BRANCH  12  15
ATOM     15  C   LIG    1        3.142   2.043   1.900  0.00  0.00    +0.330 C 
BRANCH  15  16
ATOM     16  C   LIG    1        3.485   3.534   1.903  0.00  0.00    -0.070 C 
ATOM     17  C   LIG    1        4.612   4.001   0.980  0.00  0.00    +0.010 C 
ATOM     18  C   LIG    1        4.835   3.947   2.494  0.00  0.00    +0.030 C 
ENDBRANCH  15  16
ENDBRANCH  12  15
ENDBRANCH   6   9
BRANCH   1  19
ATOM     19  C   LIG    1       -6.201   1.922  -0.578  0.00  0.00    +0.310 C 
BRANCH  19  24
ATOM     20  C   LIG    1       -7.477  -0.323   3.808  0.00  0.00    +0.160 C 
ATOM     21  C   LIG    1       -7.322   0.036   2.353  0.00  0.00    +0.020 A 
ATOM     22  N   LIG    1       -7.826  -0.600   1.335  0.00  0.00    -0.360 NA
ATOM     23  O   LIG    1       -7.527  -0.072   0.289  0.00  0.00    +0.110 OA
ATOM     24  C   LIG    1       -6.764   1.012   0.483  0.00  0.00    -0.030 A 
ATOM     25  C   LIG    1       -6.594   1.126   1.823  0.00  0.00    -0.060 A 
ENDBRANCH  19  24
ENDBRANCH   1  19
TORSDOF 5
