REMARK  Name = ZINCrH000004qmTf.0
REMARK                            x       y       z     vdW  Elec       q    Type
REMARK                         _______ _______ _______ _____ _____    ______ ____
ROOT
ATOM      1  C   LIG    1        0.002  -0.004  -0.020  0.00  0.00    +0.510 C 
ATOM      2  N   LIG    1       -0.016   1.344  -0.009  0.00  0.00    -0.730 N 
ATOM      3  H   LIG    1        0.817   1.840  -0.025  0.00  0.00    +0.400 HD
ATOM      4  O   LIG    1       -1.040  -0.625  -0.001  0.00  0.00    -0.540 OA
ENDROOT
BRANCH   1   5
ATOM      5  C   LIG    1        1.317  -0.739  -0.056  0.00  0.00    +0.070 C 
BRANCH   5   6
ATOM      6  C   LIG    1        1.058  -2.247  -0.062  0.00  0.00    +0.070 C 
BRANCH   6   7
ATOM      7  C   LIG    1        2.372  -2.983  -0.098  0.00  0.00    +0.420 C 
ATOM      8  O   LIG    1        3.415  -2.362  -0.117  0.00  0.00    -0.460 OA
BRANCH   7  12
ATOM      9  C   LIG    1        0.406  -7.644  -0.088  0.00  0.00    +0.150 C 
ATOM     10  C   LIG    1        1.455  -6.562  -0.105  0.00  0.00    -0.200 A 
ATOM     11  C   LIG    1        1.198  -5.262  -0.089  0.00  0.00    +0.050 A 
ATOM     12  C   LIG    1        2.392  -4.446  -0.110  0.00  0.00    -0.210 A 
ATOM     13  C   LIG    1        3.540  -5.184  -0.147  0.00  0.00    -0.140 A 
ATOM     14  C   LIG    1        4.930  -4.604  -0.182  0.00  0.00    +0.150 C 
ATOM     15  S   LIG    1        3.186  -6.852  -0.146  0.00  0.00    +0.180 S 
ENDBRANCH   7  12
ENDBRANCH   6   7
ENDBRANCH   5   6
ENDBRANCH   1   5
BRANCH   2  16
ATOM     16  C   LIG    1       -1.295   2.059   0.019  0.00  0.00    +0.320 C 
BRANCH  16  17
ATOM     17  C   LIG    1       -1.040   3.544   0.026  0.00  0.00    -0.140 A 
ATOM     18  C   LIG    1       -0.906   4.216   1.228  0.00  0.00    +0.060 A 
ATOM     19  C   LIG    1       -0.668   5.576   1.237  0.00  0.00    +0.000 A 
ATOM     20  C   LIG    1       -0.572   6.271   0.039  0.00  0.00    +0.170 A 
ATOM     21  C   LIG    1       -0.711   5.594  -1.166  0.00  0.00    -0.030 A 
ATOM     22  C   LIG    1       -0.945   4.233  -1.169  0.00  0.00    +0.060 A 
BRANCH  20  23
ATOM     23  N   LIG    1       -0.336   7.650   0.045  0.00  0.00    -0.560 N 
ATOM     24  C   LIG    1       -0.098   8.455  -1.159  0.00  0.00    +0.260 C 
ATOM     25  C   LIG    1        0.530   9.774  -0.655  0.00  0.00    +0.060 C 
ATOM     26  C   LIG    1       -0.010   9.848   0.792  0.00  0.00    +0.070 C 
ATOM     27  C   LIG    1       -0.303   8.409   1.154  0.00  0.00    +0.520 C 
ATOM     28  O   LIG    1       -0.481   7.999   2.282  0.00  0.00    -0.510 OA
ENDBRANCH  20  23
ENDBRANCH  16  17
ENDBRANCH   2  16
TORSDOF 7
