REMARK  Name = ZINCrH000004mzCP.0
REMARK                            x       y       z     vdW  Elec       q    Type
REMARK                         _______ _______ _______ _____ _____    ______ ____
ROOT
ATOM      1  C   LIG    1       -3.217   4.942  -3.425  0.00  0.00    +0.040 A 
ATOM      2  C   LIG    1       -2.610   4.803  -2.217  0.00  0.00    +0.280 A 
ATOM      3  N   LIG    1       -2.992   3.821  -1.359  0.00  0.00    -0.480 N 
ATOM      4  C   LIG    1       -3.986   2.972  -1.682  0.00  0.00    +0.520 A 
ATOM      5  C   LIG    1       -4.640   3.089  -2.920  0.00  0.00    -0.080 A 
ATOM      6  O   LIG    1       -4.319   2.098  -0.898  0.00  0.00    -0.540 OA
ATOM      7  C   LIG    1       -4.259   4.069  -3.788  0.00  0.00    +0.140 A 
ENDROOT
BRANCH   1   9
ATOM      8  C   LIG    1       -2.390   5.644  -5.546  0.00  0.00    +0.510 C 
ATOM      9  N   LIG    1       -2.811   5.957  -4.305  0.00  0.00    -0.670 N 
ATOM     10  H   LIG    1       -2.832   6.884  -4.019  0.00  0.00    +0.410 HD
ATOM     11  O   LIG    1       -2.280   4.482  -5.874  0.00  0.00    -0.510 OA
BRANCH   8  12
ATOM     12  C   LIG    1       -2.056   6.739  -6.527  0.00  0.00    +0.120 C 
BRANCH  12  16
ATOM     13  C   LIG    1       -0.804   5.003 -10.226  0.00  0.00    +0.130 A 
ATOM     14  C   LIG    1       -2.145   5.287 -10.010  0.00  0.00    -0.020 A 
ATOM     15  C   LIG    1       -2.547   5.848  -8.814  0.00  0.00    +0.070 A 
ATOM     16  C   LIG    1       -1.615   6.127  -7.831  0.00  0.00    -0.110 A 
ATOM     17  C   LIG    1       -0.277   5.850  -8.046  0.00  0.00    +0.060 A 
ATOM     18  C   LIG    1        0.130   5.284  -9.239  0.00  0.00    -0.080 A 
BRANCH  13  20
ATOM     19  C   LIG    1        0.990   4.188 -11.556  0.00  0.00    +0.250 C 
ATOM     20  O   LIG    1       -0.406   4.452 -11.403  0.00  0.00    -0.320 OA
ENDBRANCH  13  20
ENDBRANCH  12  16
ENDBRANCH   8  12
ENDBRANCH   1   9
BRANCH   3  21
ATOM     21  C   LIG    1       -2.318   3.687  -0.065  0.00  0.00    +0.340 C 
BRANCH  21  22
ATOM     22  C   LIG    1       -1.235   2.645  -0.167  0.00  0.00    -0.110 A 
ATOM     23  C   LIG    1       -1.466   1.361   0.290  0.00  0.00    +0.070 A 
ATOM     24  C   LIG    1       -0.472   0.405   0.195  0.00  0.00    +0.010 A 
ATOM     25  C   LIG    1        0.752   0.731  -0.357  0.00  0.00    +0.040 A 
ATOM     26  C   LIG    1        0.984   2.015  -0.815  0.00  0.00    +0.030 A 
ATOM     27  C   LIG    1       -0.007   2.974  -0.715  0.00  0.00    -0.020 A 
ATOM     28 CL   LIG    1        0.286   4.588  -1.282  0.00  0.00    -0.070 Cl
ENDBRANCH  21  22
ENDBRANCH   3  21
TORSDOF 6
