REMARK  Name = ZINCrD00000l7Dz2.0
REMARK                            x       y       z     vdW  Elec       q    Type
REMARK                         _______ _______ _______ _____ _____    ______ ____
ROOT
ATOM      1  N   LIG    1       -0.265   2.139  -1.251  0.00  0.00    -0.600 N 
ATOM      2  C   LIG    1       -0.971   3.286  -1.276  0.00  0.00    +0.570 C 
ATOM      3  O   LIG    1       -1.367   3.780  -0.235  0.00  0.00    -0.520 OA
ENDROOT
BRANCH   1   4
ATOM      4  C   LIG    1        0.027   1.485   0.028  0.00  0.00    +0.250 C 
ATOM      5  C   LIG    1       -1.283   1.209   0.769  0.00  0.00    +0.060 C 
BRANCH   4   6
ATOM      6  C   LIG    1        0.898   2.386   0.865  0.00  0.00    +0.500 C 
ATOM      7  N   LIG    1        1.543   1.890   1.940  0.00  0.00    -0.680 N 
ATOM      8  H   LIG    1        1.501   0.941   2.136  0.00  0.00    +0.410 HD
ATOM      9  O   LIG    1        1.018   3.557   0.572  0.00  0.00    -0.490 OA
BRANCH   7  10
ATOM     10  C   LIG    1        2.274   2.745   2.773  0.00  0.00    +0.150 A 
ATOM     11  C   LIG    1        2.959   3.825   2.232  0.00  0.00    +0.020 A 
ATOM     12  C   LIG    1        3.676   4.669   3.057  0.00  0.00    +0.020 A 
ATOM     13  C   LIG    1        3.720   4.434   4.419  0.00  0.00    -0.020 A 
ATOM     14  C   LIG    1        3.042   3.357   4.960  0.00  0.00    +0.030 A 
ATOM     15  C   LIG    1        2.320   2.511   4.141  0.00  0.00    -0.030 A 
ENDBRANCH   7  10
ENDBRANCH   4   6
ENDBRANCH   1   4
BRANCH   2  16
ATOM     16  C   LIG    1       -1.253   3.919  -2.513  0.00  0.00    -0.100 C 
ATOM     17  C   LIG    1       -1.960   5.069  -2.538  0.00  0.00    +0.180 C 
BRANCH  17  18
ATOM     18  C   LIG    1       -2.252   5.724  -3.821  0.00  0.00    -0.240 A 
ATOM     19  C   LIG    1       -3.490   6.158  -4.258  0.00  0.00    +0.110 A 
ATOM     20  N   LIG    1       -3.318   6.700  -5.476  0.00  0.00    -0.360 N 
ATOM     21  N   LIG    1       -1.965   6.602  -5.818  0.00  0.00    -0.300 NA
ATOM     22  C   LIG    1       -4.371   7.289  -6.307  0.00  0.00    +0.360 C 
ATOM     23  C   LIG    1       -4.792   6.046  -3.507  0.00  0.00    +0.150 C 
ATOM     24  C   LIG    1       -1.321   6.024  -4.842  0.00  0.00    +0.100 A 
ATOM     25  C   LIG    1        0.156   5.726  -4.809  0.00  0.00    +0.160 C 
ENDBRANCH  17  18
ENDBRANCH   2  16
BRANCH   1  26
ATOM     26  C   LIG    1        0.212   1.544  -2.502  0.00  0.00    +0.270 C 
BRANCH  26  28
ATOM     27  C   LIG    1       -0.361  -0.032  -4.354  0.00  0.00    +0.030 C 
ATOM     28  C   LIG    1       -0.895   0.680  -3.110  0.00  0.00    +0.000 C 
ENDBRANCH  26  28
ENDBRANCH   1  26
TORSDOF 7
