REMARK  Name = ZINCrH000004s3Xw.0
REMARK                            x       y       z     vdW  Elec       q    Type
REMARK                         _______ _______ _______ _____ _____    ______ ____
ROOT
ATOM      1  C   LIG    1       -2.468   1.167   0.064  0.00  0.00    +0.260 C 
ATOM      2  C   LIG    1       -3.935   1.394  -0.301  0.00  0.00    +0.090 C 
ATOM      3  C   LIG    1       -4.143   2.781  -0.848  0.00  0.00    -0.070 A 
ATOM      4  C   LIG    1       -5.434   3.295  -0.827  0.00  0.00    +0.010 A 
ATOM      5  C   LIG    1       -5.695   4.556  -1.321  0.00  0.00    +0.020 A 
ATOM      6  C   LIG    1       -4.666   5.317  -1.844  0.00  0.00    +0.010 A 
ATOM      7  C   LIG    1       -3.383   4.811  -1.863  0.00  0.00    +0.020 A 
ATOM      8  C   LIG    1       -3.118   3.544  -1.361  0.00  0.00    -0.090 A 
ATOM      9  C   LIG    1       -1.684   3.063  -1.384  0.00  0.00    +0.350 C 
ATOM     10  N   LIG    1       -1.644   1.631  -1.065  0.00  0.00    -0.600 N 
ATOM     11  C   LIG    1       -0.880   0.777  -1.773  0.00  0.00    +0.600 C 
ATOM     12  O   LIG    1       -0.937  -0.418  -1.550  0.00  0.00    -0.480 OA
ENDROOT
BRANCH  11  13
ATOM     13  C   LIG    1        0.016   1.286  -2.816  0.00  0.00    -0.080 A 
ATOM     14  C   LIG    1        0.901   0.545  -3.546  0.00  0.00    +0.050 A 
ATOM     15  C   LIG    1        1.544   1.432  -4.423  0.00  0.00    -0.060 A 
ATOM     16  C   LIG    1        1.035   2.662  -4.188  0.00  0.00    +0.200 A 
ATOM     17  O   LIG    1        0.116   2.570  -3.219  0.00  0.00    -0.160 OA
ENDBRANCH  11  13
BRANCH   1  20
ATOM     18  N   LIG    1       -3.264  -1.154   0.376  0.00  0.00    -0.670 N 
ATOM     19  H   LIG    1       -4.172  -0.815   0.352  0.00  0.00    +0.410 HD
ATOM     20  C   LIG    1       -2.224  -0.300   0.304  0.00  0.00    +0.520 C 
ATOM     21  O   LIG    1       -1.090  -0.713   0.433  0.00  0.00    -0.480 OA
BRANCH  18  28
ATOM     22  C   LIG    1       -5.299  -2.769   1.537  0.00  0.00    +0.090 C 
ATOM     23  C   LIG    1       -4.000  -3.355   1.046  0.00  0.00    -0.120 A 
ATOM     24  C   LIG    1       -3.769  -4.712   1.153  0.00  0.00    +0.020 A 
ATOM     25  C   LIG    1       -2.578  -5.250   0.702  0.00  0.00    -0.020 A 
ATOM     26  C   LIG    1       -1.613  -4.431   0.144  0.00  0.00    +0.010 A 
ATOM     27  C   LIG    1       -1.840  -3.074   0.029  0.00  0.00    +0.040 A 
ATOM     28  C   LIG    1       -3.033  -2.530   0.485  0.00  0.00    +0.150 A 
ENDBRANCH  18  28
ENDBRANCH   1  20
TORSDOF 3
