REMARK  Name = ZINCpk000000mTsd.0
REMARK                            x       y       z     vdW  Elec       q    Type
REMARK                         _______ _______ _______ _____ _____    ______ ____
ROOT
ATOM      1  C   LIG    1       -0.014   1.200   0.012  0.00  0.00    +0.510 C 
ATOM      2  N   LIG    1        1.146   1.886   0.007  0.00  0.00    -0.720 N 
ATOM      3  H   LIG    1        1.136   2.856   0.012  0.00  0.00    +0.410 HD
ATOM      4  O   LIG    1       -0.002  -0.013   0.005  0.00  0.00    -0.510 OA
ENDROOT
BRANCH   1  15
ATOM      5  C   LIG    1       -1.492   0.734  -2.661  0.00  0.00    +0.110 C 
ATOM      6  C   LIG    1       -2.503   0.434  -1.584  0.00  0.00    +0.530 C 
ATOM      7  N   LIG    1       -2.416   1.049  -0.388  0.00  0.00    -0.540 N 
ATOM      8  C   LIG    1       -3.350   0.931   0.648  0.00  0.00    +0.150 A 
ATOM      9  C   LIG    1       -4.533   0.190   0.692  0.00  0.00    +0.010 A 
ATOM     10  C   LIG    1       -5.325   0.211   1.821  0.00  0.00    +0.040 A 
ATOM     11  C   LIG    1       -4.952   0.965   2.918  0.00  0.00    -0.010 A 
ATOM     12  C   LIG    1       -3.782   1.701   2.882  0.00  0.00    +0.050 A 
ATOM     13  C   LIG    1       -2.986   1.684   1.753  0.00  0.00    -0.140 A 
ATOM     14  C   LIG    1       -1.680   2.383   1.450  0.00  0.00    +0.130 C 
ATOM     15  C   LIG    1       -1.327   1.940   0.021  0.00  0.00    +0.240 C 
ATOM     16  O   LIG    1       -3.396  -0.360  -1.794  0.00  0.00    -0.510 OA
ENDBRANCH   1  15
BRANCH   2  17
ATOM     17  C   LIG    1        2.422   1.166  -0.008  0.00  0.00    +0.420 C 
BRANCH  17  18
ATOM     18  C   LIG    1        3.558   2.157  -0.011  0.00  0.00    +0.280 A 
ATOM     19  N   LIG    1        4.071   2.734  -1.068  0.00  0.00    -0.480 NA
ATOM     20  C   LIG    1        5.056   3.553  -0.702  0.00  0.00    +0.150 A 
ATOM     21  N   LIG    1        5.190   3.502   0.597  0.00  0.00    -0.230 NA
ATOM     22  N   LIG    1        4.223   2.599   1.070  0.00  0.00    -0.450 N 
ATOM     23  H   LIG    1        4.068   2.344   1.993  0.00  0.00    +0.450 HD
BRANCH  20  24
ATOM     24  C   LIG    1        5.886   4.395  -1.635  0.00  0.00    +0.580 C 
ATOM     25  F   LIG    1        5.133   5.492  -2.068  0.00  0.00    -0.160 F 
ATOM     26  F   LIG    1        6.269   3.628  -2.741  0.00  0.00    -0.150 F 
ATOM     27  F   LIG    1        7.027   4.849  -0.965  0.00  0.00    -0.160 F 
ENDBRANCH  20  24
ENDBRANCH  17  18
ENDBRANCH   2  17
TORSDOF 4
