REMARK  Name = ZINCAx0000000i0A.0
REMARK                            x       y       z     vdW  Elec       q    Type
REMARK                         _______ _______ _______ _____ _____    ______ ____
ROOT
ATOM      1  N   LIG    1       -1.659  -0.202  -2.585  0.00  0.00    -0.620 N 
ATOM      2  H   LIG    1       -1.004  -0.906  -2.713  0.00  0.00    +0.420 HD
ATOM      3  C   LIG    1       -2.173   0.025  -1.360  0.00  0.00    +0.510 C 
ATOM      4  O   LIG    1       -2.992   0.905  -1.200  0.00  0.00    -0.470 OA
ENDROOT
BRANCH   1   6
ATOM      5  C   LIG    1       -1.600   0.425  -4.949  0.00  0.00    -0.200 A 
ATOM      6  C   LIG    1       -2.064   0.568  -3.658  0.00  0.00    +0.040 A 
ATOM      7  S   LIG    1       -3.204   1.834  -3.572  0.00  0.00    +0.380 S 
ATOM      8  C   LIG    1       -3.054   2.164  -5.290  0.00  0.00    -0.340 A 
ATOM      9  C   LIG    1       -2.165   1.319  -5.849  0.00  0.00    +0.050 A 
ATOM     10  C   LIG    1       -1.812   1.345  -7.314  0.00  0.00    +0.130 C 
BRANCH   8  11
ATOM     11  C   LIG    1       -3.789   3.206  -6.011  0.00  0.00    +0.600 C 
ATOM     12  N   LIG    1       -4.562   4.077  -5.334  0.00  0.00    -0.620 N 
ATOM     13  C   LIG    1       -4.563   4.070  -3.869  0.00  0.00    +0.310 C 
ATOM     14  C   LIG    1       -5.403   5.031  -6.062  0.00  0.00    +0.300 C 
ATOM     15  O   LIG    1       -3.701   3.285  -7.223  0.00  0.00    -0.520 OA
ENDBRANCH   8  11
BRANCH   5  16
ATOM     16  C   LIG    1       -0.604  -0.580  -5.335  0.00  0.00    +0.530 C 
ATOM     17  O   LIG    1       -0.963  -1.684  -5.698  0.00  0.00    -0.490 OA
BRANCH  16  18
ATOM     18  O   LIG    1        0.710  -0.280  -5.289  0.00  0.00    -0.350 OA
BRANCH  18  20
ATOM     19  C   LIG    1        3.072  -0.801  -5.569  0.00  0.00    +0.070 C 
ATOM     20  C   LIG    1        1.639  -1.323  -5.686  0.00  0.00    +0.200 C 
ENDBRANCH  18  20
ENDBRANCH  16  18
ENDBRANCH   5  16
ENDBRANCH   1   6
BRANCH   3  21
ATOM     21  C   LIG    1       -1.731  -0.815  -0.189  0.00  0.00    +0.290 C 
BRANCH  21  22
ATOM     22  O   LIG    1       -2.425  -0.378   1.009  0.00  0.00    -0.320 OA
BRANCH  22  23
ATOM     23  C   LIG    1       -2.142  -1.029   2.149  0.00  0.00    +0.480 C 
ATOM     24  O   LIG    1       -1.341  -1.933   2.145  0.00  0.00    -0.490 OA
BRANCH  23  25
ATOM     25  C   LIG    1       -2.822  -0.630   3.433  0.00  0.00    +0.050 C 
ATOM     26  C   LIG    1       -4.354  -0.818   3.329  0.00  0.00    +0.110 C 
ATOM     27  C   LIG    1       -4.762  -1.305   4.701  0.00  0.00    +0.520 C 
ATOM     28  N   LIG    1       -3.684  -1.736   5.378  0.00  0.00    -0.560 N 
ATOM     29  O   LIG    1       -5.897  -1.308   5.128  0.00  0.00    -0.500 OA
ATOM     30  C   LIG    1       -2.463  -1.607   4.575  0.00  0.00    +0.310 C 
BRANCH  28  31
ATOM     31  C   LIG    1       -3.721  -2.242   6.682  0.00  0.00    +0.160 A 
ATOM     32  C   LIG    1       -4.907  -2.217   7.405  0.00  0.00    +0.000 A 
ATOM     33  C   LIG    1       -4.941  -2.722   8.690  0.00  0.00    +0.040 A 
ATOM     34  C   LIG    1       -3.795  -3.244   9.261  0.00  0.00    -0.110 A 
ATOM     35  C   LIG    1       -2.611  -3.265   8.546  0.00  0.00    +0.040 A 
ATOM     36  C   LIG    1       -3.835  -3.789  10.665  0.00  0.00    +0.100 C 
ATOM     37  C   LIG    1       -2.571  -2.766   7.259  0.00  0.00    -0.020 A 
ENDBRANCH  28  31
ENDBRANCH  23  25
ENDBRANCH  22  23
ENDBRANCH  21  22
ENDBRANCH   3  21
TORSDOF 10
