REMARK  Name = ZINCpk000000pRF6.0
REMARK                            x       y       z     vdW  Elec       q    Type
REMARK                         _______ _______ _______ _____ _____    ______ ____
ROOT
ATOM      1  C   LIG    1       -2.446   1.994  -0.136  0.00  0.00    +0.260 C 
ATOM      2  C   LIG    1       -1.182   2.010  -0.967  0.00  0.00    +0.510 C 
ATOM      3  N   LIG    1       -0.929   3.065  -1.758  0.00  0.00    -0.720 N 
ATOM      4  H   LIG    1       -0.144   3.063  -2.328  0.00  0.00    +0.400 HD
ATOM      5  C   LIG    1       -1.832   4.221  -1.765  0.00  0.00    +0.270 C 
ATOM      6  C   LIG    1       -1.678   4.984  -0.447  0.00  0.00    +0.020 C 
ATOM      7  C   LIG    1       -2.633   4.422   0.600  0.00  0.00    +0.270 C 
ATOM      8  O   LIG    1       -0.407   1.078  -0.923  0.00  0.00    -0.530 OA
ATOM      9  N   LIG    1       -2.330   3.026   0.907  0.00  0.00    -0.600 N 
ATOM     10  C   LIG    1       -1.945   2.683   2.152  0.00  0.00    +0.580 C 
ATOM     11  O   LIG    1       -1.791   1.512   2.439  0.00  0.00    -0.500 OA
ENDROOT
BRANCH  10  12
ATOM     12  C   LIG    1       -1.709   3.730   3.169  0.00  0.00    -0.250 A 
ATOM     13  C   LIG    1       -0.826   4.787   2.921  0.00  0.00    +0.360 A 
ATOM     14  N   LIG    1       -0.649   5.705   3.856  0.00  0.00    -0.510 NA
ATOM     15  C   LIG    1       -1.282   5.628   5.010  0.00  0.00    +0.350 A 
ATOM     16  N   LIG    1       -2.118   4.646   5.287  0.00  0.00    -0.510 NA
ATOM     17  C   LIG    1       -2.358   3.689   4.408  0.00  0.00    +0.230 A 
ATOM     18  C   LIG    1       -3.314   2.571   4.735  0.00  0.00    +0.160 C 
BRANCH  15  19
ATOM     19  C   LIG    1       -1.041   6.695   6.046  0.00  0.00    +0.080 C 
ATOM     20  C   LIG    1       -1.440   8.060   5.477  0.00  0.00    +0.020 C 
ATOM     21  C   LIG    1       -1.117   9.147   6.506  0.00  0.00    +0.210 C 
ATOM     22  O   LIG    1        0.274   9.097   6.832  0.00  0.00    -0.380 OA
ATOM     23  C   LIG    1        0.693   7.860   7.412  0.00  0.00    +0.210 C 
ATOM     24  C   LIG    1        0.444   6.722   6.419  0.00  0.00    +0.010 C 
ENDBRANCH  15  19
ENDBRANCH  10  12
BRANCH   1  26
ATOM     25  C   LIG    1       -4.880   1.556  -0.496  0.00  0.00    +0.030 C 
ATOM     26  C   LIG    1       -3.651   2.296  -1.029  0.00  0.00    +0.020 C 
ENDBRANCH   1  26
TORSDOF 3
