REMARK  Name = ZINCrH000004u7Jn.0
REMARK                            x       y       z     vdW  Elec       q    Type
REMARK                         _______ _______ _______ _____ _____    ______ ____
ROOT
ATOM      1  C   LIG    1        2.331   0.917   0.654  0.00  0.00    +0.570 C 
ATOM      2  N   LIG    1        1.363   1.588  -0.002  0.00  0.00    -0.710 N 
ATOM      3  H   LIG    1        1.579   2.403  -0.482  0.00  0.00    +0.400 HD
ATOM      4  O   LIG    1        2.061  -0.105   1.255  0.00  0.00    -0.530 OA
ENDROOT
BRANCH   2   5
ATOM      5  C   LIG    1       -0.013   1.086   0.008  0.00  0.00    +0.350 C 
ATOM      6  C   LIG    1       -0.707   1.566   1.254  0.00  0.00    -0.170 A 
ATOM      7  C   LIG    1       -0.449   0.938   2.459  0.00  0.00    +0.070 A 
ATOM      8  C   LIG    1       -1.076   1.364   3.614  0.00  0.00    -0.010 A 
ATOM      9  C   LIG    1       -1.965   2.422   3.568  0.00  0.00    +0.050 A 
ATOM     10  C   LIG    1       -2.226   3.052   2.370  0.00  0.00    +0.000 A 
ATOM     11  C   LIG    1       -1.598   2.625   1.206  0.00  0.00    +0.120 A 
ATOM     12  O   LIG    1       -1.869   3.256   0.038  0.00  0.00    -0.240 OA
ATOM     13  C   LIG    1       -1.621   2.638  -1.141  0.00  0.00    +0.130 A 
ATOM     14  C   LIG    1       -2.273   3.076  -2.288  0.00  0.00    +0.000 A 
ATOM     15  C   LIG    1       -2.032   2.460  -3.500  0.00  0.00    +0.070 A 
ATOM     16  C   LIG    1       -1.143   1.405  -3.574  0.00  0.00    -0.010 A 
ATOM     17  C   LIG    1       -0.494   0.965  -2.436  0.00  0.00    +0.070 A 
ATOM     18  C   LIG    1       -0.731   1.579  -1.219  0.00  0.00    -0.170 A 
ENDBRANCH   2   5
BRANCH   1  26
ATOM     19  O   LIG    1        9.324   1.481   1.896  0.00  0.00    -0.480 OA
ATOM     20  C   LIG    1        8.165   1.602   1.550  0.00  0.00    +0.640 A 
ATOM     21  N   LIG    1        7.681   2.603   0.789  0.00  0.00    -0.650 N 
ATOM     22  H   LIG    1        8.190   3.344   0.426  0.00  0.00    +0.450 HD
ATOM     23  C   LIG    1        6.318   2.381   0.619  0.00  0.00    +0.100 A 
ATOM     24  C   LIG    1        5.321   3.071  -0.058  0.00  0.00    +0.040 A 
ATOM     25  C   LIG    1        4.028   2.598  -0.047  0.00  0.00    +0.080 A 
ATOM     26  C   LIG    1        3.717   1.423   0.644  0.00  0.00    -0.130 A 
ATOM     27  C   LIG    1        4.718   0.731   1.329  0.00  0.00    +0.150 A 
ATOM     28  C   LIG    1        6.016   1.206   1.312  0.00  0.00    +0.030 A 
ATOM     29  O   LIG    1        7.169   0.759   1.867  0.00  0.00    -0.230 OA
ENDBRANCH   1  26
TORSDOF 2
