REMARK  Name = ZINCrH000004pVC5.1
REMARK                            x       y       z     vdW  Elec       q    Type
REMARK                         _______ _______ _______ _____ _____    ______ ____
ROOT
ATOM      1  C   LIG    1       -1.167   2.147   0.005  0.00  0.00    +0.560 C 
ATOM      2  N   LIG    1       -0.002   1.471   0.036  0.00  0.00    -0.720 N 
ATOM      3  H   LIG    1        0.836   1.951   0.134  0.00  0.00    +0.400 HD
ATOM      4  O   LIG    1       -2.216   1.546  -0.123  0.00  0.00    -0.530 OA
ENDROOT
BRANCH   1  11
ATOM      5  C   LIG    1       -3.036  10.027  -0.207  0.00  0.00    +0.120 C 
ATOM      6  C   LIG    1       -2.635   8.580  -0.505  0.00  0.00    +0.030 C 
ATOM      7  S   LIG    1       -1.176   8.137   0.483  0.00  0.00    -0.070 S 
ATOM      8  C   LIG    1       -1.170   6.377   0.349  0.00  0.00    -0.110 A 
ATOM      9  C   LIG    1        0.031   5.681   0.383  0.00  0.00    +0.090 A 
ATOM     10  C   LIG    1        0.037   4.308   0.272  0.00  0.00    +0.050 A 
ATOM     11  C   LIG    1       -1.169   3.617   0.125  0.00  0.00    -0.100 A 
ATOM     12  C   LIG    1       -2.377   4.318   0.087  0.00  0.00    +0.070 A 
ATOM     13  C   LIG    1       -2.385   5.698   0.205  0.00  0.00    +0.150 A 
ATOM     14  N   LIG    1       -3.600   6.378   0.174  0.00  0.00    -0.660 N 
ATOM     15  H   LIG    1       -4.395   5.873   0.405  0.00  0.00    +0.420 HD
ATOM     16  C   LIG    1       -3.768   7.660  -0.144  0.00  0.00    +0.520 C 
ATOM     17  O   LIG    1       -4.895   8.110  -0.141  0.00  0.00    -0.500 OA
ENDBRANCH   1  11
BRANCH   2  18
ATOM     18  C   LIG    1        0.001   0.011  -0.084  0.00  0.00    +0.290 C 
BRANCH  18  19
ATOM     19  C   LIG    1        1.445  -0.494  -0.140  0.00  0.00    +0.210 C 
BRANCH  19  20
ATOM     20  N   LIG    1        1.448  -1.942  -0.388  0.00  0.00    -0.510 NA
ATOM     21  C   LIG    1        0.763  -2.264  -1.666  0.00  0.00    +0.170 C 
ATOM     22  C   LIG    1        1.307  -3.672  -2.014  0.00  0.00    +0.030 C 
ATOM     23  C   LIG    1        2.784  -3.593  -1.564  0.00  0.00    +0.010 C 
ATOM     24  C   LIG    1        2.829  -2.452  -0.531  0.00  0.00    +0.170 C 
ENDBRANCH  19  20
BRANCH  19  25
ATOM     25  C   LIG    1        2.128  -0.207   1.172  0.00  0.00    -0.180 A 
ATOM     26  C   LIG    1        2.959   0.811   1.400  0.00  0.00    +0.000 A 
ATOM     27  C   LIG    1        3.466   0.874   2.686  0.00  0.00    +0.000 A 
ATOM     28  C   LIG    1        3.053  -0.098   3.501  0.00  0.00    -0.060 A 
ATOM     29  S   LIG    1        1.959  -1.169   2.635  0.00  0.00    +0.160 S 
ENDBRANCH  19  25
ENDBRANCH  18  19
ENDBRANCH   2  18
TORSDOF 5
