REMARK  Name = ZINCrH000004k3KW.0
REMARK                            x       y       z     vdW  Elec       q    Type
REMARK                         _______ _______ _______ _____ _____    ______ ____
ROOT
ATOM      1  N   LIG    1        2.584  -0.559  -1.264  0.00  0.00    -0.740 N 
ATOM      2  H   LIG    1        1.916  -0.727  -1.946  0.00  0.00    +0.400 HD
ENDROOT
BRANCH   1   3
ATOM      3  C   LIG    1        3.939  -0.540  -1.603  0.00  0.00    +0.220 A 
ATOM      4  C   LIG    1        4.898  -0.299  -0.627  0.00  0.00    -0.070 A 
ATOM      5  C   LIG    1        6.238  -0.281  -0.962  0.00  0.00    +0.070 A 
ATOM      6  C   LIG    1        6.630  -0.503  -2.268  0.00  0.00    -0.050 A 
ATOM      7  C   LIG    1        5.676  -0.745  -3.249  0.00  0.00    +0.180 A 
ATOM      8  C   LIG    1        4.330  -0.768  -2.916  0.00  0.00    -0.060 A 
BRANCH   7   9
ATOM      9  N   LIG    1        6.074  -0.970  -4.571  0.00  0.00    -0.570 N 
ATOM     10  C   LIG    1        6.176   0.181  -5.460  0.00  0.00    +0.260 C 
ATOM     11  C   LIG    1        7.047  -0.154  -6.671  0.00  0.00    +0.020 C 
ATOM     12  C   LIG    1        6.542  -1.461  -7.293  0.00  0.00    +0.020 C 
ATOM     13  C   LIG    1        6.818  -2.602  -6.311  0.00  0.00    +0.070 C 
ATOM     14  C   LIG    1        6.342  -2.224  -4.939  0.00  0.00    +0.520 C 
ATOM     15  O   LIG    1        6.187  -3.107  -4.122  0.00  0.00    -0.540 OA
ENDBRANCH   7   9
ENDBRANCH   1   3
BRANCH   1  16
ATOM     16  C   LIG    1        2.173  -0.324   0.122  0.00  0.00    +0.310 C 
BRANCH  16  24
ATOM     17  C   LIG    1       -4.301   0.473  -0.078  0.00  0.00    +0.310 C 
ATOM     18  N   LIG    1       -3.480  -0.599   0.491  0.00  0.00    -0.560 N 
ATOM     19  C   LIG    1       -4.072  -1.644   1.098  0.00  0.00    +0.520 C 
ATOM     20  C   LIG    1       -3.249  -2.747   1.707  0.00  0.00    +0.070 C 
ATOM     21  C   LIG    1       -1.997  -2.990   0.864  0.00  0.00    +0.090 C 
ATOM     22  C   LIG    1       -1.322  -1.675   0.569  0.00  0.00    -0.130 A 
ATOM     23  C   LIG    1        0.054  -1.606   0.485  0.00  0.00    +0.070 A 
ATOM     24  C   LIG    1        0.671  -0.396   0.220  0.00  0.00    -0.130 A 
ATOM     25  C   LIG    1       -0.087   0.746   0.044  0.00  0.00    +0.060 A 
ATOM     26  C   LIG    1       -1.465   0.684   0.134  0.00  0.00    -0.030 A 
ATOM     27  O   LIG    1       -5.282  -1.697   1.155  0.00  0.00    -0.520 OA
ATOM     28  C   LIG    1       -2.086  -0.528   0.399  0.00  0.00    +0.170 A 
ENDBRANCH  16  24
ENDBRANCH   1  16
TORSDOF 4
