REMARK  Name = ZINCqH0000050TSf.0
REMARK                            x       y       z     vdW  Elec       q    Type
REMARK                         _______ _______ _______ _____ _____    ______ ____
ROOT
ATOM      1  C   LIG    1       -1.012   2.324   0.007  0.00  0.00    +0.240 A 
ATOM      2  N   LIG    1       -0.438   3.512   0.015  0.00  0.00    -0.240 NA
ATOM      3  N   LIG    1        0.843   3.384   0.010  0.00  0.00    -0.240 NA
ATOM      4  C   LIG    1        1.160   2.097   0.002  0.00  0.00    +0.130 A 
ATOM      5  C   LIG    1        2.382   1.399  -0.006  0.00  0.00    +0.190 A 
ATOM      6  C   LIG    1        2.368   0.039  -0.013  0.00  0.00    -0.020 A 
ATOM      7  C   LIG    1        1.142  -0.655  -0.012  0.00  0.00    +0.420 A 
ATOM      8  N   LIG    1        0.002  -0.004  -0.004  0.00  0.00    -0.340 NA
ATOM      9  N   LIG    1       -0.017   1.392   0.003  0.00  0.00    -0.260 N 
ENDROOT
BRANCH   7  10
ATOM     10  N   LIG    1        1.140  -2.045  -0.020  0.00  0.00    -0.570 N 
ATOM     11  C   LIG    1       -0.154  -2.744   0.108  0.00  0.00    +0.270 C 
ATOM     12  C   LIG    1       -0.242  -3.946  -0.859  0.00  0.00    +0.210 C 
ATOM     13  O   LIG    1        0.322  -3.634  -2.107  0.00  0.00    -0.360 OA
ATOM     14  C   LIG    1        1.691  -4.028  -2.229  0.00  0.00    +0.250 C 
ATOM     15  C   LIG    1        2.636  -3.044  -1.652  0.00  0.00    -0.190 C 
ATOM     16  C   LIG    1        4.092  -3.001  -2.126  0.00  0.00    +0.050 C 
ATOM     17  C   LIG    1        3.134  -1.869  -2.501  0.00  0.00    +0.040 C 
ATOM     18  C   LIG    1        2.406  -2.732  -0.147  0.00  0.00    +0.330 C 
ENDBRANCH   7  10
BRANCH   1  24
ATOM     19 CL   LIG    1       -4.891  -1.050  -0.712  0.00  0.00    -0.050 Cl
ATOM     20  C   LIG    1       -4.299   0.533  -0.317  0.00  0.00    -0.030 A 
ATOM     21  C   LIG    1       -5.189   1.545  -0.002  0.00  0.00    +0.060 A 
ATOM     22  C   LIG    1       -4.724   2.810   0.315  0.00  0.00    -0.030 A 
ATOM     23  C   LIG    1       -3.368   3.069   0.320  0.00  0.00    +0.100 A 
ATOM     24  C   LIG    1       -2.465   2.053   0.004  0.00  0.00    +0.010 A 
ATOM     25 CL   LIG    1       -5.849   4.073   0.709  0.00  0.00    -0.040 Cl
ATOM     26  C   LIG    1       -2.940   0.781  -0.321  0.00  0.00    +0.070 A 
ENDBRANCH   1  24
TORSDOF 2
