REMARK  Name = ZINCnE000001SxGG.1
REMARK                            x       y       z     vdW  Elec       q    Type
REMARK                         _______ _______ _______ _____ _____    ______ ____
ROOT
ATOM      1  O   LIG    1       -0.227   0.291  -2.328  0.00  0.00    -0.590 OA
ATOM      2  C   LIG    1       -0.128  -0.500  -1.415  0.00  0.00    +0.430 C 
ATOM      3  N   LIG    1       -0.134  -1.824  -1.667  0.00  0.00    -0.660 NA
ENDROOT
BRANCH   3   4
ATOM      4  C   LIG    1       -0.253  -2.282  -2.974  0.00  0.00    +0.350 A 
ATOM      5  N   LIG    1       -0.265  -3.528  -3.325  0.00  0.00    -0.560 NA
ATOM      6  C   LIG    1       -0.391  -3.800  -4.615  0.00  0.00    +0.110 A 
ATOM      7  C   LIG    1       -0.480  -2.699  -5.386  0.00  0.00    -0.400 A 
ATOM      8  C   LIG    1       -0.624  -2.724  -6.888  0.00  0.00    +0.300 C 
ATOM      9  O   LIG    1       -0.305  -4.044  -7.346  0.00  0.00    -0.380 OA
ATOM     10  C   LIG    1       -0.993  -5.081  -6.641  0.00  0.00    +0.210 C 
ATOM     11  C   LIG    1       -0.431  -5.197  -5.219  0.00  0.00    +0.090 C 
ATOM     12  S   LIG    1       -0.400  -1.281  -4.353  0.00  0.00    +0.060 S 
ENDBRANCH   3   4
BRANCH   2  13
ATOM     13  C   LIG    1        0.002  -0.004   0.002  0.00  0.00    +0.330 C 
BRANCH  13  14
ATOM     14  N   LIG    1       -0.018   1.461   0.010  0.00  0.00    -0.460 N 
ATOM     15  C   LIG    1        1.092   2.262   0.004  0.00  0.00    +0.240 A 
ATOM     16  C   LIG    1        0.724   3.553   0.014  0.00  0.00    -0.070 A 
ATOM     17  C   LIG    1       -0.741   3.581   0.028  0.00  0.00    -0.110 A 
ATOM     18  C   LIG    1       -1.692   4.603   0.043  0.00  0.00    +0.070 A 
ATOM     19  C   LIG    1       -3.022   4.293   0.054  0.00  0.00    -0.010 A 
ATOM     20  C   LIG    1       -3.437   2.967   0.051  0.00  0.00    -0.020 A 
ATOM     21  C   LIG    1       -2.515   1.942   0.036  0.00  0.00    +0.020 A 
ATOM     22 CL   LIG    1       -5.133   2.597   0.065  0.00  0.00    -0.080 Cl
ATOM     23  C   LIG    1       -1.155   2.236   0.019  0.00  0.00    +0.120 A 
ENDBRANCH  13  14
ENDBRANCH   2  13
TORSDOF 3
