REMARK  Name = ZINCkj000005hyWm.1
REMARK                            x       y       z     vdW  Elec       q    Type
REMARK                         _______ _______ _______ _____ _____    ______ ____
ROOT
ATOM      1  C   LIG    1       -1.087  -0.458   0.850  0.00  0.00    +0.520 C 
ATOM      2  N   LIG    1       -2.321  -0.932   0.588  0.00  0.00    -0.690 N 
ATOM      3  H   LIG    1       -2.974  -1.003   1.302  0.00  0.00    +0.410 HD
ATOM      4  O   LIG    1       -0.316  -0.240  -0.061  0.00  0.00    -0.500 OA
ENDROOT
BRANCH   2   5
ATOM      5  C   LIG    1       -2.676  -1.340  -0.773  0.00  0.00    +0.230 C 
ATOM      6  C   LIG    1       -2.909  -0.158  -1.729  0.00  0.00    +0.080 C 
ATOM      7  C   LIG    1       -4.381  -0.189  -1.279  0.00  0.00    +0.040 C 
ATOM      8  C   LIG    1       -4.167  -1.675  -0.947  0.00  0.00    +0.060 C 
BRANCH   5   9
ATOM      9  C   LIG    1       -1.752  -2.393  -1.329  0.00  0.00    +0.170 A 
ATOM     10  N   LIG    1       -1.053  -2.307  -2.428  0.00  0.00    -0.260 NA
ATOM     11  N   LIG    1       -0.373  -3.386  -2.594  0.00  0.00    -0.290 NA
ATOM     12  C   LIG    1       -0.615  -4.213  -1.614  0.00  0.00    +0.390 A 
ATOM     13  N   LIG    1       -1.497  -3.606  -0.783  0.00  0.00    -0.580 N 
ATOM     14  H   LIG    1       -1.870  -3.967   0.037  0.00  0.00    +0.430 HD
ENDBRANCH   5   9
ENDBRANCH   2   5
BRANCH   1  15
ATOM     15  C   LIG    1       -0.664  -0.200   2.273  0.00  0.00    +0.170 C 
BRANCH  15  17
ATOM     16  C   LIG    1        1.133   0.540   3.679  0.00  0.00    +0.330 C 
ATOM     17  N   LIG    1        0.731   0.259   2.294  0.00  0.00    -0.520 N 
ATOM     18  H   LIG    1        0.818   1.099   1.742  0.00  0.00    +0.440 HD
ATOM     19  H   LIG    1        1.327  -0.459   1.910  0.00  0.00    +0.430 HD
ENDBRANCH  15  17
BRANCH  15  20
ATOM     20  C   LIG    1       -1.564   0.876   2.885  0.00  0.00    +0.090 C 
BRANCH  20  21
ATOM     21  C   LIG    1       -1.581   2.105   1.973  0.00  0.00    -0.080 C 
ATOM     22  C   LIG    1       -0.144   2.540   1.677  0.00  0.00    +0.040 C 
ATOM     23  C   LIG    1       -2.326   3.246   2.670  0.00  0.00    +0.050 C 
ATOM     24  C   LIG    1       -2.290   1.758   0.663  0.00  0.00    +0.040 C 
ENDBRANCH  20  21
ENDBRANCH  15  20
ENDBRANCH   1  15
TORSDOF 6
