REMARK  Name = ZINCkj000005hyWm.0
REMARK                            x       y       z     vdW  Elec       q    Type
REMARK                         _______ _______ _______ _____ _____    ______ ____
ROOT
ATOM      1  C   LIG    1       -0.150   1.265   1.280  0.00  0.00    +0.510 C 
ATOM      2  N   LIG    1       -0.043   0.213   2.115  0.00  0.00    -0.690 N 
ATOM      3  H   LIG    1       -0.150  -0.690   1.775  0.00  0.00    +0.410 HD
ATOM      4  O   LIG    1       -0.016   2.393   1.705  0.00  0.00    -0.460 OA
ENDROOT
BRANCH   2   5
ATOM      5  C   LIG    1        0.236   0.431   3.537  0.00  0.00    +0.240 C 
ATOM      6  C   LIG    1        1.723   0.679   3.842  0.00  0.00    +0.040 C 
ATOM      7  C   LIG    1        1.862  -0.847   3.995  0.00  0.00    +0.030 C 
ATOM      8  C   LIG    1        0.365  -0.870   4.346  0.00  0.00    +0.060 C 
BRANCH   5   9
ATOM      9  C   LIG    1       -0.686   1.444   4.165  0.00  0.00    +0.220 A 
ATOM     10  N   LIG    1       -1.292   1.309   5.315  0.00  0.00    -0.300 NA
ATOM     11  N   LIG    1       -2.044   2.478   5.517  0.00  0.00    -0.480 N 
ATOM     12  H   LIG    1       -2.604   2.684   6.282  0.00  0.00    +0.450 HD
ATOM     13  C   LIG    1       -1.836   3.253   4.439  0.00  0.00    +0.470 A 
ATOM     14  N   LIG    1       -1.020   2.620   3.635  0.00  0.00    -0.500 NA
ENDBRANCH   5   9
ENDBRANCH   2   5
BRANCH   1  15
ATOM     15  C   LIG    1       -0.437   1.040  -0.182  0.00  0.00    +0.160 C 
BRANCH  15  17
ATOM     16  C   LIG    1       -1.172   2.079  -2.216  0.00  0.00    +0.330 C 
ATOM     17  N   LIG    1       -0.853   2.306  -0.800  0.00  0.00    -0.510 N 
ATOM     18  H   LIG    1       -0.104   2.978  -0.728  0.00  0.00    +0.430 HD
ATOM     19  H   LIG    1       -1.670   2.660  -0.325  0.00  0.00    +0.430 HD
ENDBRANCH  15  17
BRANCH  15  20
ATOM     20  C   LIG    1        0.826   0.525  -0.876  0.00  0.00    +0.090 C 
BRANCH  20  21
ATOM     21  C   LIG    1        2.020   1.390  -0.471  0.00  0.00    -0.070 C 
ATOM     22  C   LIG    1        1.694   2.863  -0.731  0.00  0.00    +0.030 C 
ATOM     23  C   LIG    1        3.245   0.986  -1.293  0.00  0.00    +0.050 C 
ATOM     24  C   LIG    1        2.315   1.188   1.017  0.00  0.00    +0.040 C 
ENDBRANCH  20  21
ENDBRANCH  15  20
ENDBRANCH   1  15
TORSDOF 6
