REMARK  Name = ZINCpk00000KfL0k.0
REMARK                            x       y       z     vdW  Elec       q    Type
REMARK                         _______ _______ _______ _____ _____    ______ ____
ROOT
ATOM      1  C   LIG    1       -0.005  -4.356   0.135  0.00  0.00    +0.100 C 
ATOM      2  C   LIG    1       -0.143  -2.861   0.426  0.00  0.00    +0.160 C 
ATOM      3  C   LIG    1       -1.493  -2.379  -0.040  0.00  0.00    +0.520 C 
ATOM      4  N   LIG    1       -1.660  -1.117  -0.480  0.00  0.00    -0.660 N 
ATOM      5  H   LIG    1       -2.543  -0.814  -0.743  0.00  0.00    +0.420 HD
ATOM      6  C   LIG    1       -0.574  -0.238  -0.560  0.00  0.00    +0.140 A 
ATOM      7  C   LIG    1       -0.774   1.122  -0.728  0.00  0.00    +0.020 A 
ATOM      8  C   LIG    1        0.314   1.972  -0.814  0.00  0.00    +0.040 A 
ATOM      9  C   LIG    1        1.600   1.472  -0.734  0.00  0.00    +0.020 A 
ATOM     10  C   LIG    1        1.809   0.114  -0.565  0.00  0.00    +0.000 A 
ATOM     11  C   LIG    1        0.726  -0.741  -0.475  0.00  0.00    +0.110 A 
ATOM     12  O   LIG    1       -2.440  -3.136  -0.020  0.00  0.00    -0.500 OA
ATOM     13  C   LIG    1       -0.004  -2.615   1.930  0.00  0.00    +0.070 C 
ATOM     14  N   LIG    1        0.905  -2.121  -0.293  0.00  0.00    -0.550 N 
ATOM     15  C   LIG    1        2.002  -2.748  -0.761  0.00  0.00    +0.530 C 
ATOM     16  O   LIG    1        2.191  -3.917  -0.498  0.00  0.00    -0.490 OA
ENDROOT
BRANCH  15  17
ATOM     17  C   LIG    1        2.993  -1.997  -1.613  0.00  0.00    +0.220 C 
BRANCH  17  18
ATOM     18  N   LIG    1        3.834  -2.954  -2.344  0.00  0.00    -0.510 NA
ATOM     19  C   LIG    1        4.649  -2.271  -3.359  0.00  0.00    +0.250 C 
ATOM     20  C   LIG    1        5.434  -1.127  -2.705  0.00  0.00    +0.250 C 
ATOM     21  N   LIG    1        6.106  -1.653  -1.515  0.00  0.00    -0.460 N 
ATOM     22  C   LIG    1        7.130  -1.107  -0.805  0.00  0.00    +0.130 A 
ATOM     23  C   LIG    1        7.404  -1.964   0.201  0.00  0.00    +0.140 A 
ATOM     24  N   LIG    1        6.562  -3.006   0.102  0.00  0.00    -0.480 NA
ATOM     25  C   LIG    1        5.781  -2.828  -0.921  0.00  0.00    +0.170 A 
ATOM     26  C   LIG    1        4.677  -3.731  -1.419  0.00  0.00    +0.370 C 
ENDBRANCH  17  18
ENDBRANCH  15  17
TORSDOF 2
