REMARK  Name = ZINCkj000005knal.0
REMARK                            x       y       z     vdW  Elec       q    Type
REMARK                         _______ _______ _______ _____ _____    ______ ____
ROOT
ATOM      1  N   LIG    1        3.082   4.385   0.796  0.00  0.00    -0.710 N 
ATOM      2  H   LIG    1        2.528   3.961   1.470  0.00  0.00    +0.400 HD
ATOM      3  C   LIG    1        4.246   4.967   1.149  0.00  0.00    +0.510 C 
ATOM      4  O   LIG    1        4.939   5.497   0.306  0.00  0.00    -0.550 OA
ENDROOT
BRANCH   1   5
ATOM      5  C   LIG    1        2.654   4.395  -0.604  0.00  0.00    +0.350 C 
BRANCH   5  10
ATOM      6  C   LIG    1       -2.377   1.637  -1.098  0.00  0.00    +0.140 C 
ATOM      7  C   LIG    1       -1.064   2.364  -0.965  0.00  0.00    +0.190 A 
ATOM      8  C   LIG    1       -1.054   3.710  -0.828  0.00  0.00    -0.090 A 
ATOM      9  C   LIG    1        0.164   4.393  -0.710  0.00  0.00    +0.170 A 
ATOM     10  C   LIG    1        1.330   3.685  -0.729  0.00  0.00    -0.260 A 
ATOM     11  C   LIG    1        1.284   2.287  -0.868  0.00  0.00    +0.530 A 
ATOM     12  O   LIG    1        2.319   1.642  -0.887  0.00  0.00    -0.540 OA
ATOM     13  N   LIG    1        0.097   1.660  -0.979  0.00  0.00    -0.600 N 
ATOM     14  H   LIG    1        0.072   0.695  -1.075  0.00  0.00    +0.420 HD
ENDBRANCH   5  10
ENDBRANCH   1   5
BRANCH   3  15
ATOM     15  C   LIG    1        4.687   4.957   2.590  0.00  0.00    +0.090 C 
BRANCH  15  16
ATOM     16  C   LIG    1        6.031   5.677   2.717  0.00  0.00    +0.010 C 
BRANCH  16  17
ATOM     17  C   LIG    1        6.539   5.560   4.155  0.00  0.00    +0.010 C 
BRANCH  17  18
ATOM     18  C   LIG    1        6.854   4.096   4.467  0.00  0.00    -0.020 C 
ATOM     19  C   LIG    1        7.254   3.962   5.938  0.00  0.00    +0.030 C 
ATOM     20  C   LIG    1        8.007   3.622   3.580  0.00  0.00    +0.010 C 
ENDBRANCH  17  18
ENDBRANCH  16  17
BRANCH  16  21
ATOM     21  C   LIG    1        5.854   7.154   2.357  0.00  0.00    +0.270 C 
BRANCH  21  22
ATOM     22  N   LIG    1        7.164   7.819   2.362  0.00  0.00    -0.640 N 
ATOM     23  H   LIG    1        7.758   7.397   1.665  0.00  0.00    +0.440 HD
ATOM     24  H   LIG    1        7.589   7.719   3.272  0.00  0.00    +0.430 HD
ATOM     25  H   LIG    1        7.044   8.799   2.153  0.00  0.00    +0.440 HD
ENDBRANCH  21  22
ENDBRANCH  16  21
ENDBRANCH  15  16
ENDBRANCH   3  15
TORSDOF 8
