REMARK  Name = ZINCnE000001TCSj.0
REMARK                            x       y       z     vdW  Elec       q    Type
REMARK                         _______ _______ _______ _____ _____    ______ ____
ROOT
ATOM      1  C   LIG    1       -2.355   5.080   0.639  0.00  0.00    +0.040 C 
ATOM      2  C   LIG    1       -2.244   6.073   1.799  0.00  0.00    +0.020 C 
ATOM      3  C   LIG    1       -1.428   7.289   1.348  0.00  0.00    +0.270 C 
ATOM      4  N   LIG    1       -2.041   7.845   0.134  0.00  0.00    -0.600 N 
ATOM      5  C   LIG    1       -2.277   6.954  -1.010  0.00  0.00    +0.260 C 
ATOM      6  C   LIG    1       -2.379   9.148   0.071  0.00  0.00    +0.560 C 
ATOM      7  O   LIG    1       -2.274   9.852   1.056  0.00  0.00    -0.540 OA
ATOM      8  C   LIG    1       -3.083   5.742  -0.533  0.00  0.00    +0.020 C 
ENDROOT
BRANCH   1  12
ATOM      9  C   LIG    1       -4.548   1.637   1.915  0.00  0.00    -0.130 A 
ATOM     10  C   LIG    1       -5.145   2.900   1.945  0.00  0.00    +0.040 A 
ATOM     11  C   LIG    1       -4.429   4.007   1.537  0.00  0.00    -0.020 A 
ATOM     12  C   LIG    1       -3.128   3.867   1.089  0.00  0.00    -0.090 A 
ATOM     13  C   LIG    1       -2.532   2.619   1.052  0.00  0.00    -0.020 A 
ATOM     14  C   LIG    1       -3.233   1.504   1.462  0.00  0.00    +0.040 A 
BRANCH   9  16
ATOM     15  O   LIG    1       -4.781  -0.655   2.323  0.00  0.00    -0.690 OA
ATOM     16  C   LIG    1       -5.305   0.450   2.355  0.00  0.00    +0.520 C 
ATOM     17  O   LIG    1       -6.455   0.570   2.752  0.00  0.00    -0.690 OA
ENDBRANCH   9  16
ENDBRANCH   1  12
BRANCH   6  18
ATOM     18  C   LIG    1       -2.878   9.722  -1.197  0.00  0.00    -0.130 A 
ATOM     19  C   LIG    1       -2.362   9.281  -2.417  0.00  0.00    +0.040 A 
ATOM     20  C   LIG    1       -2.836   9.817  -3.597  0.00  0.00    +0.000 A 
ATOM     21  C   LIG    1       -3.812  10.797  -3.572  0.00  0.00    +0.030 A 
ATOM     22  C   LIG    1       -4.324  11.242  -2.366  0.00  0.00    +0.000 A 
ATOM     23  C   LIG    1       -3.863  10.711  -1.180  0.00  0.00    +0.060 A 
ENDBRANCH   6  18
TORSDOF 3
