REMARK  Name = ZINCpk000004LE0i.0
REMARK                            x       y       z     vdW  Elec       q    Type
REMARK                         _______ _______ _______ _____ _____    ______ ____
ROOT
ATOM      1  N   LIG    1       -1.151   0.182  -0.434  0.00  0.00    -0.700 N 
ATOM      2  H   LIG    1       -0.968  -0.767  -0.521  0.00  0.00    +0.430 HD
ENDROOT
BRANCH   1   6
ATOM      3  N   LIG    1        1.909   2.914  -0.553  0.00  0.00    -0.550 N 
ATOM      4  C   LIG    1        2.201   1.604  -0.676  0.00  0.00    +0.560 A 
ATOM      5  C   LIG    1        1.167   0.656  -0.638  0.00  0.00    -0.230 A 
ATOM      6  C   LIG    1       -0.121   1.086  -0.475  0.00  0.00    +0.480 A 
ATOM      7  N   LIG    1       -0.374   2.430  -0.353  0.00  0.00    -0.650 N 
ATOM      8  H   LIG    1       -1.286   2.742  -0.242  0.00  0.00    +0.430 HD
ATOM      9  O   LIG    1        3.357   1.245  -0.821  0.00  0.00    -0.530 OA
ATOM     10  C   LIG    1        0.636   3.319  -0.394  0.00  0.00    +0.710 A 
ATOM     11  O   LIG    1        0.394   4.505  -0.285  0.00  0.00    -0.530 OA
BRANCH   3  13
ATOM     12  C   LIG    1        2.752   4.867  -1.760  0.00  0.00    +0.040 C 
ATOM     13  C   LIG    1        2.987   3.905  -0.593  0.00  0.00    +0.250 C 
ATOM     14  C   LIG    1        3.007   4.691   0.720  0.00  0.00    +0.040 C 
ENDBRANCH   3  13
ENDBRANCH   1   6
BRANCH   1  15
ATOM     15  C   LIG    1       -2.529   0.649  -0.261  0.00  0.00    +0.220 C 
ATOM     16  C   LIG    1       -3.543  -0.407  -0.775  0.00  0.00    +0.060 C 
ATOM     17  C   LIG    1       -4.806  -0.110   0.061  0.00  0.00    +0.230 C 
ATOM     18  N   LIG    1       -4.370   0.600   1.273  0.00  0.00    -0.610 N 
ATOM     19  C   LIG    1       -5.178   1.052   2.252  0.00  0.00    +0.610 C 
ATOM     20  O   LIG    1       -6.385   0.976   2.128  0.00  0.00    -0.530 OA
ATOM     21  C   LIG    1       -5.767   0.769  -0.742  0.00  0.00    +0.040 C 
ATOM     22  C   LIG    1       -2.901   0.733   1.241  0.00  0.00    +0.250 C 
BRANCH  19  23
ATOM     23  C   LIG    1       -4.598   1.641   3.473  0.00  0.00    -0.250 A 
ATOM     24  C   LIG    1       -5.268   2.260   4.488  0.00  0.00    +0.280 A 
ATOM     25  O   LIG    1       -4.377   2.647   5.406  0.00  0.00    -0.170 OA
ATOM     26  C   LIG    1       -3.131   2.315   5.034  0.00  0.00    +0.180 A 
ATOM     27  C   LIG    1       -3.178   1.688   3.849  0.00  0.00    -0.050 A 
ENDBRANCH  19  23
ENDBRANCH   1  15
TORSDOF 4
