REMARK  Name = ZINCvU00000009I8.0
REMARK                            x       y       z     vdW  Elec       q    Type
REMARK                         _______ _______ _______ _____ _____    ______ ____
ROOT
ATOM      1  C   LIG    1        0.013   0.212   1.434  0.00  0.00    -0.070 A 
ATOM      2  C   LIG    1       -1.144  -0.554   1.464  0.00  0.00    +0.070 A 
ATOM      3  C   LIG    1       -1.047  -1.942   1.646  0.00  0.00    +0.190 A 
ATOM      4  N   LIG    1        0.109  -2.551   1.804  0.00  0.00    -0.440 NA
ATOM      5  C   LIG    1        1.269  -1.893   1.795  0.00  0.00    +0.130 A 
ATOM      6  C   LIG    1        2.490  -2.571   1.966  0.00  0.00    +0.050 A 
ATOM      7  C   LIG    1        3.658  -1.873   1.951  0.00  0.00    +0.040 A 
ATOM      8  C   LIG    1        3.668  -0.492   1.770  0.00  0.00    +0.030 A 
ATOM      9  C   LIG    1        2.504   0.199   1.602  0.00  0.00    +0.050 A 
ATOM     10  C   LIG    1        1.286  -0.487   1.611  0.00  0.00    -0.060 A 
ENDROOT
BRANCH   3  11
ATOM     11  C   LIG    1       -2.291  -2.749   1.670  0.00  0.00    -0.050 A 
ATOM     12  C   LIG    1       -3.529  -2.131   1.511  0.00  0.00    +0.060 A 
ATOM     13  C   LIG    1       -4.684  -2.888   1.529  0.00  0.00    +0.030 A 
ATOM     14  C   LIG    1       -4.613  -4.256   1.714  0.00  0.00    +0.060 A 
ATOM     15  C   LIG    1       -3.386  -4.876   1.878  0.00  0.00    -0.100 A 
ATOM     16 BR   LIG    1       -3.300  -6.748   2.131  0.00  0.00    -0.040 Br
ATOM     17  C   LIG    1       -2.225  -4.129   1.856  0.00  0.00    +0.100 A 
ENDBRANCH   3  11
BRANCH   1  18
ATOM     18  C   LIG    1       -0.039   1.676   1.238  0.00  0.00    +0.520 C 
ATOM     19  O   LIG    1        0.978   2.336   1.314  0.00  0.00    -0.490 OA
BRANCH  18  20
ATOM     20  O   LIG    1       -1.214   2.279   0.969  0.00  0.00    -0.320 OA
BRANCH  20  21
ATOM     21  C   LIG    1       -1.190   3.719   0.788  0.00  0.00    +0.250 C 
BRANCH  21  28
ATOM     22  C   LIG    1       -4.172   6.036   0.117  0.00  0.00    +0.230 C 
ATOM     23  C   LIG    1       -4.402   7.173   1.126  0.00  0.00    +0.020 C 
ATOM     24  C   LIG    1       -3.309   8.230   0.951  0.00  0.00    +0.020 C 
ATOM     25  C   LIG    1       -1.941   7.604   1.234  0.00  0.00    +0.010 C 
ATOM     26  C   LIG    1       -1.684   6.473   0.233  0.00  0.00    +0.260 C 
ATOM     27  N   LIG    1       -2.805   5.526   0.292  0.00  0.00    -0.610 N 
ATOM     28  C   LIG    1       -2.584   4.212   0.497  0.00  0.00    +0.520 C 
ATOM     29  O   LIG    1       -3.507   3.427   0.447  0.00  0.00    -0.510 OA
BRANCH  22  31
ATOM     30  C   LIG    1       -6.599   5.456   0.232  0.00  0.00    +0.000 C 
ATOM     31  C   LIG    1       -5.177   4.911   0.373  0.00  0.00    +0.040 C 
ENDBRANCH  22  31
ENDBRANCH  21  28
ENDBRANCH  20  21
ENDBRANCH  18  20
ENDBRANCH   1  18
TORSDOF 6
