REMARK  Name = ZINCvU00000009B5.0
REMARK                            x       y       z     vdW  Elec       q    Type
REMARK                         _______ _______ _______ _____ _____    ______ ____
ROOT
ATOM      1  O   LIG    1        3.099  -4.808  -1.242  0.00  0.00    -0.520 OA
ATOM      2  C   LIG    1        2.235  -4.217  -0.623  0.00  0.00    +0.560 C 
ATOM      3  N   LIG    1        1.292  -4.908   0.046  0.00  0.00    -0.670 N 
ATOM      4  H   LIG    1        0.558  -4.439   0.473  0.00  0.00    +0.410 HD
ENDROOT
BRANCH   2   5
ATOM      5  C   LIG    1        2.221  -2.741  -0.605  0.00  0.00    -0.170 A 
ATOM      6  C   LIG    1        3.199  -2.022  -1.298  0.00  0.00    +0.120 A 
ATOM      7  C   LIG    1        3.182  -0.646  -1.278  0.00  0.00    -0.030 A 
ATOM      8  C   LIG    1        2.194   0.030  -0.569  0.00  0.00    +0.200 A 
ATOM      9  C   LIG    1        1.222  -0.683   0.127  0.00  0.00    -0.010 A 
ATOM     10  C   LIG    1        1.229  -2.059   0.106  0.00  0.00    +0.080 A 
BRANCH   8  11
ATOM     11  N   LIG    1        2.181   1.424  -0.550  0.00  0.00    -0.560 N 
ATOM     12  C   LIG    1        3.223   2.270  -1.145  0.00  0.00    +0.270 C 
ATOM     13  C   LIG    1        3.027   3.668  -0.517  0.00  0.00    +0.060 C 
ATOM     14  C   LIG    1        1.527   3.638  -0.143  0.00  0.00    +0.070 C 
ATOM     15  C   LIG    1        1.210   2.166   0.009  0.00  0.00    +0.520 C 
ATOM     16  O   LIG    1        0.225   1.721   0.559  0.00  0.00    -0.500 OA
ENDBRANCH   8  11
ENDBRANCH   2   5
BRANCH   3  17
ATOM     17  C   LIG    1        1.370  -6.302   0.124  0.00  0.00    +0.140 A 
ATOM     18  C   LIG    1        0.210  -7.066   0.129  0.00  0.00    -0.020 A 
ATOM     19  C   LIG    1        0.291  -8.442   0.200  0.00  0.00    +0.030 A 
ATOM     20  C   LIG    1        1.525  -9.061   0.278  0.00  0.00    -0.080 A 
ATOM     21  C   LIG    1        2.682  -8.303   0.280  0.00  0.00    +0.030 A 
ATOM     22  C   LIG    1        2.608  -6.926   0.203  0.00  0.00    +0.010 A 
BRANCH  20  23
ATOM     23  C   LIG    1        1.610 -10.563   0.362  0.00  0.00    -0.010 C 
ATOM     24  C   LIG    1        2.403 -11.096  -0.832  0.00  0.00    +0.020 C 
ATOM     25  C   LIG    1        2.489 -12.621  -0.748  0.00  0.00    -0.020 C 
ATOM     26  C   LIG    1        3.192 -13.021   0.551  0.00  0.00    +0.010 C 
ATOM     27  C   LIG    1        2.399 -12.488   1.746  0.00  0.00    -0.020 C 
ATOM     28  C   LIG    1        0.988 -13.080   1.726  0.00  0.00    +0.010 C 
ATOM     29  C   LIG    1        0.285 -12.680   0.427  0.00  0.00    -0.020 C 
ATOM     30  C   LIG    1        1.079 -13.214  -0.767  0.00  0.00    +0.010 C 
ATOM     31  C   LIG    1        2.313 -10.963   1.661  0.00  0.00    +0.020 C 
ATOM     32  C   LIG    1        0.199 -11.155   0.343  0.00  0.00    +0.040 C 
ENDBRANCH  20  23
ENDBRANCH   3  17
TORSDOF 4
