REMARK  Name = ZINCAx0000000ftN.0
REMARK                            x       y       z     vdW  Elec       q    Type
REMARK                         _______ _______ _______ _____ _____    ______ ____
ROOT
ATOM      1  C   LIG    1       -3.817  -3.338  -0.777  0.00  0.00    +0.360 C 
ATOM      2  C   LIG    1       -4.988  -3.544   0.155  0.00  0.00    -0.220 C 
ATOM      3  C   LIG    1       -4.552  -3.246   1.401  0.00  0.00    +0.100 C 
ATOM      4  C   LIG    1       -3.128  -2.853   1.337  0.00  0.00    +0.530 C 
ATOM      5  O   LIG    1       -2.449  -2.532   2.292  0.00  0.00    -0.510 OA
ATOM      6  N   LIG    1       -2.696  -2.901   0.063  0.00  0.00    -0.590 N 
ENDROOT
BRANCH   1  12
ATOM      7  C   LIG    1       -4.070  -4.954  -2.679  0.00  0.00    +0.150 A 
ATOM      8  C   LIG    1       -3.750  -6.145  -3.313  0.00  0.00    -0.070 A 
ATOM      9  C   LIG    1       -2.837  -7.009  -2.739  0.00  0.00    +0.060 A 
ATOM     10  C   LIG    1       -2.243  -6.686  -1.533  0.00  0.00    -0.020 A 
ATOM     11  C   LIG    1       -2.556  -5.496  -0.902  0.00  0.00    +0.070 A 
ATOM     12  C   LIG    1       -3.472  -4.632  -1.469  0.00  0.00    -0.130 A 
BRANCH   7  14
ATOM     13  C   LIG    1       -5.628  -4.548  -4.428  0.00  0.00    +0.250 C 
ATOM     14  O   LIG    1       -4.968  -4.103  -3.241  0.00  0.00    -0.310 OA
ENDBRANCH   7  14
ENDBRANCH   1  12
BRANCH   3  15
ATOM     15  O   LIG    1       -5.299  -3.304   2.528  0.00  0.00    -0.430 OA
ATOM     16  H   LIG    1       -4.820  -3.055   3.331  0.00  0.00    +0.410 HD
ENDBRANCH   3  15
BRANCH   2  17
ATOM     17  C   LIG    1       -6.337  -3.983  -0.217  0.00  0.00    +0.480 C 
ATOM     18  O   LIG    1       -6.755  -5.059   0.168  0.00  0.00    -0.430 OA
BRANCH  17  19
ATOM     19  C   LIG    1       -7.187  -3.119  -1.060  0.00  0.00    -0.150 A 
ATOM     20  C   LIG    1       -6.759  -1.833  -1.401  0.00  0.00    +0.090 A 
ATOM     21  C   LIG    1       -7.553  -1.030  -2.190  0.00  0.00    +0.020 A 
ATOM     22  C   LIG    1       -8.786  -1.490  -2.640  0.00  0.00    +0.080 A 
ATOM     23  O   LIG    1       -9.556  -0.678  -3.411  0.00  0.00    -0.300 OA
ATOM     24  C   LIG    1      -10.608  -1.303  -4.154  0.00  0.00    +0.230 C 
ATOM     25  C   LIG    1      -11.354  -2.262  -3.217  0.00  0.00    +0.230 C 
ATOM     26  O   LIG    1      -10.421  -3.237  -2.739  0.00  0.00    -0.300 OA
ATOM     27  C   LIG    1       -9.220  -2.771  -2.301  0.00  0.00    +0.040 A 
ATOM     28  C   LIG    1       -8.425  -3.582  -1.514  0.00  0.00    +0.100 A 
ENDBRANCH  17  19
ENDBRANCH   2  17
BRANCH   6  29
ATOM     29  C   LIG    1       -1.345  -2.579  -0.401  0.00  0.00    +0.320 C 
BRANCH  29  30
ATOM     30  C   LIG    1       -1.268  -1.092  -0.754  0.00  0.00    +0.020 C 
BRANCH  30  31
ATOM     31  C   LIG    1        0.144  -0.756  -1.240  0.00  0.00    +0.180 C 
BRANCH  31  32
ATOM     32  N   LIG    1        0.218   0.671  -1.579  0.00  0.00    -0.540 NA
ATOM     33  C   LIG    1       -0.627   0.982  -2.741  0.00  0.00    +0.140 C 
ATOM     34  C   LIG    1       -0.567   2.485  -3.022  0.00  0.00    +0.220 C 
ATOM     35  O   LIG    1        0.795   2.873  -3.224  0.00  0.00    -0.390 OA
ATOM     36  C   LIG    1        1.646   2.586  -2.111  0.00  0.00    +0.220 C 
ATOM     37  C   LIG    1        1.609   1.084  -1.821  0.00  0.00    +0.150 C 
ENDBRANCH  31  32
ENDBRANCH  30  31
ENDBRANCH  29  30
ENDBRANCH   6  29
TORSDOF 9
