REMARK  Name = ZINCtV00000L6kb7.0
REMARK                            x       y       z     vdW  Elec       q    Type
REMARK                         _______ _______ _______ _____ _____    ______ ____
ROOT
ATOM      1  N   LIG    1        4.082   2.439  -1.373  0.00  0.00    -0.470 N 
ATOM      2  C   LIG    1        3.749   3.554  -2.115  0.00  0.00    +0.060 A 
ATOM      3  C   LIG    1        3.023   4.708  -1.854  0.00  0.00    +0.010 A 
ATOM      4  C   LIG    1        2.871   5.658  -2.842  0.00  0.00    +0.030 A 
ATOM      5  C   LIG    1        3.438   5.467  -4.094  0.00  0.00    +0.000 A 
ATOM      6  C   LIG    1        4.155   4.338  -4.369  0.00  0.00    +0.070 A 
ATOM      7  C   LIG    1        4.323   3.362  -3.384  0.00  0.00    +0.040 A 
ATOM      8  N   LIG    1        4.963   2.165  -3.350  0.00  0.00    -0.460 NA
ATOM      9  C   LIG    1        4.827   1.629  -2.173  0.00  0.00    +0.280 A 
ENDROOT
BRANCH   1  10
ATOM     10  C   LIG    1        3.709   2.180   0.020  0.00  0.00    +0.370 C 
BRANCH  10  17
ATOM     11 CL   LIG    1        3.690   5.053   0.925  0.00  0.00    -0.050 Cl
ATOM     12  C   LIG    1        4.903   3.902   1.391  0.00  0.00    -0.020 A 
ATOM     13  C   LIG    1        5.938   4.287   2.225  0.00  0.00    +0.030 A 
ATOM     14  C   LIG    1        6.904   3.370   2.595  0.00  0.00    +0.050 A 
ATOM     15  C   LIG    1        6.836   2.069   2.133  0.00  0.00    +0.030 A 
ATOM     16  C   LIG    1        5.802   1.684   1.299  0.00  0.00    +0.030 A 
ATOM     17  C   LIG    1        4.836   2.600   0.928  0.00  0.00    -0.110 A 
ENDBRANCH  10  17
ENDBRANCH   1  10
BRANCH   9  18
ATOM     18  C   LIG    1        5.406   0.301  -1.756  0.00  0.00    +0.320 C 
BRANCH  18  19
ATOM     19  O   LIG    1        4.528  -0.750  -2.162  0.00  0.00    -0.310 OA
BRANCH  19  20
ATOM     20  C   LIG    1        4.946  -2.024  -1.941  0.00  0.00    +0.130 A 
ATOM     21  C   LIG    1        4.148  -3.069  -2.308  0.00  0.00    -0.010 A 
ATOM     22  C   LIG    1        4.579  -4.386  -2.080  0.00  0.00    -0.010 A 
ATOM     23  C   LIG    1        3.785  -5.487  -2.445  0.00  0.00    +0.020 A 
ATOM     24  C   LIG    1        4.235  -6.750  -2.210  0.00  0.00    +0.020 A 
ATOM     25  C   LIG    1        5.474  -6.970  -1.611  0.00  0.00    -0.010 A 
ATOM     26  C   LIG    1        6.270  -5.928  -1.244  0.00  0.00    +0.040 A 
ATOM     27  C   LIG    1        5.840  -4.610  -1.471  0.00  0.00    -0.080 A 
ATOM     28  C   LIG    1        6.635  -3.510  -1.105  0.00  0.00    +0.070 A 
ATOM     29  C   LIG    1        6.192  -2.247  -1.345  0.00  0.00    -0.060 A 
ENDBRANCH  19  20
ENDBRANCH  18  19
ENDBRANCH   9  18
TORSDOF 5
