REMARK  Name = ZINCrD000000B3JO.0
REMARK                            x       y       z     vdW  Elec       q    Type
REMARK                         _______ _______ _______ _____ _____    ______ ____
ROOT
ATOM      1  O   LIG    1       -5.693   3.166   3.723  0.00  0.00    -0.590 OA
ATOM      2  C   LIG    1       -6.318   3.154   2.680  0.00  0.00    +0.700 C 
ATOM      3  N   LIG    1       -7.644   2.914   2.692  0.00  0.00    -0.740 N 
ATOM      4  H   LIG    1       -8.143   2.905   1.860  0.00  0.00    +0.400 HD
ATOM      5  N   LIG    1       -5.684   3.382   1.513  0.00  0.00    -0.750 N 
ATOM      6  H   LIG    1       -6.183   3.373   0.681  0.00  0.00    +0.400 HD
ENDROOT
BRANCH   3   7
ATOM      7  C   LIG    1       -8.332   2.666   3.961  0.00  0.00    +0.260 C 
ATOM      8  C   LIG    1       -8.281   1.165   4.314  0.00  0.00    +0.030 C 
ATOM      9  C   LIG    1       -9.757   0.715   4.367  0.00  0.00    +0.190 C 
ATOM     10  N   LIG    1      -10.478   1.695   3.514  0.00  0.00    -0.450 N 
ATOM     11  C   LIG    1       -9.834   2.999   3.830  0.00  0.00    +0.230 C 
BRANCH  10  12
ATOM     12  C   LIG    1      -11.834   1.721   3.821  0.00  0.00    +0.310 A 
ATOM     13  N   LIG    1      -12.390   2.848   4.238  0.00  0.00    -0.500 NA
ATOM     14  C   LIG    1      -13.673   2.916   4.541  0.00  0.00    +0.300 A 
ATOM     15  C   LIG    1      -14.486   1.806   4.433  0.00  0.00    -0.040 A 
ATOM     16  C   LIG    1      -13.942   0.604   3.999  0.00  0.00    +0.100 A 
ATOM     17  C   LIG    1      -12.595   0.564   3.683  0.00  0.00    -0.100 A 
ATOM     18 CL   LIG    1      -11.864  -0.910   3.130  0.00  0.00    -0.040 Cl
ENDBRANCH  10  12
ENDBRANCH   3   7
BRANCH   5  19
ATOM     19  C   LIG    1       -4.243   3.644   1.500  0.00  0.00    +0.280 C 
BRANCH  19  20
ATOM     20  C   LIG    1       -3.778   3.868   0.060  0.00  0.00    +0.110 C 
BRANCH  20  21
ATOM     21  C   LIG    1       -2.295   4.136   0.047  0.00  0.00    -0.170 A 
ATOM     22  C   LIG    1       -1.702   5.341   0.048  0.00  0.00    +0.230 A 
ATOM     23  N   LIG    1       -0.342   5.191   0.035  0.00  0.00    -0.590 N 
ATOM     24  H   LIG    1        0.299   5.919   0.033  0.00  0.00    +0.420 HD
ATOM     25  C   LIG    1       -0.018   3.852   0.023  0.00  0.00    +0.090 A 
ATOM     26  C   LIG    1        1.187   3.158   0.008  0.00  0.00    -0.010 A 
ATOM     27  C   LIG    1        1.183   1.781   0.000  0.00  0.00    +0.030 A 
ATOM     28  C   LIG    1       -0.013   1.076   0.008  0.00  0.00    -0.030 A 
ATOM     29  C   LIG    1       -1.208   1.738   0.017  0.00  0.00    +0.050 A 
ATOM     30  C   LIG    1       -1.228   3.133   0.031  0.00  0.00    -0.100 A 
ENDBRANCH  20  21
ENDBRANCH  19  20
ENDBRANCH   5  19
TORSDOF 5
