REMARK  Name = ZINCrH000004j6Ga.0
REMARK                            x       y       z     vdW  Elec       q    Type
REMARK                         _______ _______ _______ _____ _____    ______ ____
ROOT
ATOM      1  N   LIG    1       -0.018   1.463   0.010  0.00  0.00    -0.560 N 
ATOM      2  C   LIG    1        0.002  -0.004   0.019  0.00  0.00    +0.300 C 
ATOM      3  C   LIG    1        1.439  -0.394   0.432  0.00  0.00    +0.150 C 
ATOM      4  C   LIG    1        2.244   0.848  -0.015  0.00  0.00    +0.100 C 
ATOM      5  C   LIG    1        1.228   1.969  -0.015  0.00  0.00    +0.520 C 
ATOM      6  O   LIG    1        1.497   3.151  -0.034  0.00  0.00    -0.500 OA
ENDROOT
BRANCH   1  10
ATOM      7  C   LIG    1       -3.489   3.767   0.040  0.00  0.00    -0.100 A 
ATOM      8  C   LIG    1       -3.575   2.392  -0.072  0.00  0.00    +0.040 A 
ATOM      9  C   LIG    1       -2.426   1.625  -0.082  0.00  0.00    -0.020 A 
ATOM     10  C   LIG    1       -1.184   2.237   0.020  0.00  0.00    +0.160 A 
ATOM     11  C   LIG    1       -1.101   3.618   0.138  0.00  0.00    +0.000 A 
ATOM     12  C   LIG    1       -2.253   4.380   0.141  0.00  0.00    +0.040 A 
BRANCH   7  14
ATOM     13  C   LIG    1       -5.232   4.769   1.492  0.00  0.00    +0.030 C 
ATOM     14  C   LIG    1       -4.745   4.600   0.051  0.00  0.00    +0.060 C 
ENDBRANCH   7  14
ENDBRANCH   1  10
BRANCH   3  15
ATOM     15  C   LIG    1        1.896  -1.627  -0.304  0.00  0.00    +0.190 A 
ATOM     16  N   LIG    1        2.261  -2.766   0.232  0.00  0.00    -0.450 NA
ATOM     17  C   LIG    1        2.584  -3.566  -0.800  0.00  0.00    +0.170 A 
ATOM     18  N   LIG    1        2.401  -2.884  -1.891  0.00  0.00    -0.350 NA
ATOM     19  O   LIG    1        2.000  -1.770  -1.629  0.00  0.00    +0.100 OA
BRANCH  17  20
ATOM     20  C   LIG    1        3.068  -4.990  -0.708  0.00  0.00    +0.360 C 
BRANCH  20  21
ATOM     21  O   LIG    1        1.948  -5.877  -0.738  0.00  0.00    -0.310 OA
BRANCH  21  22
ATOM     22  C   LIG    1        2.213  -7.208  -0.664  0.00  0.00    +0.130 A 
ATOM     23  C   LIG    1        3.525  -7.651  -0.570  0.00  0.00    -0.080 A 
ATOM     24  C   LIG    1        3.791  -9.004  -0.488  0.00  0.00    +0.050 A 
ATOM     25  C   LIG    1        2.753  -9.917  -0.513  0.00  0.00    -0.020 A 
ATOM     26  C   LIG    1        1.445  -9.478  -0.612  0.00  0.00    +0.050 A 
ATOM     27  C   LIG    1        1.173  -8.126  -0.688  0.00  0.00    -0.020 A 
ENDBRANCH  21  22
ENDBRANCH  20  21
ENDBRANCH  17  20
ENDBRANCH   3  15
TORSDOF 6
