REMARK  Name = ZINCpk00000kJKYX.0
REMARK                            x       y       z     vdW  Elec       q    Type
REMARK                         _______ _______ _______ _____ _____    ______ ____
ROOT
ATOM      1  N   LIG    1       -2.383   5.338  -5.577  0.00  0.00    -0.710 N 
ATOM      2  H   LIG    1       -3.277   4.972  -5.495  0.00  0.00    +0.410 HD
ATOM      3  C   LIG    1       -1.455   5.068  -4.638  0.00  0.00    +0.540 C 
ATOM      4  O   LIG    1       -0.337   5.526  -4.740  0.00  0.00    -0.520 OA
ENDROOT
BRANCH   1  13
ATOM      5  C   LIG    1       -3.867   5.283 -10.553  0.00  0.00    +0.090 C 
ATOM      6  C   LIG    1       -3.258   6.628 -10.250  0.00  0.00    -0.050 A 
ATOM      7  C   LIG    1       -3.145   7.572 -11.251  0.00  0.00    -0.020 A 
ATOM      8  C   LIG    1       -2.588   8.807 -10.976  0.00  0.00    +0.050 A 
ATOM      9  C   LIG    1       -2.144   9.095  -9.702  0.00  0.00    -0.020 A 
ATOM     10  C   LIG    1       -2.256   8.145  -8.691  0.00  0.00    +0.130 A 
ATOM     11  O   LIG    1       -1.801   8.462  -7.451  0.00  0.00    -0.310 OA
ATOM     12  C   LIG    1       -2.239   7.660  -6.353  0.00  0.00    +0.230 C 
ATOM     13  C   LIG    1       -2.040   6.185  -6.723  0.00  0.00    +0.220 C 
ATOM     14  C   LIG    1       -2.961   5.856  -7.901  0.00  0.00    +0.100 C 
ATOM     15  C   LIG    1       -2.816   6.911  -8.968  0.00  0.00    -0.160 A 
ENDBRANCH   1  13
BRANCH   3  16
ATOM     16  C   LIG    1       -1.808   4.197  -3.459  0.00  0.00    -0.360 C 
BRANCH  16  17
ATOM     17  S   LIG    1       -0.359   4.023  -2.382  0.00  0.00    +2.640 S 
ATOM     18  O   LIG    1        0.651   3.258  -3.024  0.00  0.00    -0.930 OA
ATOM     19  O   LIG    1       -0.052   5.261  -1.754  0.00  0.00    -0.930 OA
BRANCH  17  20
ATOM     20  N   LIG    1       -0.879   3.055  -1.143  0.00  0.00    -1.000 NA
ATOM     21  C   LIG    1       -0.755   1.594  -1.232  0.00  0.00    +0.280 C 
ATOM     22  C   LIG    1       -0.013   1.086   0.008  0.00  0.00    +0.020 C 
ATOM     23  C   LIG    1       -0.730   1.580   1.266  0.00  0.00    -0.020 C 
ATOM     24  C   LIG    1       -0.724   3.110   1.292  0.00  0.00    +0.020 C 
ATOM     25  C   LIG    1       -0.011   1.046   2.506  0.00  0.00    +0.030 C 
ATOM     26  C   LIG    1       -1.474   3.641   0.066  0.00  0.00    +0.280 C 
ENDBRANCH  17  20
ENDBRANCH  16  17
ENDBRANCH   3  16
TORSDOF 4
