REMARK  Name = ZINCtV00000tRPnR.0
REMARK                            x       y       z     vdW  Elec       q    Type
REMARK                         _______ _______ _______ _____ _____    ______ ____
ROOT
ATOM      1  C   LIG    1        0.541   3.544   0.336  0.00  0.00    +0.150 A 
ATOM      2  N   LIG    1       -0.730   3.481   0.008  0.00  0.00    -0.290 NA
ATOM      3  N   LIG    1       -1.046   2.276  -0.306  0.00  0.00    -0.260 NA
ATOM      4  C   LIG    1        0.001   1.493  -0.189  0.00  0.00    +0.220 A 
ATOM      5  N   LIG    1        1.051   2.282   0.222  0.00  0.00    -0.450 N 
ENDROOT
BRANCH   4   6
ATOM      6  C   LIG    1        0.046   0.040  -0.456  0.00  0.00    -0.010 A 
ATOM      7  C   LIG    1        1.215  -0.548  -0.941  0.00  0.00    +0.040 A 
ATOM      8  C   LIG    1        1.252  -1.905  -1.183  0.00  0.00    +0.030 A 
ATOM      9  C   LIG    1        0.129  -2.683  -0.956  0.00  0.00    -0.020 A 
ATOM     10  C   LIG    1       -1.035  -2.105  -0.479  0.00  0.00    +0.040 A 
ATOM     11 CL   LIG    1        0.181  -4.390  -1.270  0.00  0.00    -0.060 Cl
ATOM     12  C   LIG    1       -1.083  -0.749  -0.228  0.00  0.00    +0.090 A 
ENDBRANCH   4   6
BRANCH   5  13
ATOM     13  C   LIG    1        2.428   1.857   0.483  0.00  0.00    +0.240 C 
ATOM     14  C   LIG    1        2.834   2.283   1.896  0.00  0.00    +0.010 C 
ATOM     15  C   LIG    1        4.272   1.839   2.169  0.00  0.00    +0.040 C 
ATOM     16  C   LIG    1        5.210   2.491   1.150  0.00  0.00    +0.010 C 
ATOM     17  C   LIG    1        4.804   2.064  -0.262  0.00  0.00    +0.040 C 
ATOM     18  C   LIG    1        3.365   2.508  -0.535  0.00  0.00    +0.010 C 
ENDBRANCH   5  13
BRANCH   1  19
ATOM     19  S   LIG    1        1.423   4.987   0.831  0.00  0.00    +0.070 S 
BRANCH  19  20
ATOM     20  C   LIG    1        0.096   6.214   0.735  0.00  0.00    +0.080 C 
BRANCH  20  22
ATOM     21  O   LIG    1        1.799   7.688   1.440  0.00  0.00    -0.430 OA
ATOM     22  C   LIG    1        0.634   7.566   1.127  0.00  0.00    +0.420 C 
BRANCH  22  23
ATOM     23  C   LIG    1       -0.255   8.738   1.130  0.00  0.00    -0.160 A 
ATOM     24  C   LIG    1       -1.598   8.603   0.764  0.00  0.00    +0.090 A 
ATOM     25  C   LIG    1       -2.426   9.705   0.773  0.00  0.00    +0.020 A 
ATOM     26  C   LIG    1       -1.928  10.946   1.134  0.00  0.00    -0.000 A 
ATOM     27  C   LIG    1       -0.598  11.089   1.493  0.00  0.00    +0.020 A 
ATOM     28 CL   LIG    1       -2.977  12.330   1.137  0.00  0.00    -0.060 Cl
ATOM     29  C   LIG    1        0.241   9.995   1.494  0.00  0.00    +0.110 A 
ENDBRANCH  22  23
ENDBRANCH  20  22
ENDBRANCH  19  20
ENDBRANCH   1  19
TORSDOF 6
