REMARK  Name = ZINCpe00000VVGt5.0
REMARK                            x       y       z     vdW  Elec       q    Type
REMARK                         _______ _______ _______ _____ _____    ______ ____
ROOT
ATOM      1  C   LIG    1       -0.108   7.662  -1.392  0.00  0.00    +0.300 C 
ENDROOT
BRANCH   1   2
ATOM      2  N   LIG    1       -0.061   8.165  -2.767  0.00  0.00    -0.730 N 
ATOM      3  H   LIG    1       -0.031   7.543  -3.511  0.00  0.00    +0.400 HD
ATOM      4  C   LIG    1       -0.061   9.493  -2.999  0.00  0.00    +0.520 C 
ATOM      5  O   LIG    1       -0.099  10.271  -2.069  0.00  0.00    -0.530 OA
BRANCH   4   6
ATOM      6  C   LIG    1       -0.013  10.011  -4.413  0.00  0.00    +0.040 C 
BRANCH   6   7
ATOM      7  C   LIG    1       -0.022  11.541  -4.397  0.00  0.00    +0.310 C 
BRANCH   7   8
ATOM      8  N   LIG    1        0.025  12.044  -5.772  0.00  0.00    -0.700 N 
ATOM      9  H   LIG    1        0.055  11.422  -6.515  0.00  0.00    +0.410 HD
BRANCH   8  10
ATOM     10  C   LIG    1        0.025  13.408  -6.010  0.00  0.00    +0.560 A 
ATOM     11  N   LIG    1       -0.022  14.243  -4.983  0.00  0.00    -0.570 NA
ATOM     12  C   LIG    1       -0.018  15.552  -5.176  0.00  0.00    +0.360 A 
ATOM     13  C   LIG    1        0.026  16.045  -6.470  0.00  0.00    -0.150 A 
ATOM     14  C   LIG    1        0.070  15.142  -7.522  0.00  0.00    +0.360 A 
ATOM     15  N   LIG    1        0.068  13.846  -7.260  0.00  0.00    -0.570 NA
ENDBRANCH   8  10
ENDBRANCH   7   8
ENDBRANCH   6   7
ENDBRANCH   4   6
ENDBRANCH   1   2
BRANCH   1  16
ATOM     16  C   LIG    1        0.030   6.138  -1.402  0.00  0.00    -0.020 C 
BRANCH  16  20
ATOM     17  N   LIG    1        1.558   4.669  -2.676  0.00  0.00    -0.850 N 
ATOM     18  H   LIG    1        2.448   4.383  -2.936  0.00  0.00    +0.400 HD
ATOM     19  H   LIG    1        0.782   4.168  -2.974  0.00  0.00    +0.400 HD
ATOM     20  C   LIG    1        1.400   5.761  -1.903  0.00  0.00    +0.520 C 
ATOM     21  O   LIG    1        2.361   6.440  -1.609  0.00  0.00    -0.530 OA
ENDBRANCH  16  20
BRANCH  16  22
ATOM     22  C   LIG    1       -0.161   5.599   0.017  0.00  0.00    +0.120 C 
BRANCH  22  23
ATOM     23  C   LIG    1       -0.151   4.093  -0.011  0.00  0.00    -0.100 A 
ATOM     24  C   LIG    1        1.042   3.407   0.124  0.00  0.00    +0.050 A 
ATOM     25  C   LIG    1        1.053   2.026   0.099  0.00  0.00    -0.010 A 
ATOM     26  C   LIG    1       -0.132   1.328  -0.063  0.00  0.00    +0.100 A 
ATOM     27  C   LIG    1       -1.325   2.015  -0.205  0.00  0.00    -0.010 A 
ATOM     28  F   LIG    1       -0.123  -0.023  -0.088  0.00  0.00    -0.140 F 
ATOM     29  C   LIG    1       -1.334   3.397  -0.173  0.00  0.00    +0.060 A 
ENDBRANCH  22  23
ENDBRANCH  16  22
ENDBRANCH   1  16
TORSDOF 9
