REMARK  Name = ZINCrD000006fiL2.0
REMARK                            x       y       z     vdW  Elec       q    Type
REMARK                         _______ _______ _______ _____ _____    ______ ____
ROOT
ATOM      1  N   LIG    1       -0.091   1.486  -0.107  0.00  0.00    -0.670 N 
ATOM      2  H   LIG    1       -1.004   1.813  -0.095  0.00  0.00    +0.410 HD
ATOM      3  C   LIG    1        0.936   2.357  -0.171  0.00  0.00    +0.510 C 
ATOM      4  O   LIG    1        2.071   1.948  -0.299  0.00  0.00    -0.500 OA
ENDROOT
BRANCH   1   7
ATOM      5  C   LIG    1       -0.542  -2.148  -0.485  0.00  0.00    +0.140 A 
ATOM      6  C   LIG    1       -0.796  -0.785  -0.524  0.00  0.00    +0.020 A 
ATOM      7  C   LIG    1        0.160   0.110  -0.064  0.00  0.00    +0.160 A 
ATOM      8  C   LIG    1        1.364  -0.361   0.444  0.00  0.00    +0.040 A 
ATOM      9  C   LIG    1        1.614  -1.720   0.487  0.00  0.00    +0.030 A 
ATOM     10  C   LIG    1        0.666  -2.615   0.025  0.00  0.00    +0.050 A 
ATOM     11  F   LIG    1        0.913  -3.942   0.068  0.00  0.00    -0.140 F 
BRANCH   5  13
ATOM     12  C   LIG    1       -2.279  -2.727  -2.004  0.00  0.00    +0.550 C 
ATOM     13  N   LIG    1       -1.501  -3.053  -0.953  0.00  0.00    -0.670 N 
ATOM     14  H   LIG    1       -1.606  -3.915  -0.521  0.00  0.00    +0.420 HD
ATOM     15  O   LIG    1       -2.207  -1.615  -2.492  0.00  0.00    -0.520 OA
BRANCH  12  17
ATOM     16  C   LIG    1       -3.984  -3.393  -3.597  0.00  0.00    +0.160 C 
ATOM     17  C   LIG    1       -3.216  -3.715  -2.560  0.00  0.00    -0.090 C 
ENDBRANCH  12  17
ENDBRANCH   5  13
ENDBRANCH   1   7
BRANCH   3  18
ATOM     18  C   LIG    1        0.674   3.839  -0.085  0.00  0.00    +0.070 C 
BRANCH  18  19
ATOM     19  C   LIG    1        1.999   4.598  -0.183  0.00  0.00    +0.260 C 
ATOM     20  C   LIG    1        1.748   6.092   0.029  0.00  0.00    +0.040 C 
BRANCH  19  21
ATOM     21  N   LIG    1        2.587   4.384  -1.508  0.00  0.00    -0.720 N 
ATOM     22  H   LIG    1        2.018   4.160  -2.260  0.00  0.00    +0.400 HD
ATOM     23  C   LIG    1        3.919   4.501  -1.681  0.00  0.00    +0.530 C 
ATOM     24  O   LIG    1        4.630   4.782  -0.740  0.00  0.00    -0.540 OA
BRANCH  23  25
ATOM     25  C   LIG    1        4.524   4.282  -3.043  0.00  0.00    -0.020 C 
ATOM     26  C   LIG    1        4.212   2.861  -3.517  0.00  0.00    +0.020 C 
ATOM     27  C   LIG    1        4.826   2.638  -4.901  0.00  0.00    +0.000 C 
ATOM     28  C   LIG    1        6.342   2.829  -4.822  0.00  0.00    +0.000 C 
ATOM     29  C   LIG    1        6.654   4.250  -4.349  0.00  0.00    +0.010 C 
ATOM     30  C   LIG    1        6.040   4.473  -2.965  0.00  0.00    +0.040 C 
ENDBRANCH  23  25
ENDBRANCH  19  21
ENDBRANCH  18  19
ENDBRANCH   3  18
TORSDOF 7
