REMARK  Name = ZINCqH0000003Nfr.0
REMARK                            x       y       z     vdW  Elec       q    Type
REMARK                         _______ _______ _______ _____ _____    ______ ____
ROOT
ATOM      1  C   LIG    1        3.672   2.182  -0.023  0.00  0.00    +0.340 C 
ENDROOT
BRANCH   1   5
ATOM      2  C   LIG    1        4.501   3.531  -3.992  0.00  0.00    +0.140 A 
ATOM      3  C   LIG    1        5.136   2.402  -3.495  0.00  0.00    -0.020 A 
ATOM      4  C   LIG    1        4.866   1.968  -2.212  0.00  0.00    +0.070 A 
ATOM      5  C   LIG    1        3.965   2.658  -1.423  0.00  0.00    -0.130 A 
ATOM      6  C   LIG    1        3.326   3.780  -1.918  0.00  0.00    +0.050 A 
ATOM      7  C   LIG    1        3.597   4.221  -3.199  0.00  0.00    -0.070 A 
BRANCH   2   8
ATOM      8  O   LIG    1        4.765   3.960  -5.254  0.00  0.00    -0.310 OA
BRANCH   8  10
ATOM      9  C   LIG    1        4.498   5.456  -7.133  0.00  0.00    +0.070 C 
ATOM     10  C   LIG    1        4.075   5.129  -5.700  0.00  0.00    +0.170 C 
ENDBRANCH   8  10
ENDBRANCH   2   8
ENDBRANCH   1   5
BRANCH   1  11
ATOM     11  C   LIG    1        2.377   1.411  -0.015  0.00  0.00    -0.090 A 
ATOM     12  C   LIG    1        1.171   2.086   0.002  0.00  0.00    +0.020 A 
ATOM     13  C   LIG    1       -0.017   1.378   0.010  0.00  0.00    +0.000 A 
ATOM     14  C   LIG    1        0.002  -0.004   0.002  0.00  0.00    +0.000 A 
ATOM     15  C   LIG    1        1.208  -0.679  -0.013  0.00  0.00    +0.000 A 
ATOM     16  C   LIG    1        2.396   0.029  -0.021  0.00  0.00    +0.020 A 
ENDBRANCH   1  11
BRANCH   1  17
ATOM     17  N   LIG    1        3.558   3.337   0.872  0.00  0.00    -0.700 N 
ATOM     18  H   LIG    1        3.308   4.203   0.515  0.00  0.00    +0.410 HD
ATOM     19  C   LIG    1        3.801   3.195   2.190  0.00  0.00    +0.580 C 
ATOM     20  O   LIG    1        4.114   2.109   2.636  0.00  0.00    -0.520 OA
BRANCH  19  21
ATOM     21  C   LIG    1        3.686   4.362   3.094  0.00  0.00    +0.020 A 
ATOM     22  C   LIG    1        3.931   4.216   4.459  0.00  0.00    +0.300 A 
ATOM     23  N   LIG    1        3.834   5.262   5.260  0.00  0.00    -0.440 NA
ATOM     24  C   LIG    1        3.492   6.441   4.772  0.00  0.00    +0.110 A 
ATOM     25  C   LIG    1        3.242   6.588   3.415  0.00  0.00    +0.230 A 
ATOM     26  C   LIG    1        3.375   7.630   5.691  0.00  0.00    +0.160 C 
ATOM     27  N   LIG    1        3.343   5.552   2.607  0.00  0.00    -0.410 NA
ENDBRANCH  19  21
ENDBRANCH   1  17
TORSDOF 6
