REMARK  Name = ZINCtV00000L6kw3.0
REMARK                            x       y       z     vdW  Elec       q    Type
REMARK                         _______ _______ _______ _____ _____    ______ ____
ROOT
ATOM      1  C   LIG    1        7.082  -2.748  -0.083  0.00  0.00    -0.200 A 
ATOM      2  C   LIG    1        5.937  -1.994  -0.063  0.00  0.00    +0.060 A 
ATOM      3  S   LIG    1        4.553  -2.988  -0.056  0.00  0.00    +0.340 S 
ATOM      4  C   LIG    1        5.508  -4.460  -0.071  0.00  0.00    -0.110 A 
ATOM      5  C   LIG    1        6.815  -4.177  -0.081  0.00  0.00    -0.000 A 
ENDROOT
BRANCH   5   6
ATOM      6  C   LIG    1        7.878  -5.210  -0.096  0.00  0.00    -0.030 A 
ATOM      7  C   LIG    1        8.908  -5.141  -1.032  0.00  0.00    +0.050 A 
ATOM      8  C   LIG    1        9.898  -6.103  -1.037  0.00  0.00    +0.030 A 
ATOM      9  C   LIG    1        9.863  -7.141  -0.122  0.00  0.00    -0.030 A 
ATOM     10  C   LIG    1        8.839  -7.217   0.807  0.00  0.00    +0.030 A 
ATOM     11 CL   LIG    1       11.108  -8.350  -0.138  0.00  0.00    -0.070 Cl
ATOM     12  C   LIG    1        7.847  -6.258   0.824  0.00  0.00    +0.050 A 
ENDBRANCH   5   6
BRANCH   1  13
ATOM     13  C   LIG    1        8.427  -2.176  -0.099  0.00  0.00    +0.530 C 
ATOM     14  O   LIG    1        9.002  -1.943   0.948  0.00  0.00    -0.490 OA
BRANCH  13  15
ATOM     15  O   LIG    1        9.031  -1.906  -1.275  0.00  0.00    -0.350 OA
BRANCH  15  17
ATOM     16  C   LIG    1       10.863  -1.112  -2.636  0.00  0.00    +0.070 C 
ATOM     17  C   LIG    1       10.345  -1.348  -1.216  0.00  0.00    +0.200 C 
ENDBRANCH  15  17
ENDBRANCH  13  15
ENDBRANCH   1  13
BRANCH   2  18
ATOM     18  N   LIG    1        5.909  -0.612  -0.057  0.00  0.00    -0.600 N 
ATOM     19  H   LIG    1        6.739  -0.110  -0.062  0.00  0.00    +0.430 HD
BRANCH  18  20
ATOM     20  C   LIG    1        4.692   0.057  -0.042  0.00  0.00    +0.370 A 
ATOM     21  N   LIG    1        3.567  -0.630  -0.035  0.00  0.00    -0.470 NA
ATOM     22  C   LIG    1        2.395   0.017  -0.020  0.00  0.00    +0.140 A 
ATOM     23  C   LIG    1        1.179  -0.688  -0.013  0.00  0.00    +0.050 A 
ATOM     24  C   LIG    1        0.002  -0.004   0.002  0.00  0.00    +0.070 A 
ATOM     25  C   LIG    1       -0.017   1.389   0.010  0.00  0.00    +0.030 A 
ATOM     26  C   LIG    1        1.142   2.104   0.003  0.00  0.00    +0.090 A 
ATOM     27  C   LIG    1        2.375   1.434  -0.013  0.00  0.00    +0.060 A 
ATOM     28  N   LIG    1        3.530   2.114  -0.021  0.00  0.00    -0.380 NA
ATOM     29  C   LIG    1        4.670   1.465  -0.035  0.00  0.00    +0.130 A 
ATOM     30 CL   LIG    1        6.163   2.350  -0.046  0.00  0.00    +0.000 Cl
ENDBRANCH  18  20
ENDBRANCH   2  18
TORSDOF 6
