REMARK  Name = ZINCvU0000000GqH.0
REMARK                            x       y       z     vdW  Elec       q    Type
REMARK                         _______ _______ _______ _____ _____    ______ ____
ROOT
ATOM      1  C   LIG    1       -2.007   4.979  -0.372  0.00  0.00    +0.110 A 
ATOM      2  C   LIG    1       -2.968   4.526  -1.258  0.00  0.00    -0.030 A 
ATOM      3  C   LIG    1       -4.205   4.100  -0.795  0.00  0.00    -0.070 A 
ATOM      4  C   LIG    1       -4.482   4.128   0.555  0.00  0.00    -0.120 A 
ATOM      5  C   LIG    1       -5.813   3.685   1.103  0.00  0.00    +0.320 C 
ATOM      6  N   LIG    1       -6.531   2.875   0.113  0.00  0.00    -0.490 NA
ATOM      7  C   LIG    1       -6.610   3.591  -1.170  0.00  0.00    +0.240 C 
ATOM      8  C   LIG    1       -3.520   4.580   1.448  0.00  0.00    -0.010 A 
ATOM      9  C   LIG    1       -5.217   3.612  -1.800  0.00  0.00    +0.050 C 
ATOM     10  C   LIG    1       -2.286   5.005   0.992  0.00  0.00    +0.100 A 
ENDROOT
BRANCH   5  11
ATOM     11  C   LIG    1       -5.592   2.867   2.349  0.00  0.00    -0.180 A 
ATOM     12  C   LIG    1       -6.222   3.048   3.510  0.00  0.00    +0.030 A 
ATOM     13  C   LIG    1       -5.853   2.172   4.517  0.00  0.00    +0.010 A 
ATOM     14  C   LIG    1       -4.923   1.280   4.173  0.00  0.00    -0.040 A 
ATOM     15  S   LIG    1       -4.467   1.522   2.491  0.00  0.00    +0.100 S 
ENDBRANCH   5  11
BRANCH   1  17
ATOM     16  C   LIG    1       -0.622   5.445  -2.248  0.00  0.00    +0.240 C 
ATOM     17  O   LIG    1       -0.797   5.396  -0.830  0.00  0.00    -0.300 OA
ENDBRANCH   1  17
BRANCH  10  18
ATOM     18  O   LIG    1       -1.348   5.447   1.872  0.00  0.00    -0.300 OA
ATOM     19  C   LIG    1       -1.704   5.445   3.256  0.00  0.00    +0.240 C 
ENDBRANCH  10  18
BRANCH   6  20
ATOM     20  C   LIG    1       -5.894   1.562  -0.054  0.00  0.00    +0.210 C 
BRANCH  20  21
ATOM     21  C   LIG    1       -6.770   0.685  -0.912  0.00  0.00    +0.520 C 
ATOM     22  N   LIG    1       -6.332  -0.529  -1.302  0.00  0.00    -0.670 N 
ATOM     23  H   LIG    1       -5.459  -0.843  -1.020  0.00  0.00    +0.410 HD
ATOM     24  O   LIG    1       -7.869   1.071  -1.251  0.00  0.00    -0.490 OA
BRANCH  22  25
ATOM     25  C   LIG    1       -7.138  -1.336  -2.113  0.00  0.00    +0.160 A 
ATOM     26  C   LIG    1       -8.506  -1.110  -2.179  0.00  0.00    +0.040 A 
ATOM     27  C   LIG    1       -9.300  -1.912  -2.976  0.00  0.00    +0.040 A 
ATOM     28  C   LIG    1       -8.732  -2.936  -3.712  0.00  0.00    -0.090 A 
ATOM     29  C   LIG    1       -7.369  -3.161  -3.654  0.00  0.00    +0.050 A 
ATOM     30  C   LIG    1       -9.601  -3.809  -4.581  0.00  0.00    +0.100 C 
ATOM     31  C   LIG    1       -6.569  -2.362  -2.858  0.00  0.00    -0.070 A 
ATOM     32 CL   LIG    1       -4.858  -2.645  -2.785  0.00  0.00    -0.070 Cl
ENDBRANCH  22  25
ENDBRANCH  20  21
ENDBRANCH   6  20
TORSDOF 6
