REMARK  Name = ZINCqH0000006ZO5.0
REMARK                            x       y       z     vdW  Elec       q    Type
REMARK                         _______ _______ _______ _____ _____    ______ ____
ROOT
ATOM      1  S   LIG    1        2.875  -6.019  -3.006  0.00  0.00    +0.150 S 
ENDROOT
BRANCH   1   5
ATOM      2  C   LIG    1        5.678  -7.249  -5.391  0.00  0.00    +0.220 A 
ATOM      3  N   LIG    1        6.112  -6.058  -5.056  0.00  0.00    -0.270 NA
ATOM      4  N   LIG    1        5.271  -5.505  -4.255  0.00  0.00    -0.290 NA
ATOM      5  C   LIG    1        4.270  -6.326  -4.038  0.00  0.00    +0.120 A 
ATOM      6  O   LIG    1        4.503  -7.444  -4.753  0.00  0.00    -0.200 OA
BRANCH   2  10
ATOM      7  C   LIG    1        7.609  -9.990  -8.000  0.00  0.00    +0.160 A 
ATOM      8  C   LIG    1        8.191  -8.757  -7.736  0.00  0.00    +0.000 A 
ATOM      9  C   LIG    1        7.568  -7.865  -6.890  0.00  0.00    +0.130 A 
ATOM     10  C   LIG    1        6.349  -8.202  -6.298  0.00  0.00    -0.070 A 
ATOM     11  C   LIG    1        5.770  -9.445  -6.561  0.00  0.00    +0.100 A 
ATOM     12  C   LIG    1        6.397 -10.329  -7.413  0.00  0.00    -0.070 A 
BRANCH   7  14
ATOM     13  C   LIG    1        7.572 -12.116  -9.062  0.00  0.00    +0.250 C 
ATOM     14  O   LIG    1        8.226 -10.866  -8.835  0.00  0.00    -0.310 OA
ENDBRANCH   7  14
ENDBRANCH   2  10
ENDBRANCH   1   5
BRANCH   1  15
ATOM     15  C   LIG    1        3.281  -4.358  -2.415  0.00  0.00    +0.090 C 
BRANCH  15  16
ATOM     16  C   LIG    1        2.195  -3.875  -1.488  0.00  0.00    +0.540 C 
ATOM     17  N   LIG    1        2.285  -2.655  -0.923  0.00  0.00    -0.720 N 
ATOM     18  H   LIG    1        3.048  -2.087  -1.113  0.00  0.00    +0.400 HD
ATOM     19  O   LIG    1        1.241  -4.585  -1.251  0.00  0.00    -0.520 OA
BRANCH  17  20
ATOM     20  C   LIG    1        1.229  -2.186  -0.022  0.00  0.00    +0.290 C 
ATOM     21  C   LIG    1        1.500  -2.700   1.393  0.00  0.00    +0.040 C 
BRANCH  20  22
ATOM     22  C   LIG    1        1.208  -0.679  -0.014  0.00  0.00    -0.100 A 
ATOM     23  C   LIG    1        0.002  -0.004   0.002  0.00  0.00    +0.020 A 
ATOM     24  C   LIG    1       -0.017   1.378   0.010  0.00  0.00    +0.020 A 
ATOM     25  C   LIG    1        1.171   2.086   0.002  0.00  0.00    +0.000 A 
ATOM     26  C   LIG    1        2.377   1.411  -0.014  0.00  0.00    +0.020 A 
ATOM     27  C   LIG    1        2.396   0.029  -0.021  0.00  0.00    +0.000 A 
ENDBRANCH  20  22
ENDBRANCH  17  20
ENDBRANCH  15  16
ENDBRANCH   1  15
TORSDOF 7
