REMARK  Name = ZINCqH0000032FUY.0
REMARK                            x       y       z     vdW  Elec       q    Type
REMARK                         _______ _______ _______ _____ _____    ______ ____
ROOT
ATOM      1  C   LIG    1       -0.919   3.516  -2.032  0.00  0.00    +0.050 C 
ATOM      2  C   LIG    1       -1.637   2.402  -1.267  0.00  0.00    +0.190 C 
ATOM      3  C   LIG    1       -0.657   1.721  -0.292  0.00  0.00    -0.020 C 
ATOM      4  C   LIG    1       -1.247   1.974   1.115  0.00  0.00    +0.060 C 
ATOM      5  C   LIG    1       -2.154   3.211   0.889  0.00  0.00    +0.270 C 
ATOM      6  C   LIG    1       -2.196   1.371  -2.249  0.00  0.00    +0.040 C 
ATOM      7  N   LIG    1       -2.728   2.973  -0.456  0.00  0.00    -0.630 N 
ATOM      8  C   LIG    1       -3.990   3.225  -0.856  0.00  0.00    +0.730 C 
ATOM      9  N   LIG    1       -4.879   3.752   0.010  0.00  0.00    -0.680 N 
ATOM     10  H   LIG    1       -4.594   4.012   0.900  0.00  0.00    +0.410 HD
ATOM     11  O   LIG    1       -4.327   2.977  -1.997  0.00  0.00    -0.560 OA
ENDROOT
BRANCH   9  12
ATOM     12  C   LIG    1       -6.213   3.923  -0.375  0.00  0.00    +0.190 A 
ATOM     13  C   LIG    1       -7.234   3.728   0.547  0.00  0.00    -0.050 A 
ATOM     14  C   LIG    1       -8.552   3.897   0.167  0.00  0.00    +0.060 A 
ATOM     15  C   LIG    1       -8.859   4.261  -1.129  0.00  0.00    -0.060 A 
ATOM     16  C   LIG    1       -7.843   4.458  -2.057  0.00  0.00    +0.130 A 
ATOM     17  C   LIG    1       -6.518   4.294  -1.677  0.00  0.00    +0.000 A 
BRANCH  16  18
ATOM     18  N   LIG    1       -8.154   4.826  -3.368  0.00  0.00    -0.490 N 
ATOM     19  C   LIG    1       -7.475   6.076  -3.740  0.00  0.00    +0.160 C 
ATOM     20  C   LIG    1       -7.796   6.410  -5.199  0.00  0.00    +0.220 C 
ATOM     21  O   LIG    1       -9.214   6.494  -5.363  0.00  0.00    -0.380 OA
ATOM     22  C   LIG    1       -9.907   5.294  -5.011  0.00  0.00    +0.220 C 
ATOM     23  C   LIG    1       -9.608   4.949  -3.549  0.00  0.00    +0.160 C 
ENDBRANCH  16  18
ENDBRANCH   9  12
BRANCH   3  24
ATOM     24  C   LIG    1       -0.584   0.220  -0.576  0.00  0.00    +0.460 C 
ATOM     25  F   LIG    1       -1.870  -0.329  -0.522  0.00  0.00    -0.170 F 
ATOM     26  F   LIG    1        0.226  -0.397   0.383  0.00  0.00    -0.180 F 
ATOM     27  F   LIG    1       -0.041   0.011  -1.849  0.00  0.00    -0.170 F 
ENDBRANCH   3  24
TORSDOF 3
