REMARK  Name = ZINCnE000001FO0L.0
REMARK                            x       y       z     vdW  Elec       q    Type
REMARK                         _______ _______ _______ _____ _____    ______ ____
ROOT
ATOM      1  N   LIG    1       -1.127   1.838  -0.012  0.00  0.00    -0.490 N 
ATOM      2  C   LIG    1        0.007   1.072  -0.029  0.00  0.00    +0.220 A 
ATOM      3  C   LIG    1        1.093   1.861  -0.033  0.00  0.00    -0.050 A 
ATOM      4  C   LIG    1        0.617   3.247  -0.011  0.00  0.00    -0.090 A 
ATOM      5  C   LIG    1        1.252   4.489  -0.004  0.00  0.00    +0.070 A 
ATOM      6  C   LIG    1        0.493   5.644   0.019  0.00  0.00    +0.120 A 
ATOM      7  C   LIG    1       -0.899   5.569   0.034  0.00  0.00    +0.010 A 
ATOM      8  C   LIG    1       -1.535   4.348   0.028  0.00  0.00    +0.000 A 
ATOM      9  C   LIG    1       -0.788   3.175   0.005  0.00  0.00    +0.080 A 
ENDROOT
BRANCH   6  10
ATOM     10  N   LIG    1        1.125   6.895   0.025  0.00  0.00    -0.680 N 
ATOM     11  H   LIG    1        0.724   7.643  -0.445  0.00  0.00    +0.410 HD
ATOM     12  C   LIG    1        2.289   7.059   0.684  0.00  0.00    +0.520 C 
ATOM     13  O   LIG    1        2.832   6.105   1.201  0.00  0.00    -0.510 OA
BRANCH  12  14
ATOM     14  C   LIG    1        2.915   8.426   0.779  0.00  0.00    -0.010 C 
ATOM     15  C   LIG    1        2.020   9.374   1.604  0.00  0.00    +0.010 C 
ATOM     16  C   LIG    1        2.966  10.257   2.438  0.00  0.00    +0.030 C 
ATOM     17  C   LIG    1        4.402   9.815   2.090  0.00  0.00    -0.100 C 
ATOM     18  C   LIG    1        4.239   8.361   1.580  0.00  0.00    +0.070 C 
BRANCH  17  19
ATOM     19  C   LIG    1        5.279   9.849   3.316  0.00  0.00    +0.500 C 
ATOM     20  O   LIG    1        5.171   8.982   4.167  0.00  0.00    -0.690 OA
ATOM     21  O   LIG    1        6.096  10.743   3.456  0.00  0.00    -0.710 OA
ENDBRANCH  17  19
ENDBRANCH  12  14
ENDBRANCH   6  10
BRANCH   1  22
ATOM     22  C   LIG    1       -2.495   1.316  -0.008  0.00  0.00    +0.280 C 
BRANCH  22  24
ATOM     23  C   LIG    1       -4.456   0.723  -1.438  0.00  0.00    +0.030 C 
ATOM     24  C   LIG    1       -3.027   1.268  -1.442  0.00  0.00    +0.000 C 
ENDBRANCH  22  24
ENDBRANCH   1  22
TORSDOF 5
