REMARK  Name = ZINCrH00000No4w7.0
REMARK                            x       y       z     vdW  Elec       q    Type
REMARK                         _______ _______ _______ _____ _____    ______ ____
ROOT
ATOM      1  C   LIG    1       -2.430   0.682  -0.104  0.00  0.00    +0.280 C 
ENDROOT
BRANCH   1   2
ATOM      2  C   LIG    1       -3.855   1.099  -0.362  0.00  0.00    -0.090 A 
ATOM      3  C   LIG    1       -4.293   1.233  -1.643  0.00  0.00    +0.050 A 
ATOM      4  C   LIG    1       -5.621   1.621  -1.888  0.00  0.00    -0.050 A 
ATOM      5  C   LIG    1       -6.110   1.770  -3.197  0.00  0.00    +0.030 A 
ATOM      6  C   LIG    1       -7.402   2.147  -3.395  0.00  0.00    +0.020 A 
ATOM      7  C   LIG    1       -8.252   2.390  -2.317  0.00  0.00    +0.010 A 
ATOM      8  C   LIG    1       -7.814   2.256  -1.036  0.00  0.00    +0.020 A 
ATOM      9  C   LIG    1       -6.486   1.868  -0.792  0.00  0.00    -0.050 A 
ATOM     10  C   LIG    1       -5.997   1.719   0.518  0.00  0.00    +0.030 A 
ATOM     11  C   LIG    1       -4.707   1.336   0.716  0.00  0.00    +0.010 A 
ENDBRANCH   1   2
BRANCH   1  13
ATOM     12  C   LIG    1       -1.529  -1.294   1.000  0.00  0.00    +0.520 C 
ATOM     13  N   LIG    1       -2.392  -0.259   1.018  0.00  0.00    -0.720 N 
ATOM     14  H   LIG    1       -2.988  -0.138   1.773  0.00  0.00    +0.400 HD
ATOM     15  O   LIG    1       -0.854  -1.504   0.015  0.00  0.00    -0.530 OA
BRANCH  12  16
ATOM     16  C   LIG    1       -1.402  -2.191   2.205  0.00  0.00    -0.010 C 
ATOM     17  C   LIG    1       -2.755  -2.843   2.499  0.00  0.00    +0.040 C 
BRANCH  16  18
ATOM     18  C   LIG    1       -0.363  -3.278   1.925  0.00  0.00    +0.040 C 
BRANCH  18  19
ATOM     19  C   LIG    1       -0.143  -4.111   3.189  0.00  0.00    +0.020 C 
BRANCH  19  20
ATOM     20  C   LIG    1        0.897  -5.198   2.909  0.00  0.00    +0.170 C 
BRANCH  20  22
ATOM     21  C   LIG    1        1.276  -6.640   5.095  0.00  0.00    +0.010 C 
ATOM     22  C   LIG    1        1.108  -6.000   4.125  0.00  0.00    -0.190 C 
ENDBRANCH  20  22
ENDBRANCH  19  20
ENDBRANCH  18  19
ENDBRANCH  16  18
ENDBRANCH  12  16
ENDBRANCH   1  13
BRANCH   1  23
ATOM     23  C   LIG    1       -1.592   1.916   0.237  0.00  0.00    +0.260 C 
BRANCH  23  24
ATOM     24  N   LIG    1       -0.224   1.502   0.559  0.00  0.00    -0.720 N 
ATOM     25  H   LIG    1        0.007   0.560   0.577  0.00  0.00    +0.400 HD
ATOM     26  C   LIG    1        0.716   2.431   0.824  0.00  0.00    +0.540 C 
ATOM     27  O   LIG    1        0.427   3.612   0.801  0.00  0.00    -0.540 OA
BRANCH  26  28
ATOM     28  C   LIG    1        2.091   2.017   1.142  0.00  0.00    -0.090 C 
ATOM     29  C   LIG    1        3.018   2.933   1.404  0.00  0.00    +0.140 C 
ENDBRANCH  26  28
ENDBRANCH  23  24
ENDBRANCH   1  23
TORSDOF 10
