REMARK  Name = ZINCnE000001R6xE.0
REMARK                            x       y       z     vdW  Elec       q    Type
REMARK                         _______ _______ _______ _____ _____    ______ ____
ROOT
ATOM      1  C   LIG    1       -2.307  -3.058   0.008  0.00  0.00    +0.170 C 
ENDROOT
BRANCH   1   2
ATOM      2  C   LIG    1       -2.012  -4.536  -0.003  0.00  0.00    +0.220 A 
ATOM      3  N   LIG    1       -1.848  -5.283   1.053  0.00  0.00    -0.480 NA
ATOM      4  C   LIG    1       -1.605  -6.543   0.661  0.00  0.00    +0.170 A 
ATOM      5  C   LIG    1       -1.613  -6.557  -0.697  0.00  0.00    -0.020 A 
ATOM      6  O   LIG    1       -1.870  -5.293  -1.100  0.00  0.00    -0.190 OA
BRANCH   5   7
ATOM      7  C   LIG    1       -1.387  -7.730  -1.567  0.00  0.00    -0.010 A 
ATOM      8  C   LIG    1       -1.433  -7.593  -2.955  0.00  0.00    +0.030 A 
ATOM      9  C   LIG    1       -1.215  -8.691  -3.761  0.00  0.00    +0.010 A 
ATOM     10  C   LIG    1       -0.962  -9.928  -3.196  0.00  0.00    +0.010 A 
ATOM     11  C   LIG    1       -0.921 -10.073  -1.821  0.00  0.00    +0.010 A 
ATOM     12  C   LIG    1       -1.132  -8.982  -1.003  0.00  0.00    +0.030 A 
ENDBRANCH   5   7
ENDBRANCH   1   2
BRANCH   1  13
ATOM     13  C   LIG    1       -0.993  -2.276  -0.001  0.00  0.00    +0.040 C 
BRANCH  13  14
ATOM     14  C   LIG    1       -1.293  -0.775   0.010  0.00  0.00    +0.050 C 
BRANCH  14  16
ATOM     15  N   LIG    1       -0.016   1.344   0.009  0.00  0.00    -0.680 NA
ATOM     16  C   LIG    1        0.002  -0.004   0.002  0.00  0.00    +0.460 C 
ATOM     17  O   LIG    1        1.060  -0.596  -0.011  0.00  0.00    -0.570 OA
BRANCH  15  22
ATOM     18  C   LIG    1        4.082   4.718  -0.013  0.00  0.00    +0.170 C 
ATOM     19  C   LIG    1        3.080   3.592  -0.009  0.00  0.00    -0.090 A 
ATOM     20  N   LIG    1        3.353   2.326  -0.019  0.00  0.00    -0.230 NA
ATOM     21  N   LIG    1        2.369   1.536  -0.013  0.00  0.00    -0.370 NA
ATOM     22  C   LIG    1        1.179   2.055   0.002  0.00  0.00    +0.300 A 
ATOM     23  S   LIG    1        1.324   3.762   0.003  0.00  0.00    -0.010 S 
ENDBRANCH  15  22
ENDBRANCH  14  16
ENDBRANCH  13  14
ENDBRANCH   1  13
TORSDOF 6
