REMARK  Name = ZINCb70000002hot.0
REMARK                            x       y       z     vdW  Elec       q    Type
REMARK                         _______ _______ _______ _____ _____    ______ ____
ROOT
ATOM      1  C   LIG    1        1.285   2.018   0.001  0.00  0.00    +0.180 C 
ATOM      2  C   LIG    1        2.050   1.534  -1.234  0.00  0.00    +0.260 C 
ATOM      3  N   LIG    1        2.124   0.067  -1.217  0.00  0.00    -0.510 N 
ATOM      4  C   LIG    1        0.765  -0.492  -1.232  0.00  0.00    +0.250 C 
ATOM      5  C   LIG    1        0.002  -0.004   0.002  0.00  0.00    +0.250 C 
ATOM      6  H   LIG    1        2.629  -0.254  -2.030  0.00  0.00    +0.440 HD
ATOM      7  H   LIG    1        2.603  -0.237  -0.383  0.00  0.00    +0.430 HD
ATOM      8  O   LIG    1       -0.017   1.426   0.010  0.00  0.00    -0.340 OA
ENDROOT
BRANCH   1  12
ATOM      9  C   LIG    1       -0.534   5.207   0.512  0.00  0.00    +0.000 C 
ATOM     10  C   LIG    1       -0.045   5.276  -0.952  0.00  0.00    +0.220 C 
ATOM     11  O   LIG    1        0.451   3.950  -1.238  0.00  0.00    -0.370 OA
ATOM     12  C   LIG    1        1.154   3.541  -0.044  0.00  0.00    +0.180 C 
ATOM     13  C   LIG    1        0.273   4.040   1.123  0.00  0.00    +0.020 C 
ENDBRANCH   1  12
TORSDOF 1
