REMARK  Name = ZINCtj000001VgbO.1
REMARK                            x       y       z     vdW  Elec       q    Type
REMARK                         _______ _______ _______ _____ _____    ______ ____
ROOT
ATOM      1  C   LIG    1        2.715   0.398   0.790  0.00  0.00    +0.190 C 
ATOM      2  C   LIG    1        2.012   1.654   1.334  0.00  0.00    +0.070 C 
ATOM      3  C   LIG    1        1.248   1.716  -0.001  0.00  0.00    +0.280 C 
ATOM      4  C   LIG    1        2.419   0.942  -0.608  0.00  0.00    -0.130 C 
ATOM      5  C   LIG    1        3.498   1.654  -1.425  0.00  0.00    +0.080 C 
ATOM      6  C   LIG    1        3.663   0.332  -2.196  0.00  0.00    +0.020 C 
ATOM      7  C   LIG    1        2.214   0.002  -1.796  0.00  0.00    +0.070 C 
ENDROOT
BRANCH   3   8
ATOM      8  N   LIG    1       -0.011   0.966   0.007  0.00  0.00    -0.720 N 
ATOM      9  H   LIG    1        0.002  -0.004   0.002  0.00  0.00    +0.410 HD
ATOM     10  C   LIG    1       -1.187   1.624   0.017  0.00  0.00    +0.530 C 
ATOM     11  O   LIG    1       -1.204   2.837   0.023  0.00  0.00    -0.500 OA
BRANCH  10  12
ATOM     12  C   LIG    1       -2.482   0.853   0.018  0.00  0.00    +0.200 C 
BRANCH  12  13
ATOM     13  C   LIG    1       -3.641   1.816   0.029  0.00  0.00    +0.280 A 
ATOM     14  N   LIG    1       -4.237   2.313  -1.024  0.00  0.00    -0.520 NA
ATOM     15  C   LIG    1       -5.219   3.130  -0.645  0.00  0.00    +0.260 A 
ATOM     16  N   LIG    1       -5.262   3.164   0.661  0.00  0.00    -0.300 NA
ATOM     17  N   LIG    1       -4.246   2.311   1.123  0.00  0.00    -0.370 N 
ATOM     18  C   LIG    1       -3.910   2.021   2.519  0.00  0.00    +0.360 C 
BRANCH  15  19
ATOM     19  C   LIG    1       -6.133   3.889  -1.571  0.00  0.00    +0.050 C 
ATOM     20  C   LIG    1       -7.065   4.929  -0.947  0.00  0.00    +0.050 C 
ATOM     21  C   LIG    1       -7.633   3.609  -1.471  0.00  0.00    +0.050 C 
ENDBRANCH  15  19
ENDBRANCH  12  13
ENDBRANCH  10  12
ENDBRANCH   3   8
BRANCH   1  22
ATOM     22  N   LIG    1        4.148   0.340   1.108  0.00  0.00    -0.500 N 
ATOM     23  H   LIG    1        4.524   1.275   1.137  0.00  0.00    +0.430 HD
ATOM     24  H   LIG    1        4.629  -0.194   0.399  0.00  0.00    +0.430 HD
BRANCH  22  25
ATOM     25  C   LIG    1        4.334  -0.304   2.415  0.00  0.00    +0.450 C 
BRANCH  25  29
ATOM     26  C   LIG    1        7.755   0.066   3.439  0.00  0.00    +0.190 A 
ATOM     27  N   LIG    1        7.760  -1.087   2.841  0.00  0.00    -0.340 NA
ATOM     28  O   LIG    1        6.647  -1.355   2.438  0.00  0.00    +0.110 OA
ATOM     29  C   LIG    1        5.804  -0.364   2.741  0.00  0.00    +0.080 A 
ATOM     30  N   LIG    1        6.499   0.544   3.383  0.00  0.00    -0.430 NA
BRANCH  26  32
ATOM     31  C   LIG    1        9.036   0.323   5.547  0.00  0.00    +0.050 C 
ATOM     32  C   LIG    1        8.939   0.744   4.079  0.00  0.00    +0.170 C 
ENDBRANCH  26  32
ENDBRANCH  25  29
ENDBRANCH  22  25
ENDBRANCH   1  22
TORSDOF 8
