REMARK  Name = ZINCrg000000tOFN.0
REMARK                            x       y       z     vdW  Elec       q    Type
REMARK                         _______ _______ _______ _____ _____    ______ ____
ROOT
ATOM      1  O   LIG    1        2.051  -2.690   1.214  0.00  0.00    -0.480 OA
ATOM      2  C   LIG    1        1.071  -2.105   0.796  0.00  0.00    +0.570 A 
ATOM      3  N   LIG    1       -0.109  -2.748   0.646  0.00  0.00    -0.660 N 
ATOM      4  H   LIG    1       -0.173  -3.688   0.875  0.00  0.00    +0.440 HD
ATOM      5  C   LIG    1       -1.194  -2.105   0.185  0.00  0.00    +0.710 A 
ATOM      6  N   LIG    1       -1.185  -0.805  -0.153  0.00  0.00    -0.500 N 
ATOM      7  C   LIG    1       -0.033  -0.051  -0.040  0.00  0.00    +0.430 A 
ATOM      8  N   LIG    1       -0.016   1.231  -0.371  0.00  0.00    -0.500 NA
ATOM      9  C   LIG    1        1.076   1.958  -0.267  0.00  0.00    +0.390 A 
ATOM     10  C   LIG    1        2.274   1.409   0.201  0.00  0.00    -0.230 A 
ATOM     11  C   LIG    1        2.308   0.057   0.564  0.00  0.00    +0.260 A 
ATOM     12  O   LIG    1       -2.231  -2.727   0.069  0.00  0.00    -0.510 OA
ATOM     13  C   LIG    1        1.135  -0.677   0.439  0.00  0.00    -0.250 A 
ENDROOT
BRANCH  10  14
ATOM     14  C   LIG    1        3.487   2.244   0.309  0.00  0.00    +0.570 C 
ATOM     15  N   LIG    1        3.376   3.575   0.491  0.00  0.00    -0.610 N 
ATOM     16  C   LIG    1        2.063   4.201   0.716  0.00  0.00    +0.250 C 
ATOM     17  C   LIG    1        2.160   5.094   1.958  0.00  0.00    +0.220 C 
ATOM     18  O   LIG    1        3.271   5.982   1.813  0.00  0.00    -0.370 OA
ATOM     19  C   LIG    1        4.538   5.326   1.724  0.00  0.00    +0.160 C 
ATOM     20  C   LIG    1        4.563   4.444   0.475  0.00  0.00    +0.270 C 
ATOM     21  O   LIG    1        4.587   1.731   0.235  0.00  0.00    -0.520 OA
BRANCH  19  22
ATOM     22  C   LIG    1        5.651   6.372   1.636  0.00  0.00    +0.000 C 
ATOM     23  C   LIG    1        7.034   5.835   2.041  0.00  0.00    +0.020 C 
ATOM     24  C   LIG    1        7.261   7.184   2.749  0.00  0.00    +0.010 C 
ATOM     25  C   LIG    1        5.731   7.291   2.867  0.00  0.00    +0.030 C 
ENDBRANCH  19  22
ENDBRANCH  10  14
BRANCH   6  26
ATOM     26  C   LIG    1       -2.413  -0.178  -0.648  0.00  0.00    +0.210 C 
ATOM     27  C   LIG    1       -2.813   1.169  -0.042  0.00  0.00    +0.070 C 
ATOM     28  C   LIG    1       -3.600  -0.095   0.313  0.00  0.00    +0.050 C 
ENDBRANCH   6  26
TORSDOF 3
