REMARK  Name = ZINCkj000005lBtv.0
REMARK                            x       y       z     vdW  Elec       q    Type
REMARK                         _______ _______ _______ _____ _____    ______ ____
ROOT
ATOM      1  O   LIG    1        0.957   2.085   2.513  0.00  0.00    -0.510 OA
ATOM      2  C   LIG    1       -0.244   2.049   2.350  0.00  0.00    +0.540 C 
ATOM      3  N   LIG    1       -0.754   1.588   1.191  0.00  0.00    -0.630 N 
ATOM      4  C   LIG    1       -2.184   1.468   0.806  0.00  0.00    +0.270 C 
ATOM      5  C   LIG    1       -2.225   1.877  -0.685  0.00  0.00    +0.070 C 
ATOM      6  C   LIG    1       -0.803   1.618  -1.194  0.00  0.00    -0.100 C 
ATOM      7  C   LIG    1       -0.801   0.610  -2.349  0.00  0.00    +0.090 C 
ATOM      8  C   LIG    1       -0.163   1.373  -3.534  0.00  0.00    +0.280 C 
ATOM      9  N   LIG    1        0.654   2.438  -2.898  0.00  0.00    -0.520 N 
ATOM     10  H   LIG    1        0.811   3.196  -3.546  0.00  0.00    +0.440 HD
ATOM     11  H   LIG    1        1.533   2.062  -2.573  0.00  0.00    +0.430 HD
ATOM     12  C   LIG    1       -0.170   2.900  -1.748  0.00  0.00    +0.290 C 
ATOM     13  C   LIG    1       -0.013   1.086   0.008  0.00  0.00    +0.290 C 
ENDROOT
BRANCH   2  14
ATOM     14  C   LIG    1       -1.167   2.519   3.445  0.00  0.00    +0.040 C 
BRANCH  14  15
ATOM     15  C   LIG    1       -0.339   2.988   4.643  0.00  0.00    +0.280 C 
BRANCH  15  16
ATOM     16  C   LIG    1       -1.260   3.343   5.782  0.00  0.00    -0.130 A 
ATOM     17  C   LIG    1       -1.901   4.567   5.797  0.00  0.00    +0.010 A 
ATOM     18  C   LIG    1       -2.750   4.890   6.839  0.00  0.00    +0.010 A 
ATOM     19  C   LIG    1       -2.949   3.994   7.872  0.00  0.00    +0.020 A 
ATOM     20  C   LIG    1       -2.303   2.771   7.860  0.00  0.00    +0.020 A 
ATOM     21  C   LIG    1       -1.459   2.446   6.815  0.00  0.00    +0.010 A 
ENDBRANCH  15  16
BRANCH  15  22
ATOM     22  O   LIG    1        0.425   4.137   4.274  0.00  0.00    -0.540 OA
ATOM     23  H   LIG    1       -0.109   4.889   3.985  0.00  0.00    +0.370 HD
ENDBRANCH  15  22
ENDBRANCH  14  15
ENDBRANCH   2  14
TORSDOF 4
