REMARK  Name = ZINCrH000004jrqp.0
REMARK                            x       y       z     vdW  Elec       q    Type
REMARK                         _______ _______ _______ _____ _____    ______ ____
ROOT
ATOM      1  C   LIG    1        1.730   5.731   0.016  0.00  0.00    +0.600 C 
ATOM      2  N   LIG    1        1.996   4.410   0.007  0.00  0.00    -0.600 N 
ATOM      3  H   LIG    1        2.916   4.101  -0.003  0.00  0.00    +0.430 HD
ATOM      4  O   LIG    1        0.578   6.119   0.028  0.00  0.00    -0.490 OA
ENDROOT
BRANCH   1   7
ATOM      5  N   LIG    1        5.097   7.077  -0.008  0.00  0.00    -0.350 N 
ATOM      6  N   LIG    1        4.083   6.297  -0.003  0.00  0.00    -0.180 NA
ATOM      7  C   LIG    1        2.837   6.707   0.011  0.00  0.00    +0.050 A 
ATOM      8  C   LIG    1        2.557   8.152   0.014  0.00  0.00    -0.030 A 
ATOM      9  C   LIG    1        1.266   8.668   0.023  0.00  0.00    +0.070 A 
ATOM     10  C   LIG    1        1.084  10.036   0.026  0.00  0.00    +0.060 A 
ATOM     11  C   LIG    1        2.172  10.898   0.020  0.00  0.00    +0.030 A 
ATOM     12  C   LIG    1        3.461  10.406   0.024  0.00  0.00    +0.090 A 
ATOM     13  C   LIG    1        3.665   9.030   0.016  0.00  0.00    -0.140 A 
ATOM     14  C   LIG    1        5.003   8.422   0.001  0.00  0.00    +0.520 A 
ATOM     15  O   LIG    1        6.003   9.117  -0.004  0.00  0.00    -0.490 OA
BRANCH   5  17
ATOM     16  C   LIG    1        6.911   6.259   1.415  0.00  0.00    +0.040 C 
ATOM     17  C   LIG    1        6.433   6.476  -0.023  0.00  0.00    +0.330 C 
ENDBRANCH   5  17
ENDBRANCH   1   7
BRANCH   2  18
ATOM     18  C   LIG    1        0.955   3.492   0.011  0.00  0.00    +0.270 A 
ATOM     19  N   LIG    1        1.093   2.203   0.004  0.00  0.00    -0.490 NA
ATOM     20  C   LIG    1       -0.018   1.479   0.010  0.00  0.00    +0.130 A 
ATOM     21  C   LIG    1       -1.165   2.182   0.019  0.00  0.00    -0.110 A 
ATOM     22  S   LIG    1       -0.759   3.897   0.029  0.00  0.00    +0.210 S 
BRANCH  20  23
ATOM     23  C   LIG    1        0.002  -0.004   0.002  0.00  0.00    -0.020 A 
ATOM     24  C   LIG    1       -1.194  -0.720   0.015  0.00  0.00    +0.030 A 
ATOM     25  C   LIG    1       -1.169  -2.100   0.001  0.00  0.00    +0.010 A 
ATOM     26  C   LIG    1        0.040  -2.772  -0.014  0.00  0.00    +0.010 A 
ATOM     27  C   LIG    1        1.230  -2.067  -0.020  0.00  0.00    +0.010 A 
ATOM     28  C   LIG    1        1.217  -0.687  -0.013  0.00  0.00    +0.040 A 
ENDBRANCH  20  23
ENDBRANCH   2  18
TORSDOF 4
