REMARK  Name = ZINCpk00000e9bSJ.0
REMARK                            x       y       z     vdW  Elec       q    Type
REMARK                         _______ _______ _______ _____ _____    ______ ____
ROOT
ATOM      1  C   LIG    1        0.057   5.730  -0.160  0.00  0.00    +0.510 C 
ATOM      2  O   LIG    1        1.057   6.407  -0.026  0.00  0.00    -0.500 OA
ENDROOT
BRANCH   1   3
ATOM      3  C   LIG    1        0.172   4.271  -0.350  0.00  0.00    -0.120 A 
ATOM      4  C   LIG    1        1.432   3.666  -0.376  0.00  0.00    +0.130 A 
ATOM      5  C   LIG    1        1.536   2.304  -0.553  0.00  0.00    +0.040 A 
ATOM      6  C   LIG    1        0.390   1.532  -0.706  0.00  0.00    +0.170 A 
ATOM      7  C   LIG    1       -0.865   2.131  -0.686  0.00  0.00    +0.010 A 
ATOM      8  C   LIG    1       -0.977   3.492  -0.504  0.00  0.00    +0.130 A 
BRANCH   6   9
ATOM      9  N   LIG    1        0.499   0.148  -0.886  0.00  0.00    -0.340 N 
ATOM     10  C   LIG    1       -0.506  -0.741  -1.043  0.00  0.00    +0.470 A 
ATOM     11  N   LIG    1        0.038  -1.921  -1.183  0.00  0.00    -0.320 NA
ATOM     12  N   LIG    1        1.318  -1.840  -1.117  0.00  0.00    -0.030 NA
ATOM     13  N   LIG    1        1.679  -0.615  -0.937  0.00  0.00    -0.070 NA
ENDBRANCH   6   9
ENDBRANCH   1   3
BRANCH   1  14
ATOM     14  O   LIG    1       -1.158   6.312  -0.136  0.00  0.00    -0.320 OA
BRANCH  14  15
ATOM     15  C   LIG    1       -1.196   7.751   0.055  0.00  0.00    +0.180 C 
ATOM     16  C   LIG    1       -1.272   8.066   1.551  0.00  0.00    +0.080 C 
BRANCH  15  23
ATOM     17  C   LIG    1       -2.045  13.184  -3.070  0.00  0.00    +0.020 C 
ATOM     18  C   LIG    1       -2.405  12.213  -1.943  0.00  0.00    -0.020 C 
ATOM     19  C   LIG    1       -1.137  11.510  -1.451  0.00  0.00    +0.020 C 
ATOM     20  C   LIG    1       -1.496  10.565  -0.300  0.00  0.00    +0.270 C 
ATOM     21  N   LIG    1       -2.557   9.653  -0.751  0.00  0.00    -0.610 N 
ATOM     22  C   LIG    1       -3.780  10.223  -1.330  0.00  0.00    +0.280 C 
ATOM     23  C   LIG    1       -2.407   8.318  -0.639  0.00  0.00    +0.520 C 
ATOM     24  O   LIG    1       -3.247   7.574  -1.098  0.00  0.00    -0.520 OA
ATOM     25  C   LIG    1       -3.398  11.172  -2.465  0.00  0.00    +0.020 C 
ENDBRANCH  15  23
ENDBRANCH  14  15
ENDBRANCH   1  14
TORSDOF 5
