REMARK  Name = ZINCrD00000hQ5dm.0
REMARK                            x       y       z     vdW  Elec       q    Type
REMARK                         _______ _______ _______ _____ _____    ______ ____
ROOT
ATOM      1  N   LIG    1       -0.875   1.865   1.354  0.00  0.00    -1.100 NA
ATOM      2  H   LIG    1       -0.517   2.538   1.955  0.00  0.00    +0.430 HD
ENDROOT
BRANCH   1   7
ATOM      3  C   LIG    1       -6.698   1.212   1.823  0.00  0.00    +0.020 A 
ATOM      4  C   LIG    1       -5.821   1.898   1.063  0.00  0.00    +0.120 A 
ATOM      5  N   LIG    1       -4.579   1.627   1.556  0.00  0.00    -0.450 N 
ATOM      6  C   LIG    1       -3.292   2.132   1.073  0.00  0.00    +0.270 C 
ATOM      7  C   LIG    1       -2.173   1.247   1.634  0.00  0.00    +0.250 C 
ATOM      8  C   LIG    1       -2.350   1.097   3.148  0.00  0.00    +0.050 C 
ATOM      9  C   LIG    1       -3.592   0.242   3.429  0.00  0.00    +0.170 C 
ATOM     10  C   LIG    1       -4.735   0.783   2.604  0.00  0.00    +0.200 A 
ATOM     11  N   LIG    1       -6.004   0.539   2.756  0.00  0.00    -0.470 NA
BRANCH   3  13
ATOM     12  C   LIG    1       -8.567   0.341   0.445  0.00  0.00    +0.030 C 
ATOM     13  C   LIG    1       -8.195   1.201   1.655  0.00  0.00    +0.010 C 
ATOM     14  C   LIG    1       -8.695   2.630   1.437  0.00  0.00    +0.030 C 
ATOM     15  C   LIG    1       -8.845   0.619   2.912  0.00  0.00    +0.030 C 
ENDBRANCH   3  13
ENDBRANCH   1   7
BRANCH   1  16
ATOM     16  S   LIG    1       -0.017   1.417   0.010  0.00  0.00    +2.720 S 
ATOM     17  O   LIG    1        1.162   2.210   0.003  0.00  0.00    -0.920 OA
ATOM     18  O   LIG    1        0.002  -0.004   0.002  0.00  0.00    -0.920 OA
BRANCH  16  19
ATOM     19  C   LIG    1       -0.957   1.909  -1.397  0.00  0.00    -0.540 A 
ATOM     20  C   LIG    1       -0.856   3.097  -2.009  0.00  0.00    +0.120 A 
ATOM     21  C   LIG    1       -1.816   3.068  -3.119  0.00  0.00    -0.130 A 
ATOM     22  C   LIG    1       -2.185   3.975  -4.111  0.00  0.00    +0.060 A 
ATOM     23  C   LIG    1       -3.151   3.623  -5.031  0.00  0.00    +0.080 A 
ATOM     24  C   LIG    1       -3.753   2.372  -4.969  0.00  0.00    +0.060 A 
ATOM     25  C   LIG    1       -3.395   1.468  -3.992  0.00  0.00    +0.070 A 
ATOM     26  F   LIG    1       -3.514   4.497  -5.995  0.00  0.00    -0.130 F 
ATOM     27  C   LIG    1       -2.425   1.804  -3.057  0.00  0.00    +0.070 A 
ATOM     28  O   LIG    1       -1.874   1.146  -2.015  0.00  0.00    -0.140 OA
ENDBRANCH  16  19
ENDBRANCH   1  16
TORSDOF 4
