REMARK  Name = ZINCrD00000hQ6gp.0
REMARK                            x       y       z     vdW  Elec       q    Type
REMARK                         _______ _______ _______ _____ _____    ______ ____
ROOT
ATOM      1  C   LIG    1       -2.589   5.162   3.423  0.00  0.00    -0.220 C 
ATOM      2  C   LIG    1       -1.433   5.781   3.093  0.00  0.00    +0.110 C 
ATOM      3  C   LIG    1       -1.162   5.571   1.657  0.00  0.00    +0.530 C 
ATOM      4  N   LIG    1       -2.142   4.831   1.108  0.00  0.00    -0.590 N 
ATOM      5  O   LIG    1       -0.196   6.003   1.059  0.00  0.00    -0.500 OA
ATOM      6  C   LIG    1       -3.116   4.520   2.161  0.00  0.00    +0.350 C 
ENDROOT
BRANCH   6   7
ATOM      7  C   LIG    1       -4.464   5.094   1.807  0.00  0.00    -0.090 A 
ATOM      8  C   LIG    1       -4.560   6.391   1.336  0.00  0.00    +0.020 A 
ATOM      9  C   LIG    1       -5.794   6.919   1.005  0.00  0.00    +0.030 A 
ATOM     10  C   LIG    1       -6.936   6.156   1.155  0.00  0.00    +0.000 A 
ATOM     11  C   LIG    1       -6.842   4.856   1.632  0.00  0.00    +0.110 A 
ATOM     12  C   LIG    1       -5.602   4.327   1.958  0.00  0.00    +0.000 A 
BRANCH  11  13
ATOM     13  O   LIG    1       -7.964   4.103   1.780  0.00  0.00    -0.500 OA
ATOM     14  H   LIG    1       -8.379   4.182   2.649  0.00  0.00    +0.390 HD
ENDBRANCH  11  13
ENDBRANCH   6   7
BRANCH   1  16
ATOM     15  O   LIG    1       -3.639   6.154   5.251  0.00  0.00    -0.410 OA
ATOM     16  C   LIG    1       -3.215   5.127   4.750  0.00  0.00    +0.520 C 
BRANCH  16  17
ATOM     17  C   LIG    1       -3.330   3.857   5.473  0.00  0.00    -0.110 A 
ATOM     18  C   LIG    1       -3.978   3.662   6.674  0.00  0.00    +0.050 A 
ATOM     19  C   LIG    1       -3.836   2.303   6.988  0.00  0.00    -0.070 A 
ATOM     20  C   LIG    1       -3.123   1.734   5.989  0.00  0.00    +0.220 A 
ATOM     21  O   LIG    1       -2.826   2.670   5.078  0.00  0.00    -0.150 OA
ENDBRANCH  16  17
ENDBRANCH   1  16
BRANCH   2  22
ATOM     22  O   LIG    1       -0.647   6.481   3.945  0.00  0.00    -0.430 OA
ATOM     23  H   LIG    1        0.143   6.856   3.533  0.00  0.00    +0.420 HD
ENDBRANCH   2  22
BRANCH   4  24
ATOM     24  C   LIG    1       -2.226   4.414  -0.294  0.00  0.00    +0.450 C 
BRANCH  24  25
ATOM     25  C   LIG    1       -1.534   3.086  -0.466  0.00  0.00    -0.050 A 
ATOM     26  C   LIG    1       -2.112   1.877  -0.352  0.00  0.00    -0.030 A 
ATOM     27  C   LIG    1       -1.102   0.916  -0.587  0.00  0.00    -0.070 A 
ATOM     28  C   LIG    1        0.031   1.596  -0.840  0.00  0.00    +0.170 A 
ATOM     29  O   LIG    1       -0.237   2.910  -0.765  0.00  0.00    -0.170 OA
ENDBRANCH  24  25
ENDBRANCH   4  24
TORSDOF 7
