REMARK  Name = ZINCrH000004jkQ2.0
REMARK                            x       y       z     vdW  Elec       q    Type
REMARK                         _______ _______ _______ _____ _____    ______ ____
ROOT
ATOM      1  C   LIG    1        3.280  -4.529   3.793  0.00  0.00    +0.150 A 
ATOM      2  C   LIG    1        2.115  -4.407   4.539  0.00  0.00    +0.000 A 
ATOM      3  C   LIG    1        1.253  -3.349   4.315  0.00  0.00    +0.050 A 
ATOM      4  C   LIG    1        1.548  -2.405   3.352  0.00  0.00    +0.000 A 
ATOM      5  C   LIG    1        2.713  -2.522   2.594  0.00  0.00    +0.010 A 
ATOM      6  C   LIG    1        3.582  -3.588   2.820  0.00  0.00    +0.070 A 
ENDROOT
BRANCH   5   7
ATOM      7  C   LIG    1        3.029  -1.514   1.558  0.00  0.00    +0.210 A 
ATOM      8  N   LIG    1        4.211  -1.274   1.030  0.00  0.00    -0.270 NA
ATOM      9  N   LIG    1        4.114  -0.335   0.156  0.00  0.00    -0.290 NA
ATOM     10  C   LIG    1        2.877   0.070   0.073  0.00  0.00    +0.190 A 
ATOM     11  C   LIG    1        2.326   1.132  -0.842  0.00  0.00    +0.150 C 
ATOM     12  C   LIG    1        1.422   2.068  -0.035  0.00  0.00    +0.030 C 
ATOM     13  C   LIG    1       -0.001   1.518  -0.021  0.00  0.00    +0.020 C 
ATOM     14  C   LIG    1        0.013  -0.009  -0.025  0.00  0.00    +0.030 C 
ATOM     15  C   LIG    1        0.719  -0.522   1.233  0.00  0.00    +0.290 C 
ATOM     16  N   LIG    1        2.151  -0.654   0.965  0.00  0.00    -0.470 N 
ENDBRANCH   5   7
BRANCH   1  18
ATOM     17  C   LIG    1        5.480  -5.427   3.900  0.00  0.00    +0.600 C 
ATOM     18  N   LIG    1        4.149  -5.601   4.023  0.00  0.00    -0.670 N 
ATOM     19  H   LIG    1        3.794  -6.468   4.272  0.00  0.00    +0.420 HD
ATOM     20  O   LIG    1        5.932  -4.319   3.686  0.00  0.00    -0.490 OA
BRANCH  17  26
ATOM     21  C   LIG    1        6.868  -7.489   2.971  0.00  0.00    +0.060 A 
ATOM     22  N   LIG    1        7.644  -8.338   3.575  0.00  0.00    -0.350 NA
ATOM     23  O   LIG    1        7.717  -8.129   4.761  0.00  0.00    +0.100 OA
ATOM     24  C   LIG    1        6.991  -7.079   5.154  0.00  0.00    +0.030 A 
ATOM     25  C   LIG    1        6.859  -6.546   6.558  0.00  0.00    +0.220 C 
ATOM     26  C   LIG    1        6.388  -6.582   4.025  0.00  0.00    -0.260 A 
BRANCH  21  28
ATOM     27  C   LIG    1        7.551  -6.561   0.775  0.00  0.00    +0.040 C 
ATOM     28  C   LIG    1        6.533  -7.442   1.502  0.00  0.00    +0.130 C 
ENDBRANCH  21  28
ENDBRANCH  17  26
ENDBRANCH   1  18
TORSDOF 4
