REMARK  Name = ZINCvU00000008fj.0
REMARK                            x       y       z     vdW  Elec       q    Type
REMARK                         _______ _______ _______ _____ _____    ______ ____
ROOT
ATOM      1  C   LIG    1       -0.996  -6.342  -2.601  0.00  0.00    +0.040 C 
ENDROOT
BRANCH   1   2
ATOM      2  C   LIG    1       -1.061  -4.818  -2.710  0.00  0.00    +0.040 C 
BRANCH   2   3
ATOM      3  C   LIG    1        0.346  -4.262  -2.941  0.00  0.00    +0.230 C 
BRANCH   3   4
ATOM      4  O   LIG    1        0.284  -2.815  -3.043  0.00  0.00    -0.350 OA
BRANCH   4   6
ATOM      5  O   LIG    1        2.474  -2.791  -3.339  0.00  0.00    -0.470 OA
ATOM      6  C   LIG    1        1.442  -2.168  -3.248  0.00  0.00    +0.470 C 
BRANCH   6   7
ATOM      7  C   LIG    1        1.456  -0.666  -3.365  0.00  0.00    +0.190 C 
ATOM      8  C   LIG    1        1.029  -0.039  -2.031  0.00  0.00    +0.270 C 
ATOM      9  O   LIG    1        1.065   1.385  -2.174  0.00  0.00    -0.300 OA
ATOM     10  C   LIG    1        2.170   1.913  -2.767  0.00  0.00    +0.050 A 
ATOM     11  C   LIG    1        2.441   3.265  -2.620  0.00  0.00    +0.030 A 
ATOM     12  C   LIG    1        3.559   3.816  -3.219  0.00  0.00    +0.030 A 
ATOM     13  C   LIG    1        4.409   3.021  -3.965  0.00  0.00    +0.030 A 
ATOM     14  C   LIG    1        4.145   1.673  -4.114  0.00  0.00    +0.030 A 
ATOM     15  C   LIG    1        3.026   1.113  -3.515  0.00  0.00    +0.050 A 
ATOM     16  O   LIG    1        2.781  -0.217  -3.668  0.00  0.00    -0.280 OA
ENDBRANCH   6   7
ENDBRANCH   4   6
ENDBRANCH   3   4
ENDBRANCH   2   3
ENDBRANCH   1   2
BRANCH   1  17
ATOM     17  C   LIG    1       -2.402  -6.898  -2.370  0.00  0.00    +0.100 C 
BRANCH  17  18
ATOM     18  C   LIG    1       -2.916  -6.425  -1.034  0.00  0.00    -0.090 A 
ATOM     19  C   LIG    1       -2.155  -6.614   0.104  0.00  0.00    +0.040 A 
ATOM     20  C   LIG    1       -2.623  -6.176   1.329  0.00  0.00    -0.010 A 
ATOM     21  C   LIG    1       -3.858  -5.558   1.417  0.00  0.00    +0.100 A 
ATOM     22  C   LIG    1       -4.622  -5.374   0.276  0.00  0.00    -0.010 A 
ATOM     23  F   LIG    1       -4.319  -5.135   2.614  0.00  0.00    -0.140 F 
ATOM     24  C   LIG    1       -4.150  -5.808  -0.948  0.00  0.00    +0.050 A 
ENDBRANCH  17  18
BRANCH  17  25
ATOM     25  C   LIG    1       -2.357  -8.404  -2.386  0.00  0.00    -0.090 A 
ATOM     26  C   LIG    1       -1.451  -9.076  -1.587  0.00  0.00    +0.040 A 
ATOM     27  C   LIG    1       -1.412 -10.457  -1.596  0.00  0.00    -0.010 A 
ATOM     28  C   LIG    1       -2.272 -11.168  -2.416  0.00  0.00    +0.100 A 
ATOM     29  C   LIG    1       -3.175 -10.494  -3.220  0.00  0.00    -0.010 A 
ATOM     30  F   LIG    1       -2.231 -12.518  -2.431  0.00  0.00    -0.140 F 
ATOM     31  C   LIG    1       -3.217  -9.113  -3.204  0.00  0.00    +0.050 A 
ENDBRANCH  17  25
ENDBRANCH   1  17
TORSDOF 8
