REMARK  Name = ZINCrH000004tG8Y.0
REMARK                            x       y       z     vdW  Elec       q    Type
REMARK                         _______ _______ _______ _____ _____    ______ ____
ROOT
ATOM      1  O   LIG    1        0.758   6.363  -1.577  0.00  0.00    -0.530 OA
ATOM      2  C   LIG    1        0.329   6.592  -0.466  0.00  0.00    +0.520 C 
ATOM      3  N   LIG    1       -0.158   5.588   0.289  0.00  0.00    -0.720 N 
ATOM      4  H   LIG    1       -0.501   5.771   1.178  0.00  0.00    +0.410 HD
ENDROOT
BRANCH   3   5
ATOM      5  C   LIG    1       -0.167   4.218  -0.231  0.00  0.00    +0.200 C 
ATOM      6  C   LIG    1       -1.229   3.387   0.504  0.00  0.00    +0.280 C 
ATOM      7  O   LIG    1       -1.198   2.045   0.019  0.00  0.00    -0.300 OA
ATOM      8  C   LIG    1       -0.017   1.384   0.010  0.00  0.00    +0.170 A 
ATOM      9  C   LIG    1        0.002  -0.004   0.002  0.00  0.00    -0.020 A 
ATOM     10  C   LIG    1        1.206  -0.680  -0.018  0.00  0.00    +0.090 A 
ATOM     11  C   LIG    1        2.406   0.013  -0.031  0.00  0.00    -0.030 A 
ATOM     12  C   LIG    1        2.411   1.392  -0.022  0.00  0.00    +0.110 A 
ATOM     13  C   LIG    1        1.200   2.085   0.002  0.00  0.00    -0.250 A 
ATOM     14  C   LIG    1        1.176   3.558   0.024  0.00  0.00    +0.390 C 
ATOM     15  O   LIG    1        2.177   4.210   0.236  0.00  0.00    -0.420 OA
ENDBRANCH   3   5
BRANCH   2  16
ATOM     16  C   LIG    1        0.339   8.001   0.069  0.00  0.00    +0.060 C 
BRANCH  16  17
ATOM     17  C   LIG    1        0.937   8.941  -0.979  0.00  0.00    +0.040 C 
BRANCH  17  18
ATOM     18  C   LIG    1        0.947  10.371  -0.436  0.00  0.00    +0.080 C 
BRANCH  18  19
ATOM     19  C   LIG    1        1.537  11.297  -1.468  0.00  0.00    -0.080 A 
ATOM     20  C   LIG    1        0.717  11.903  -2.401  0.00  0.00    +0.050 A 
ATOM     21  C   LIG    1        1.258  12.753  -3.349  0.00  0.00    +0.020 A 
ATOM     22  C   LIG    1        2.619  12.995  -3.363  0.00  0.00    +0.060 A 
ATOM     23  C   LIG    1        3.438  12.389  -2.429  0.00  0.00    -0.180 A 
ATOM     24  C   LIG    1        2.897  11.543  -1.480  0.00  0.00    +0.060 A 
BRANCH  23  25
ATOM     25  C   LIG    1        4.922  12.654  -2.444  0.00  0.00    +0.510 C 
ATOM     26  F   LIG    1        5.609  11.451  -2.638  0.00  0.00    -0.180 F 
ATOM     27  F   LIG    1        5.307  13.220  -1.224  0.00  0.00    -0.180 F 
ATOM     28  F   LIG    1        5.227  13.537  -3.486  0.00  0.00    -0.180 F 
ENDBRANCH  23  25
ENDBRANCH  18  19
ENDBRANCH  17  18
ENDBRANCH  16  17
ENDBRANCH   2  16
TORSDOF 6
