REMARK  Name = ZINCtV00000L44Di.0
REMARK                            x       y       z     vdW  Elec       q    Type
REMARK                         _______ _______ _______ _____ _____    ______ ____
ROOT
ATOM      1  C   LIG    1        0.215   2.712  -0.985  0.00  0.00    +0.110 C 
ENDROOT
BRANCH   1   2
ATOM      2  C   LIG    1       -0.434   2.353  -2.297  0.00  0.00    +0.540 C 
ATOM      3  N   LIG    1       -0.070   1.229  -2.944  0.00  0.00    -0.590 N 
ATOM      4  O   LIG    1       -1.285   3.076  -2.770  0.00  0.00    -0.520 OA
BRANCH   3   5
ATOM      5  C   LIG    1        0.836   0.274  -2.300  0.00  0.00    +0.160 C 
ATOM      6  C   LIG    1        2.079   1.009  -1.797  0.00  0.00    +0.030 C 
ATOM      7  C   LIG    1        1.250  -0.797  -3.310  0.00  0.00    +0.050 C 
ATOM      8  C   LIG    1        0.122  -0.388  -1.119  0.00  0.00    +0.020 C 
ENDBRANCH   3   5
BRANCH   3   9
ATOM      9  C   LIG    1       -0.578   0.961  -4.291  0.00  0.00    +0.340 C 
BRANCH   9  10
ATOM     10  C   LIG    1        0.269   1.690  -5.302  0.00  0.00    -0.110 A 
ATOM     11  C   LIG    1        0.043   3.030  -5.556  0.00  0.00    +0.030 A 
ATOM     12  C   LIG    1        0.823   3.700  -6.479  0.00  0.00    +0.000 A 
ATOM     13  C   LIG    1        1.823   3.027  -7.157  0.00  0.00    +0.000 A 
ATOM     14  C   LIG    1        2.046   1.686  -6.907  0.00  0.00    +0.000 A 
ATOM     15  C   LIG    1        1.269   1.018  -5.979  0.00  0.00    +0.010 A 
ENDBRANCH   9  10
ENDBRANCH   3   9
ENDBRANCH   1   2
BRANCH   1  16
ATOM     16  S   LIG    1       -0.597   4.172  -0.289  0.00  0.00    +0.010 S 
BRANCH  16  23
ATOM     17  C   LIG    1        4.369   3.983   6.148  0.00  0.00    +0.090 C 
ATOM     18  C   LIG    1        3.541   3.868   4.894  0.00  0.00    -0.080 A 
ATOM     19  C   LIG    1        2.546   4.768   4.660  0.00  0.00    +0.030 A 
ATOM     20  C   LIG    1        1.774   4.662   3.494  0.00  0.00    -0.100 A 
ATOM     21  C   LIG    1        0.736   5.575   3.218  0.00  0.00    -0.010 A 
ATOM     22  C   LIG    1        0.024   5.416   2.067  0.00  0.00    -0.020 A 
ATOM     23  C   LIG    1        0.334   4.363   1.194  0.00  0.00    +0.140 A 
ATOM     24  N   LIG    1        1.303   3.509   1.460  0.00  0.00    -0.490 NA
ATOM     25  C   LIG    1        0.422   6.699   4.171  0.00  0.00    +0.120 C 
ATOM     26  C   LIG    1        2.039   3.620   2.572  0.00  0.00    +0.140 A 
ATOM     27  C   LIG    1        3.074   2.710   2.848  0.00  0.00    -0.060 A 
ATOM     28  C   LIG    1        3.375   1.592   1.883  0.00  0.00    +0.110 C 
ATOM     29  C   LIG    1        3.803   2.842   3.989  0.00  0.00    +0.030 A 
ENDBRANCH  16  23
ENDBRANCH   1  16
TORSDOF 6
