REMARK  Name = ZINCrD00000F5LnY.0
REMARK                            x       y       z     vdW  Elec       q    Type
REMARK                         _______ _______ _______ _____ _____    ______ ____
ROOT
ATOM      1  C   LIG    1        2.422   1.186  -0.015  0.00  0.00    +0.350 C 
ENDROOT
BRANCH   1   2
ATOM      2  C   LIG    1        3.495   2.061   0.580  0.00  0.00    +0.160 A 
ATOM      3  N   LIG    1        3.694   3.329   0.326  0.00  0.00    -0.280 NA
ATOM      4  N   LIG    1        4.698   3.758   1.011  0.00  0.00    -0.290 NA
ATOM      5  C   LIG    1        5.180   2.788   1.727  0.00  0.00    +0.190 A 
ATOM      6  C   LIG    1        6.350   2.814   2.678  0.00  0.00    +0.170 C 
ATOM      7  C   LIG    1        6.765   1.365   2.965  0.00  0.00    -0.020 C 
ATOM      8  C   LIG    1        5.523   0.545   3.327  0.00  0.00    +0.050 C 
ATOM      9  C   LIG    1        4.640   0.374   2.086  0.00  0.00    +0.300 C 
ATOM     10  C   LIG    1        7.754   1.339   4.132  0.00  0.00    +0.030 C 
ATOM     11  N   LIG    1        4.426   1.687   1.479  0.00  0.00    -0.460 N 
ENDBRANCH   1   2
BRANCH   1  12
ATOM     12  N   LIG    1        1.143   1.901   0.001  0.00  0.00    -0.690 N 
ATOM     13  H   LIG    1        1.130   2.871   0.007  0.00  0.00    +0.420 HD
ATOM     14  C   LIG    1       -0.014   1.211   0.009  0.00  0.00    +0.580 C 
ATOM     15  O   LIG    1        0.002  -0.004   0.002  0.00  0.00    -0.510 OA
BRANCH  14  16
ATOM     16  C   LIG    1       -1.307   1.934   0.019  0.00  0.00    +0.180 A 
ATOM     17  C   LIG    1       -2.533   1.221   0.021  0.00  0.00    -0.130 A 
ATOM     18  C   LIG    1       -2.795  -0.202   0.013  0.00  0.00    +0.070 A 
ATOM     19  C   LIG    1       -4.075  -0.532   0.017  0.00  0.00    -0.010 A 
ATOM     20  S   LIG    1       -5.103   0.888   0.031  0.00  0.00    +0.180 S 
ATOM     21  C   LIG    1       -3.721   1.973   0.031  0.00  0.00    +0.080 A 
ATOM     22  N   LIG    1       -3.644   3.303   0.039  0.00  0.00    -0.470 NA
ATOM     23  C   LIG    1       -2.481   3.917   0.037  0.00  0.00    +0.520 A 
ATOM     24  N   LIG    1       -1.339   3.261   0.032  0.00  0.00    -0.490 NA
ENDBRANCH  14  16
ENDBRANCH   1  12
BRANCH   1  25
ATOM     25  C   LIG    1        2.792   0.835  -1.457  0.00  0.00    +0.030 C 
BRANCH  25  27
ATOM     26  C   LIG    1        2.066  -0.408  -3.499  0.00  0.00    +0.010 C 
ATOM     27  C   LIG    1        1.768  -0.153  -2.020  0.00  0.00    -0.010 C 
ATOM     28  C   LIG    1        1.854  -1.472  -1.248  0.00  0.00    +0.020 C 
ENDBRANCH  25  27
ENDBRANCH   1  25
TORSDOF 5
