REMARK  Name = ZINCpk00001AZirf.0
REMARK                            x       y       z     vdW  Elec       q    Type
REMARK                         _______ _______ _______ _____ _____    ______ ____
ROOT
ATOM      1  C   LIG    1        6.931  -4.797  -1.363  0.00  0.00    +0.570 C 
ATOM      2  N   LIG    1        5.726  -5.373  -1.547  0.00  0.00    -0.600 N 
ATOM      3  C   LIG    1        5.617  -6.815  -1.806  0.00  0.00    +0.260 C 
ATOM      4  C   LIG    1        4.645  -7.426  -0.792  0.00  0.00    +0.030 C 
ATOM      5  C   LIG    1        3.313  -6.675  -0.851  0.00  0.00    +0.060 C 
ATOM      6  C   LIG    1        3.537  -5.206  -0.482  0.00  0.00    +0.130 C 
ATOM      7  C   LIG    1        4.496  -4.570  -1.492  0.00  0.00    +0.260 C 
ATOM      8  O   LIG    1        7.014  -3.592  -1.225  0.00  0.00    -0.520 OA
ENDROOT
BRANCH   1  13
ATOM      9  C   LIG    1       10.173  -6.342  -0.222  0.00  0.00    -0.020 A 
ATOM     10  C   LIG    1       10.441  -7.205  -1.285  0.00  0.00    +0.090 A 
ATOM     11  C   LIG    1        9.572  -7.278  -2.357  0.00  0.00    +0.020 A 
ATOM     12  C   LIG    1        8.434  -6.499  -2.387  0.00  0.00    +0.080 A 
ATOM     13  C   LIG    1        8.150  -5.630  -1.330  0.00  0.00    -0.160 A 
ATOM     14  C   LIG    1        9.025  -5.547  -0.246  0.00  0.00    +0.170 A 
ATOM     15  F   LIG    1        8.761  -4.705   0.777  0.00  0.00    -0.120 F 
BRANCH   9  17
ATOM     16  C   LIG    1       11.814  -6.208   1.798  0.00  0.00    +0.090 C 
ATOM     17  C   LIG    1       11.075  -6.269   0.888  0.00  0.00    -0.170 C 
ENDBRANCH   9  17
ENDBRANCH   1  13
BRANCH   6  18
ATOM     18  O   LIG    1        4.100  -5.125   0.829  0.00  0.00    -0.550 OA
ATOM     19  H   LIG    1        4.270  -4.221   1.129  0.00  0.00    +0.380 HD
ENDBRANCH   6  18
BRANCH   6  20
ATOM     20  C   LIG    1        2.200  -4.463  -0.510  0.00  0.00    +0.010 C 
BRANCH  20  21
ATOM     21  C   LIG    1        2.439  -2.973  -0.263  0.00  0.00    +0.250 C 
BRANCH  21  22
ATOM     22  N   LIG    1        1.159  -2.261  -0.289  0.00  0.00    -0.730 N 
ATOM     23  H   LIG    1        0.336  -2.749  -0.447  0.00  0.00    +0.400 HD
ATOM     24  C   LIG    1        1.125  -0.928  -0.094  0.00  0.00    +0.540 C 
ATOM     25  O   LIG    1        2.157  -0.316   0.104  0.00  0.00    -0.540 OA
BRANCH  24  26
ATOM     26  C   LIG    1       -0.161  -0.213  -0.121  0.00  0.00    -0.090 C 
ATOM     27  C   LIG    1       -0.195   1.102   0.071  0.00  0.00    +0.150 C 
ENDBRANCH  24  26
ENDBRANCH  21  22
ENDBRANCH  20  21
ENDBRANCH   6  20
TORSDOF 7
