REMARK  Name = ZINCqH0000005WFd.0
REMARK                            x       y       z     vdW  Elec       q    Type
REMARK                         _______ _______ _______ _____ _____    ______ ____
ROOT
ATOM      1  C   LIG    1        0.122   0.990  -2.724  0.00  0.00    +0.160 A 
ATOM      2  N   LIG    1        1.194   0.253  -2.549  0.00  0.00    -0.290 NA
ATOM      3  N   LIG    1        1.683  -0.084  -3.689  0.00  0.00    -0.250 NA
ATOM      4  C   LIG    1        0.958   0.414  -4.651  0.00  0.00    +0.180 A 
ATOM      5  N   LIG    1       -0.066   1.111  -4.071  0.00  0.00    -0.450 N 
ATOM      6  C   LIG    1       -1.139   1.839  -4.752  0.00  0.00    +0.360 C 
ENDROOT
BRANCH   1   7
ATOM      7  S   LIG    1       -0.888   1.685  -1.458  0.00  0.00    +0.040 S 
BRANCH   7   8
ATOM      8  C   LIG    1       -0.013   1.086   0.008  0.00  0.00    +0.230 C 
BRANCH   8  12
ATOM      9  C   LIG    1       -1.287   2.828   2.955  0.00  0.00    -0.050 A 
ATOM     10  C   LIG    1       -2.080   1.716   2.991  0.00  0.00    +0.070 A 
ATOM     11  C   LIG    1       -1.709   0.920   1.897  0.00  0.00    -0.020 A 
ATOM     12  C   LIG    1       -0.718   1.572   1.248  0.00  0.00    +0.030 A 
ATOM     13  O   LIG    1       -0.463   2.718   1.892  0.00  0.00    -0.140 OA
BRANCH   9  14
ATOM     14  C   LIG    1       -1.320   3.941   3.906  0.00  0.00    +0.550 C 
ATOM     15  O   LIG    1       -2.108   3.925   4.833  0.00  0.00    -0.480 OA
BRANCH  14  17
ATOM     16  C   LIG    1       -0.568   6.051   4.735  0.00  0.00    +0.290 C 
ATOM     17  O   LIG    1       -0.478   4.983   3.755  0.00  0.00    -0.350 OA
ENDBRANCH  14  17
ENDBRANCH   9  14
ENDBRANCH   8  12
ENDBRANCH   7   8
ENDBRANCH   1   7
BRANCH   4  18
ATOM     18  C   LIG    1        1.199   0.247  -6.129  0.00  0.00    +0.350 C 
BRANCH  18  19
ATOM     19  O   LIG    1        0.512  -0.916  -6.596  0.00  0.00    -0.300 OA
BRANCH  19  20
ATOM     20  C   LIG    1        0.626  -1.212  -7.917  0.00  0.00    +0.140 A 
ATOM     21  C   LIG    1        1.384  -0.400  -8.748  0.00  0.00    -0.060 A 
ATOM     22  C   LIG    1        1.500  -0.703 -10.091  0.00  0.00    +0.060 A 
ATOM     23  C   LIG    1        0.859  -1.814 -10.608  0.00  0.00    +0.000 A 
ATOM     24  C   LIG    1        0.102  -2.625  -9.783  0.00  0.00    +0.070 A 
ATOM     25  C   LIG    1       -0.011  -2.330  -8.437  0.00  0.00    -0.070 A 
ATOM     26 CL   LIG    1       -0.955  -3.354  -7.400  0.00  0.00    -0.050 Cl
ENDBRANCH  19  20
ENDBRANCH  18  19
ENDBRANCH   4  18
TORSDOF 8
