REMARK  Name = ZINCqH0000006E8t.0
REMARK                            x       y       z     vdW  Elec       q    Type
REMARK                         _______ _______ _______ _____ _____    ______ ____
ROOT
ATOM      1  C   LIG    1       -2.505   0.999   0.019  0.00  0.00    +0.210 A 
ATOM      2  N   LIG    1       -3.709   1.508   0.027  0.00  0.00    -0.380 NA
ATOM      3  O   LIG    1       -4.537   0.621   0.026  0.00  0.00    +0.080 OA
ATOM      4  C   LIG    1       -3.930  -0.571   0.017  0.00  0.00    +0.200 A 
ATOM      5  N   LIG    1       -2.640  -0.347   0.007  0.00  0.00    -0.450 NA
ENDROOT
BRANCH   1   8
ATOM      6  C   LIG    1       -0.048   3.850   0.023  0.00  0.00    +0.120 A 
ATOM      7  C   LIG    1       -1.243   3.149   0.031  0.00  0.00    -0.030 A 
ATOM      8  C   LIG    1       -1.228   1.756   0.017  0.00  0.00    +0.010 A 
ATOM      9  C   LIG    1       -0.013   1.076   0.008  0.00  0.00    +0.040 A 
ATOM     10  C   LIG    1        1.174   1.782   0.000  0.00  0.00    +0.050 A 
ATOM     11  C   LIG    1        1.159   3.164   0.008  0.00  0.00    -0.100 A 
ATOM     12  C   LIG    1        2.457   3.930  -0.001  0.00  0.00    +0.100 C 
BRANCH   6  14
ATOM     13  C   LIG    1       -1.336   5.848   0.047  0.00  0.00    +0.240 C 
ATOM     14  O   LIG    1       -0.058   5.209   0.031  0.00  0.00    -0.310 OA
ENDBRANCH   6  14
ENDBRANCH   1   8
BRANCH   4  15
ATOM     15  C   LIG    1       -4.605  -1.918   0.012  0.00  0.00    +0.350 C 
BRANCH  15  16
ATOM     16  N   LIG    1       -4.819  -2.364   1.395  0.00  0.00    -0.500 NA
ATOM     17  C   LIG    1       -5.850  -1.548   2.061  0.00  0.00    +0.180 C 
ATOM     18  C   LIG    1       -6.948  -2.513   2.555  0.00  0.00    +0.010 C 
ATOM     19  C   LIG    1       -6.205  -3.872   2.645  0.00  0.00    +0.040 C 
ATOM     20  C   LIG    1       -5.240  -3.781   1.436  0.00  0.00    +0.210 C 
BRANCH  20  21
ATOM     21  C   LIG    1       -4.048  -4.677   1.648  0.00  0.00    +0.130 A 
ATOM     22  C   LIG    1       -4.096  -5.991   1.222  0.00  0.00    -0.040 A 
ATOM     23  C   LIG    1       -2.992  -6.806   1.417  0.00  0.00    +0.050 A 
ATOM     24  C   LIG    1       -1.879  -6.270   2.046  0.00  0.00    -0.050 A 
ATOM     25  C   LIG    1       -1.905  -4.948   2.450  0.00  0.00    +0.250 A 
ATOM     26  N   LIG    1       -2.971  -4.201   2.243  0.00  0.00    -0.440 NA
ENDBRANCH  20  21
ENDBRANCH  15  16
ENDBRANCH   4  15
TORSDOF 5
