REMARK  Name = ZINCqH0000006XdK.0
REMARK                            x       y       z     vdW  Elec       q    Type
REMARK                         _______ _______ _______ _____ _____    ______ ____
ROOT
ATOM      1  C   LIG    1        7.362  -3.709   0.494  0.00  0.00    +0.100 A 
ATOM      2  C   LIG    1        8.026  -2.481   0.433  0.00  0.00    +0.100 A 
ATOM      3  C   LIG    1        7.311  -1.300   0.328  0.00  0.00    +0.090 A 
ATOM      4  C   LIG    1        5.917  -1.334   0.280  0.00  0.00    +0.080 A 
ATOM      5  N   LIG    1        4.957  -0.350   0.173  0.00  0.00    -0.570 N 
ATOM      6  H   LIG    1        5.128   0.602   0.109  0.00  0.00    +0.420 HD
ATOM      7  C   LIG    1        3.710  -0.947   0.175  0.00  0.00    +0.020 A 
ATOM      8  C   LIG    1        3.861  -2.295   0.273  0.00  0.00    +0.070 A 
ATOM      9  C   LIG    1        5.248  -2.571   0.341  0.00  0.00    -0.080 A 
ATOM     10  C   LIG    1        5.986  -3.759   0.449  0.00  0.00    -0.010 A 
ENDROOT
BRANCH   7  11
ATOM     11  C   LIG    1        2.427  -0.239   0.080  0.00  0.00    +0.590 C 
ATOM     12  N   LIG    1        2.404   1.105  -0.014  0.00  0.00    -0.670 N 
ATOM     13  H   LIG    1        3.235   1.601  -0.084  0.00  0.00    +0.410 HD
ATOM     14  O   LIG    1        1.384  -0.866   0.086  0.00  0.00    -0.490 OA
BRANCH  12  15
ATOM     15  C   LIG    1        1.181   1.787  -0.010  0.00  0.00    +0.100 A 
ATOM     16  C   LIG    1        0.066   1.218  -0.609  0.00  0.00    +0.100 A 
ATOM     17  C   LIG    1       -1.139   1.894  -0.609  0.00  0.00    +0.010 A 
ATOM     18  C   LIG    1       -1.239   3.135  -0.003  0.00  0.00    +0.120 A 
ATOM     19  C   LIG    1       -0.128   3.707   0.596  0.00  0.00    -0.010 A 
ATOM     20  F   LIG    1       -2.420   3.791   0.001  0.00  0.00    -0.130 F 
ATOM     21  C   LIG    1        1.081   3.037   0.593  0.00  0.00    +0.110 A 
ATOM     22  F   LIG    1        2.165   3.594   1.176  0.00  0.00    -0.130 F 
ENDBRANCH  12  15
ENDBRANCH   7  11
BRANCH   1  24
ATOM     23  C   LIG    1        7.337  -6.082   0.656  0.00  0.00    +0.240 C 
ATOM     24  O   LIG    1        8.078  -4.861   0.598  0.00  0.00    -0.300 OA
ENDBRANCH   1  24
BRANCH   3  25
ATOM     25  O   LIG    1        7.966  -0.109   0.270  0.00  0.00    -0.330 OA
ATOM     26  C   LIG    1        8.136   0.597   1.501  0.00  0.00    +0.230 C 
ENDBRANCH   3  25
BRANCH   2  27
ATOM     27  O   LIG    1        9.385  -2.446   0.479  0.00  0.00    -0.320 OA
ATOM     28  C   LIG    1       10.075  -2.405  -0.771  0.00  0.00    +0.240 C 
ENDBRANCH   2  27
TORSDOF 5
