REMARK  Name = ZINCrH000009omza.0
REMARK                            x       y       z     vdW  Elec       q    Type
REMARK                         _______ _______ _______ _____ _____    ______ ____
ROOT
ATOM      1  N   LIG    1        2.735  -2.263  -2.500  0.00  0.00    -0.570 N 
ATOM      2  C   LIG    1        2.747  -0.963  -2.847  0.00  0.00    +0.520 C 
ATOM      3  C   LIG    1        1.522  -0.112  -2.623  0.00  0.00    +0.080 C 
ATOM      4  C   LIG    1        0.269  -0.971  -2.837  0.00  0.00    +0.290 C 
ATOM      5  N   LIG    1        0.421  -2.238  -2.119  0.00  0.00    -0.620 N 
ATOM      6  O   LIG    1        3.742  -0.476  -3.339  0.00  0.00    -0.500 OA
ATOM      7  C   LIG    1        1.616  -2.845  -2.036  0.00  0.00    +0.710 C 
ATOM      8  O   LIG    1        1.688  -3.947  -1.528  0.00  0.00    -0.540 OA
ENDROOT
BRANCH   1   9
ATOM      9  C   LIG    1        3.960  -3.056  -2.630  0.00  0.00    +0.310 C 
BRANCH   9  12
ATOM     10  C   LIG    1        4.428  -5.521  -5.000  0.00  0.00    -0.020 C 
ATOM     11  C   LIG    1        5.306  -4.476  -4.292  0.00  0.00    +0.030 C 
ATOM     12  C   LIG    1        4.013  -3.688  -4.022  0.00  0.00    -0.040 C 
ATOM     13  C   LIG    1        3.266  -5.029  -4.118  0.00  0.00    +0.030 C 
BRANCH  10  15
ATOM     14  C   LIG    1        3.996  -7.917  -5.562  0.00  0.00    +0.000 C 
ATOM     15  C   LIG    1        4.846  -6.965  -4.719  0.00  0.00    +0.010 C 
ENDBRANCH  10  15
ENDBRANCH   9  12
ENDBRANCH   1   9
BRANCH   5  16
ATOM     16  C   LIG    1       -0.748  -2.856  -1.489  0.00  0.00    +0.340 C 
BRANCH  16  17
ATOM     17  C   LIG    1       -0.956  -2.252  -0.099  0.00  0.00    +0.110 C 
ATOM     18  C   LIG    1        0.157  -2.718   0.864  0.00  0.00    +0.030 C 
ATOM     19  C   LIG    1       -0.546  -2.922   2.221  0.00  0.00    +0.020 C 
ATOM     20  C   LIG    1       -2.025  -2.561   1.966  0.00  0.00    +0.180 C 
ATOM     21  N   LIG    1       -2.213  -2.764   0.506  0.00  0.00    -0.460 N 
BRANCH  21  22
ATOM     22  C   LIG    1       -3.320  -2.052   0.040  0.00  0.00    +0.100 A 
ATOM     23  C   LIG    1       -4.574  -2.273   0.594  0.00  0.00    -0.020 A 
ATOM     24  C   LIG    1       -5.667  -1.567   0.131  0.00  0.00    +0.030 A 
ATOM     25  C   LIG    1       -5.513  -0.639  -0.883  0.00  0.00    -0.020 A 
ATOM     26  C   LIG    1       -4.266  -0.417  -1.438  0.00  0.00    +0.030 A 
ATOM     27  C   LIG    1       -3.169  -1.120  -0.979  0.00  0.00    -0.060 A 
ENDBRANCH  21  22
ENDBRANCH  16  17
ENDBRANCH   5  16
TORSDOF 6
