REMARK  Name = ZINCvU00000004Lt.0
REMARK                            x       y       z     vdW  Elec       q    Type
REMARK                         _______ _______ _______ _____ _____    ______ ____
ROOT
ATOM      1  C   LIG    1        2.381   1.418   0.003  0.00  0.00    -0.050 A 
ATOM      2  C   LIG    1        1.169   2.084   0.199  0.00  0.00    +0.060 A 
ATOM      3  C   LIG    1       -0.012   1.375   0.200  0.00  0.00    +0.020 A 
ATOM      4  C   LIG    1        0.001  -0.002   0.008  0.00  0.00    +0.170 A 
ATOM      5  C   LIG    1        1.206  -0.668  -0.187  0.00  0.00    +0.000 A 
ATOM      6  C   LIG    1        2.391   0.035  -0.190  0.00  0.00    +0.100 A 
ENDROOT
BRANCH   1  13
ATOM      7  C   LIG    1        8.909   5.519   0.018  0.00  0.00    +0.100 C 
ATOM      8  C   LIG    1        7.844   4.455  -0.040  0.00  0.00    -0.060 A 
ATOM      9  C   LIG    1        8.198   3.130  -0.254  0.00  0.00    +0.030 A 
ATOM     10  C   LIG    1        7.249   2.155  -0.308  0.00  0.00    +0.080 A 
ATOM     11  C   LIG    1        5.883   2.474  -0.148  0.00  0.00    +0.080 A 
ATOM     12  N   LIG    1        4.818   1.654  -0.171  0.00  0.00    -0.460 NA
ATOM     13  C   LIG    1        3.650   2.175   0.001  0.00  0.00    +0.160 A 
ATOM     14  S   LIG    1        3.782   3.913   0.224  0.00  0.00    +0.070 S 
ATOM     15  C   LIG    1        5.534   3.813   0.068  0.00  0.00    -0.170 A 
ATOM     16  C   LIG    1        6.520   4.796   0.120  0.00  0.00    +0.050 A 
ENDBRANCH   1  13
BRANCH   4  17
ATOM     17  N   LIG    1       -1.198  -0.717   0.010  0.00  0.00    -0.660 N 
ATOM     18  H   LIG    1       -1.222  -1.623   0.357  0.00  0.00    +0.420 HD
ATOM     19  C   LIG    1       -2.323  -0.149  -0.469  0.00  0.00    +0.580 C 
ATOM     20  O   LIG    1       -2.275   0.948  -0.991  0.00  0.00    -0.510 OA
BRANCH  19  21
ATOM     21  C   LIG    1       -3.612  -0.859  -0.360  0.00  0.00    -0.160 A 
ATOM     22  C   LIG    1       -4.751  -0.281  -0.840  0.00  0.00    +0.350 A 
ATOM     23  N   LIG    1       -5.942  -0.929  -0.748  0.00  0.00    -0.400 N 
ATOM     24  C   LIG    1       -6.020  -2.170  -0.162  0.00  0.00    +0.200 A 
ATOM     25  C   LIG    1       -4.856  -2.784   0.345  0.00  0.00    +0.100 A 
ATOM     26  N   LIG    1       -7.289  -2.537  -0.215  0.00  0.00    -0.280 NA
ATOM     27  N   LIG    1       -7.981  -1.616  -0.786  0.00  0.00    -0.240 NA
ATOM     28  C   LIG    1       -7.212  -0.617  -1.130  0.00  0.00    +0.190 A 
ATOM     29  C   LIG    1       -3.667  -2.138   0.249  0.00  0.00    +0.070 A 
BRANCH  28  30
ATOM     30  C   LIG    1       -7.650   0.649  -1.821  0.00  0.00    +0.030 C 
ATOM     31  C   LIG    1       -9.153   0.885  -1.976  0.00  0.00    +0.080 C 
ATOM     32  C   LIG    1       -8.308   0.511  -3.196  0.00  0.00    +0.060 C 
ENDBRANCH  28  30
ENDBRANCH  19  21
ENDBRANCH   4  17
TORSDOF 4
