REMARK  Name = ZINCrH000004lXlP.0
REMARK                            x       y       z     vdW  Elec       q    Type
REMARK                         _______ _______ _______ _____ _____    ______ ____
ROOT
ATOM      1  C   LIG    1        3.507  -0.600  -1.492  0.00  0.00    +0.520 C 
ATOM      2  N   LIG    1        2.396  -0.100  -0.916  0.00  0.00    -0.720 N 
ATOM      3  H   LIG    1        1.533  -0.505  -1.095  0.00  0.00    +0.400 HD
ATOM      4  O   LIG    1        4.586  -0.094  -1.268  0.00  0.00    -0.510 OA
ENDROOT
BRANCH   2   5
ATOM      5  C   LIG    1        2.491   1.055  -0.020  0.00  0.00    +0.290 C 
ATOM      6  C   LIG    1        2.832   0.578   1.393  0.00  0.00    +0.040 C 
BRANCH   5   7
ATOM      7  C   LIG    1        1.173   1.786   0.000  0.00  0.00    -0.100 A 
ATOM      8  C   LIG    1       -0.013   1.076   0.008  0.00  0.00    +0.000 A 
ATOM      9  C   LIG    1       -1.215   1.752   0.017  0.00  0.00    +0.000 A 
ATOM     10  C   LIG    1       -1.244   3.140   0.031  0.00  0.00    -0.070 A 
ATOM     11  C   LIG    1       -2.592   3.813   0.034  0.00  0.00    +0.080 C 
ATOM     12  C   LIG    1       -2.464   5.269   0.479  0.00  0.00    +0.020 C 
ATOM     13  C   LIG    1       -1.368   5.937  -0.360  0.00  0.00    +0.020 C 
ATOM     14  C   LIG    1       -0.019   5.353   0.056  0.00  0.00    +0.080 C 
ATOM     15  C   LIG    1       -0.063   3.847   0.030  0.00  0.00    -0.070 A 
ATOM     16  C   LIG    1        1.147   3.165   0.011  0.00  0.00    +0.010 A 
ENDBRANCH   5   7
ENDBRANCH   2   5
BRANCH   1  17
ATOM     17  C   LIG    1        3.409  -1.788  -2.413  0.00  0.00    +0.240 C 
BRANCH  17  18
ATOM     18  O   LIG    1        4.711  -2.128  -2.893  0.00  0.00    -0.270 OA
BRANCH  18  24
ATOM     19  C   LIG    1        6.041  -3.569  -4.248  0.00  0.00    +0.110 A 
ATOM     20  C   LIG    1        6.132  -4.644  -5.110  0.00  0.00    +0.020 A 
ATOM     21  C   LIG    1        4.979  -5.344  -5.474  0.00  0.00    -0.030 A 
ATOM     22  C   LIG    1        3.738  -4.954  -4.964  0.00  0.00    +0.080 A 
ATOM     23  C   LIG    1        3.655  -3.883  -4.099  0.00  0.00    -0.030 A 
ATOM     24  C   LIG    1        4.800  -3.185  -3.742  0.00  0.00    +0.130 A 
BRANCH  19  26
ATOM     25  C   LIG    1        8.399  -3.334  -4.448  0.00  0.00    +0.250 C 
ATOM     26  O   LIG    1        7.161  -2.885  -3.892  0.00  0.00    -0.300 OA
ENDBRANCH  19  26
BRANCH  21  27
ATOM     27  C   LIG    1        5.068  -6.460  -6.368  0.00  0.00    +0.250 C 
ATOM     28  N   LIG    1        5.139  -7.345  -7.077  0.00  0.00    -0.410 NA
ENDBRANCH  21  27
ENDBRANCH  18  24
ENDBRANCH  17  18
ENDBRANCH   1  17
TORSDOF 7
