REMARK  Name = ZINCpk00000eaf6P.0
REMARK                            x       y       z     vdW  Elec       q    Type
REMARK                         _______ _______ _______ _____ _____    ______ ____
ROOT
ATOM      1  C   LIG    1        4.062   6.329  -1.813  0.00  0.00    +0.590 C 
ATOM      2  N   LIG    1        3.684   5.651  -0.711  0.00  0.00    -0.600 N 
ATOM      3  C   LIG    1        4.155   6.061   0.618  0.00  0.00    +0.270 C 
ATOM      4  C   LIG    1        2.942   6.255   1.534  0.00  0.00    +0.030 C 
ATOM      5  C   LIG    1        2.099   4.978   1.532  0.00  0.00    +0.020 C 
ATOM      6  C   LIG    1        1.594   4.699   0.115  0.00  0.00    +0.260 C 
ATOM      7  C   LIG    1        2.792   4.488  -0.817  0.00  0.00    +0.300 C 
ATOM      8  O   LIG    1        3.743   5.924  -2.915  0.00  0.00    -0.520 OA
ENDROOT
BRANCH   1  11
ATOM      9  N   LIG    1        6.961   8.607  -1.365  0.00  0.00    -0.480 N 
ATOM     10  C   LIG    1        6.225   7.485  -1.479  0.00  0.00    +0.370 A 
ATOM     11  C   LIG    1        4.863   7.560  -1.683  0.00  0.00    -0.240 A 
ATOM     12  C   LIG    1        4.238   8.829  -1.762  0.00  0.00    +0.150 A 
ATOM     13  C   LIG    1        5.001   9.947  -1.638  0.00  0.00    -0.080 A 
ATOM     14  C   LIG    1        6.388   9.822  -1.435  0.00  0.00    +0.510 A 
ATOM     15  O   LIG    1        7.076  10.823  -1.324  0.00  0.00    -0.540 OA
BRANCH   9  16
ATOM     16  C   LIG    1        8.407   8.502  -1.154  0.00  0.00    +0.320 C 
BRANCH  16  17
ATOM     17  C   LIG    1        8.701   8.450   0.347  0.00  0.00    +0.170 C 
BRANCH  17  19
ATOM     18  C   LIG    1        8.371   7.106   2.303  0.00  0.00    +0.210 C 
ATOM     19  O   LIG    1        8.151   7.253   0.899  0.00  0.00    -0.390 OA
ENDBRANCH  17  19
ENDBRANCH  16  17
ENDBRANCH   9  16
ENDBRANCH   1  11
BRANCH   6  20
ATOM     20  N   LIG    1        0.761   3.494   0.120  0.00  0.00    -0.370 N 
ATOM     21  C   LIG    1        1.203   2.223   0.024  0.00  0.00    +0.220 A 
ATOM     22  C   LIG    1        0.124   1.407   0.067  0.00  0.00    -0.240 A 
ATOM     23  C   LIG    1       -1.016   2.208   0.188  0.00  0.00    +0.230 A 
ATOM     24  C   LIG    1        0.147  -0.098  -0.009  0.00  0.00    +0.110 C 
ATOM     25  N   LIG    1       -0.635   3.459   0.226  0.00  0.00    -0.290 NA
ENDBRANCH   6  20
TORSDOF 5
