REMARK  Name = ZINCnE000001Egoi.1
REMARK                            x       y       z     vdW  Elec       q    Type
REMARK                         _______ _______ _______ _____ _____    ______ ____
ROOT
ATOM      1  C   LIG    1       -3.724  -0.869   0.015  0.00  0.00    +0.380 A 
ATOM      2  N   LIG    1       -2.550  -0.318   0.008  0.00  0.00    -0.550 NA
ATOM      3  C   LIG    1       -2.508   1.007   0.020  0.00  0.00    +0.130 A 
ATOM      4  C   LIG    1       -3.704   1.622   0.029  0.00  0.00    -0.190 A 
ATOM      5  S   LIG    1       -4.959   0.386   0.028  0.00  0.00    -0.020 S 
ENDROOT
BRANCH   3   6
ATOM      6  C   LIG    1       -1.229   1.759   0.017  0.00  0.00    -0.010 A 
ATOM      7  C   LIG    1       -1.236   3.153   0.030  0.00  0.00    +0.050 A 
ATOM      8  C   LIG    1       -0.049   3.852   0.022  0.00  0.00    -0.020 A 
ATOM      9  C   LIG    1        1.168   3.171   0.007  0.00  0.00    +0.120 A 
ATOM     10  N   LIG    1        2.479   3.651  -0.002  0.00  0.00    -0.660 N 
ATOM     11  H   LIG    1        2.710   4.594  -0.000  0.00  0.00    +0.410 HD
ATOM     12  C   LIG    1        3.385   2.659  -0.016  0.00  0.00    +0.530 C 
ATOM     13  C   LIG    1        2.617   1.354  -0.015  0.00  0.00    +0.130 C 
ATOM     14  O   LIG    1        4.591   2.785  -0.026  0.00  0.00    -0.520 OA
ATOM     15  C   LIG    1        1.167   1.781   0.001  0.00  0.00    -0.140 A 
ATOM     16  C   LIG    1       -0.013   1.076   0.008  0.00  0.00    +0.100 A 
ENDBRANCH   3   6
BRANCH   1  18
ATOM     17  C   LIG    1       -5.236  -2.695   0.013  0.00  0.00    +0.470 C 
ATOM     18  N   LIG    1       -3.969  -2.237   0.009  0.00  0.00    -0.650 NA
ATOM     19  O   LIG    1       -6.163  -1.913   0.022  0.00  0.00    -0.600 OA
BRANCH  17  21
ATOM     20  C   LIG    1       -4.715  -4.928   1.084  0.00  0.00    +0.060 C 
ATOM     21  C   LIG    1       -5.502  -4.178   0.007  0.00  0.00    -0.070 C 
ATOM     22  C   LIG    1       -5.397  -4.816  -1.389  0.00  0.00    +0.040 C 
ATOM     23  C   LIG    1       -6.626  -5.661  -1.006  0.00  0.00    -0.000 C 
ATOM     24  C   LIG    1       -6.997  -4.536  -0.025  0.00  0.00    +0.030 C 
ENDBRANCH  17  21
ENDBRANCH   1  18
TORSDOF 3
