REMARK  Name = ZINCrg000000nJvb.0
REMARK                            x       y       z     vdW  Elec       q    Type
REMARK                         _______ _______ _______ _____ _____    ______ ____
ROOT
ATOM      1  C   LIG    1        0.009  -0.004   0.002  0.00  0.00    +0.240 C 
ENDROOT
BRANCH   1   2
ATOM      2  C   LIG    1       -0.106   1.497   0.072  0.00  0.00    +0.520 C 
ATOM      3  N   LIG    1        0.921   2.271  -0.332  0.00  0.00    -0.610 N 
ATOM      4  C   LIG    1        2.111   1.660  -0.936  0.00  0.00    +0.270 C 
ATOM      5  C   LIG    1        2.339   2.286  -2.327  0.00  0.00    +0.330 C 
ATOM      6  N   LIG    1        2.206   3.743  -2.178  0.00  0.00    -0.630 N 
ATOM      7  C   LIG    1        3.082   4.688  -2.525  0.00  0.00    +0.700 C 
ATOM      8  N   LIG    1        2.758   5.912  -2.081  0.00  0.00    -0.640 N 
ATOM      9  C   LIG    1        1.461   5.848  -1.388  0.00  0.00    +0.280 C 
ATOM     10  C   LIG    1        3.567   7.120  -2.258  0.00  0.00    +0.330 C 
ATOM     11  O   LIG    1        4.080   4.461  -3.181  0.00  0.00    -0.580 OA
ATOM     12  C   LIG    1        1.034   4.379  -1.540  0.00  0.00    +0.200 C 
ATOM     13  C   LIG    1        0.857   3.731  -0.162  0.00  0.00    +0.300 C 
ATOM     14  O   LIG    1       -1.124   2.009   0.486  0.00  0.00    -0.530 OA
ENDBRANCH   1   2
BRANCH   1  15
ATOM     15  N   LIG    1       -1.328  -0.599   0.074  0.00  0.00    -0.720 N 
ATOM     16  H   LIG    1       -2.051  -0.116   0.503  0.00  0.00    +0.410 HD
ATOM     17  C   LIG    1       -1.552  -1.819  -0.455  0.00  0.00    +0.520 C 
ATOM     18  O   LIG    1       -0.647  -2.423  -0.991  0.00  0.00    -0.520 OA
BRANCH  17  19
ATOM     19  C   LIG    1       -2.926  -2.432  -0.380  0.00  0.00    +0.100 C 
BRANCH  19  20
ATOM     20  C   LIG    1       -2.909  -3.786  -1.040  0.00  0.00    -0.070 A 
ATOM     21  C   LIG    1       -3.189  -3.902  -2.389  0.00  0.00    +0.010 A 
ATOM     22  C   LIG    1       -3.169  -5.144  -2.994  0.00  0.00    +0.000 A 
ATOM     23  C   LIG    1       -2.877  -6.272  -2.250  0.00  0.00    +0.000 A 
ATOM     24  C   LIG    1       -2.602  -6.157  -0.900  0.00  0.00    +0.000 A 
ATOM     25  C   LIG    1       -2.619  -4.914  -0.295  0.00  0.00    +0.020 A 
ENDBRANCH  19  20
ENDBRANCH  17  19
ENDBRANCH   1  15
BRANCH   1  26
ATOM     26  C   LIG    1        0.855  -0.506   1.173  0.00  0.00    +0.020 C 
BRANCH  26  28
ATOM     27  C   LIG    1        1.937  -2.513   2.196  0.00  0.00    +0.010 C 
ATOM     28  C   LIG    1        1.090  -2.010   1.024  0.00  0.00    +0.020 C 
ENDBRANCH  26  28
ENDBRANCH   1  26
TORSDOF 6
