REMARK  Name = ZINCpe000000Xm1x.0
REMARK                            x       y       z     vdW  Elec       q    Type
REMARK                         _______ _______ _______ _____ _____    ______ ____
ROOT
ATOM      1  C   LIG    1       -0.318   4.045   7.146  0.00  0.00    +0.540 C 
ATOM      2  N   LIG    1        0.449   3.905   6.047  0.00  0.00    -0.720 N 
ATOM      3  H   LIG    1        1.362   3.587   6.130  0.00  0.00    +0.410 HD
ATOM      4  O   LIG    1       -1.459   4.443   7.043  0.00  0.00    -0.520 OA
ENDROOT
BRANCH   1   6
ATOM      5  C   LIG    1        0.196   2.191   8.711  0.00  0.00    +0.080 C 
ATOM      6  C   LIG    1        0.241   3.706   8.504  0.00  0.00    +0.000 C 
BRANCH   6   7
ATOM      7  S   LIG    1       -0.748   4.522   9.787  0.00  0.00    -0.050 S 
BRANCH   7   8
ATOM      8  C   LIG    1        0.168   4.203  11.257  0.00  0.00    -0.090 A 
ATOM      9  C   LIG    1       -0.153   3.111  12.055  0.00  0.00    +0.090 A 
ATOM     10  C   LIG    1        0.571   2.861  13.204  0.00  0.00    +0.100 A 
ATOM     11  C   LIG    1        1.608   3.702  13.567  0.00  0.00    -0.020 A 
ATOM     12  C   LIG    1        1.927   4.792  12.778  0.00  0.00    +0.100 A 
ATOM     13  C   LIG    1        1.211   5.045  11.625  0.00  0.00    +0.090 A 
BRANCH  11  14
ATOM     14  N   LIG    1        2.378   3.434  14.802  0.00  0.00    +0.020 N 
ATOM     15  O   LIG    1        2.098   2.474  15.498  0.00  0.00    -0.150 OA
ATOM     16  O   LIG    1        3.291   4.173  15.123  0.00  0.00    -0.150 OA
ENDBRANCH  11  14
ENDBRANCH   7   8
ENDBRANCH   6   7
ENDBRANCH   1   6
BRANCH   2  17
ATOM     17  C   LIG    1       -0.095   4.234   4.727  0.00  0.00    +0.250 C 
BRANCH  17  18
ATOM     18  C   LIG    1        0.973   3.989   3.660  0.00  0.00    +0.210 C 
BRANCH  18  19
ATOM     19  O   LIG    1        2.110   4.813   3.925  0.00  0.00    -0.540 OA
ATOM     20  H   LIG    1        1.918   5.761   3.925  0.00  0.00    +0.380 HD
ENDBRANCH  18  19
BRANCH  18  21
ATOM     21  C   LIG    1        0.405   4.333   2.281  0.00  0.00    +0.160 C 
BRANCH  21  22
ATOM     22  N   LIG    1        1.388   3.986   1.246  0.00  0.00    -0.530 NA
ATOM     23  C   LIG    1        1.592   2.531   1.181  0.00  0.00    +0.140 C 
ATOM     24  C   LIG    1        2.663   2.218   0.133  0.00  0.00    +0.220 C 
ATOM     25  O   LIG    1        2.267   2.767  -1.127  0.00  0.00    -0.390 OA
ATOM     26  C   LIG    1        2.060   4.182  -1.099  0.00  0.00    +0.220 C 
ATOM     27  C   LIG    1        0.982   4.515  -0.064  0.00  0.00    +0.150 C 
ENDBRANCH  21  22
ENDBRANCH  18  21
ENDBRANCH  17  18
ENDBRANCH   2  17
TORSDOF 9
