REMARK  Name = ZINCkj00000dDfXA.0
REMARK                            x       y       z     vdW  Elec       q    Type
REMARK                         _______ _______ _______ _____ _____    ______ ____
ROOT
ATOM      1  C   LIG    1       -2.434   3.821   1.885  0.00  0.00    +0.010 A 
ATOM      2  N   LIG    1       -2.179   3.846   3.178  0.00  0.00    -0.260 NA
ATOM      3  N   LIG    1       -2.947   4.694   3.763  0.00  0.00    -0.300 N 
ATOM      4  C   LIG    1       -3.771   5.275   2.865  0.00  0.00    +0.170 A 
ATOM      5  C   LIG    1       -3.478   4.748   1.653  0.00  0.00    +0.010 A 
ENDROOT
BRANCH   3   6
ATOM      6  C   LIG    1       -2.936   4.982   5.199  0.00  0.00    +0.270 C 
ATOM      7  C   LIG    1       -4.364   5.270   5.674  0.00  0.00    +0.060 C 
ATOM      8  C   LIG    1       -4.331   5.648   7.157  0.00  0.00    +0.090 C 
ATOM      9  C   LIG    1       -3.401   6.848   7.353  0.00  0.00    +0.270 C 
ATOM     10  N   LIG    1       -2.047   6.500   6.906  0.00  0.00    -0.500 N 
ATOM     11  H   LIG    1       -1.426   7.274   7.085  0.00  0.00    +0.440 HD
ATOM     12  H   LIG    1       -1.725   5.688   7.411  0.00  0.00    +0.430 HD
ATOM     13  C   LIG    1       -2.058   6.206   5.468  0.00  0.00    +0.260 C 
ENDBRANCH   3   6
BRANCH   1  16
ATOM     14  C   LIG    1       -0.638   1.796   2.680  0.00  0.00    +0.290 C 
ATOM     15  N   LIG    1       -0.863   2.053   1.256  0.00  0.00    -0.600 N 
ATOM     16  C   LIG    1       -1.762   2.982   0.873  0.00  0.00    +0.600 C 
ATOM     17  O   LIG    1       -2.019   3.128  -0.306  0.00  0.00    -0.520 OA
BRANCH  15  18
ATOM     18  C   LIG    1       -0.111   1.302   0.248  0.00  0.00    +0.250 C 
ATOM     19  C   LIG    1        1.373   1.648   0.378  0.00  0.00    +0.060 C 
ATOM     20  C   LIG    1        2.040   0.648   1.359  0.00  0.00    +0.120 C 
ATOM     21  S   LIG    1        1.250  -0.930   0.839  0.00  0.00    -0.270 S 
ATOM     22  C   LIG    1       -0.384  -0.199   0.440  0.00  0.00    +0.130 C 
ENDBRANCH  15  18
ENDBRANCH   1  16
TORSDOF 3
