REMARK  Name = ZINCrg00000SjSGj.0
REMARK                            x       y       z     vdW  Elec       q    Type
REMARK                         _______ _______ _______ _____ _____    ______ ____
ROOT
ATOM      1  N   LIG    1        2.942   8.062   0.655  0.00  0.00    -0.660 N 
ATOM      2  H   LIG    1        2.177   8.149   1.246  0.00  0.00    +0.420 HD
ATOM      3  C   LIG    1        2.931   7.146  -0.332  0.00  0.00    +0.530 C 
ATOM      4  O   LIG    1        3.841   7.104  -1.132  0.00  0.00    -0.490 OA
ENDROOT
BRANCH   1  11
ATOM      5  C   LIG    1        2.566  10.573   1.943  0.00  0.00    +0.100 C 
ATOM      6  C   LIG    1        3.918  10.123   1.452  0.00  0.00    -0.060 A 
ATOM      7  C   LIG    1        5.020  10.938   1.622  0.00  0.00    +0.020 A 
ATOM      8  C   LIG    1        6.262  10.526   1.172  0.00  0.00    +0.110 A 
ATOM      9  C   LIG    1        6.404   9.299   0.552  0.00  0.00    -0.660 A 
ATOM     10  C   LIG    1        5.306   8.477   0.384  0.00  0.00    +0.130 A 
ATOM     11  C   LIG    1        4.057   8.890   0.829  0.00  0.00    +0.120 A 
BRANCH   9  12
ATOM     12  S   LIG    1        7.987   8.778  -0.019  0.00  0.00    +2.690 S 
ATOM     13  O   LIG    1        8.750   9.961  -0.217  0.00  0.00    -0.950 OA
ATOM     14  O   LIG    1        7.751   7.824  -1.045  0.00  0.00    -0.940 OA
BRANCH  12  15
ATOM     15  N   LIG    1        8.711   7.958   1.224  0.00  0.00    -1.000 NA
ATOM     16  C   LIG    1        9.539   8.680   2.194  0.00  0.00    +0.310 C 
ATOM     17  C   LIG    1        8.524   6.511   1.354  0.00  0.00    +0.300 C 
ENDBRANCH  12  15
ENDBRANCH   9  12
ENDBRANCH   1  11
BRANCH   3  18
ATOM     18  C   LIG    1        1.786   6.172  -0.443  0.00  0.00    +0.030 C 
ATOM     19  C   LIG    1        0.642   6.816  -1.228  0.00  0.00    +0.090 C 
BRANCH  18  20
ATOM     20  S   LIG    1        2.343   4.681  -1.304  0.00  0.00    +0.090 S 
BRANCH  20  21
ATOM     21  C   LIG    1        0.896   3.686  -1.161  0.00  0.00    +0.390 A 
ATOM     22  N   LIG    1       -0.159   4.168  -0.538  0.00  0.00    -0.580 NA
ATOM     23  C   LIG    1       -1.277   3.444  -0.408  0.00  0.00    +0.460 A 
ATOM     24  C   LIG    1       -1.334   2.164  -0.942  0.00  0.00    -0.250 A 
ATOM     25  C   LIG    1       -0.208   1.658  -1.598  0.00  0.00    +0.540 A 
ATOM     26  O   LIG    1       -0.221   0.534  -2.077  0.00  0.00    -0.550 OA
ATOM     27  N   LIG    1        0.891   2.434  -1.698  0.00  0.00    -0.620 N 
ATOM     28  H   LIG    1        1.680   2.099  -2.153  0.00  0.00    +0.420 HD
BRANCH  23  29
ATOM     29  N   LIG    1       -2.371   3.970   0.249  0.00  0.00    -0.830 N 
ATOM     30  H   LIG    1       -3.180   3.444   0.342  0.00  0.00    +0.420 HD
ATOM     31  H   LIG    1       -2.330   4.866   0.618  0.00  0.00    +0.410 HD
ENDBRANCH  23  29
ENDBRANCH  20  21
ENDBRANCH  18  20
ENDBRANCH   3  18
TORSDOF 7
