REMARK  Name = ZINCkj00000GeNJE.0
REMARK                            x       y       z     vdW  Elec       q    Type
REMARK                         _______ _______ _______ _____ _____    ______ ____
ROOT
ATOM      1  N   LIG    1        2.908   0.820  -1.405  0.00  0.00    -0.500 N 
ATOM      2  H   LIG    1        3.011   1.706  -1.877  0.00  0.00    +0.440 HD
ATOM      3  H   LIG    1        2.209   0.266  -1.877  0.00  0.00    +0.430 HD
ENDROOT
BRANCH   1   8
ATOM      4  C   LIG    1        6.782  -3.577  -0.949  0.00  0.00    +0.450 A 
ATOM      5  N   LIG    1        5.634  -3.245  -0.413  0.00  0.00    -0.300 NA
ATOM      6  N   LIG    1        5.222  -2.070  -1.048  0.00  0.00    -0.390 N 
ATOM      7  C   LIG    1        4.007  -1.290  -0.814  0.00  0.00    +0.350 C 
ATOM      8  C   LIG    1        4.192   0.106  -1.420  0.00  0.00    +0.170 C 
ATOM      9  C   LIG    1        4.686  -0.026  -2.864  0.00  0.00    +0.070 C 
ATOM     10  C   LIG    1        6.124  -0.562  -2.860  0.00  0.00    +0.210 C 
ATOM     11  C   LIG    1        6.175  -1.765  -1.949  0.00  0.00    +0.270 A 
ATOM     12  N   LIG    1        7.105  -2.676  -1.879  0.00  0.00    -0.520 NA
ENDBRANCH   1   8
BRANCH   1  13
ATOM     13  C   LIG    1        2.493   1.052  -0.015  0.00  0.00    +0.330 C 
BRANCH  13  14
ATOM     14  C   LIG    1        1.176   1.784   0.000  0.00  0.00    -0.200 A 
ATOM     15  C   LIG    1        1.152   3.167   0.007  0.00  0.00    +0.090 A 
ATOM     16  C   LIG    1       -0.051   3.842   0.026  0.00  0.00    +0.000 A 
ATOM     17  C   LIG    1       -1.252   3.137   0.037  0.00  0.00    +0.150 A 
ATOM     18  O   LIG    1       -2.533   3.595   0.072  0.00  0.00    -0.290 OA
ATOM     19  C   LIG    1       -3.419   2.552  -0.381  0.00  0.00    +0.260 C 
ATOM     20  C   LIG    1       -2.651   1.265   0.005  0.00  0.00    +0.080 C 
ATOM     21  C   LIG    1       -1.214   1.748   0.017  0.00  0.00    -0.170 A 
ATOM     22  C   LIG    1       -0.013   1.076   0.008  0.00  0.00    +0.090 A 
ENDBRANCH  13  14
ENDBRANCH   1  13
TORSDOF 3
