REMARK  Name = ZINCvU000000045R.0
REMARK                            x       y       z     vdW  Elec       q    Type
REMARK                         _______ _______ _______ _____ _____    ______ ____
ROOT
ATOM      1  C   LIG    1        3.882   7.211  -1.496  0.00  0.00    +0.060 A 
ATOM      2  N   LIG    1        3.877   6.333  -0.550  0.00  0.00    -0.450 NA
ATOM      3  C   LIG    1        3.773   5.068  -0.905  0.00  0.00    +0.080 A 
ATOM      4  C   LIG    1        3.691   4.867  -2.224  0.00  0.00    -0.050 A 
ATOM      5  S   LIG    1        3.746   6.440  -3.016  0.00  0.00    +0.160 S 
ENDROOT
BRANCH   1   6
ATOM      6  C   LIG    1        3.993   8.699  -1.290  0.00  0.00    +0.190 C 
BRANCH   6   9
ATOM      7  N   LIG    1        5.788  10.394  -1.135  0.00  0.00    -0.670 N 
ATOM      8  H   LIG    1        5.099  11.075  -1.074  0.00  0.00    +0.410 HD
ATOM      9  C   LIG    1        5.445   9.102  -1.302  0.00  0.00    +0.520 C 
ATOM     10  O   LIG    1        6.306   8.262  -1.461  0.00  0.00    -0.500 OA
BRANCH   7  15
ATOM     11  C   LIG    1       11.258  11.857  -0.783  0.00  0.00    +0.090 C 
ATOM     12  C   LIG    1        9.805  11.469  -0.877  0.00  0.00    -0.100 A 
ATOM     13  C   LIG    1        9.420  10.433  -1.708  0.00  0.00    +0.030 A 
ATOM     14  C   LIG    1        8.089  10.074  -1.796  0.00  0.00    +0.030 A 
ATOM     15  C   LIG    1        7.137  10.755  -1.048  0.00  0.00    +0.130 A 
ATOM     16  C   LIG    1        7.526  11.798  -0.218  0.00  0.00    -0.010 A 
ATOM     17  C   LIG    1        8.860  12.148  -0.130  0.00  0.00    +0.030 A 
ENDBRANCH   7  15
ENDBRANCH   6   9
ENDBRANCH   1   6
BRANCH   3  18
ATOM     18  C   LIG    1        3.755   3.940   0.094  0.00  0.00    +0.210 C 
BRANCH  18  19
ATOM     19  S   LIG    1        2.048   3.600   0.590  0.00  0.00    +0.030 S 
BRANCH  19  20
ATOM     20  C   LIG    1        2.316   2.280   1.726  0.00  0.00    +0.160 A 
ATOM     21  N   LIG    1        3.474   1.757   2.056  0.00  0.00    -0.290 NA
ATOM     22  N   LIG    1        3.300   0.813   2.910  0.00  0.00    -0.280 NA
ATOM     23  C   LIG    1        2.033   0.680   3.181  0.00  0.00    +0.390 A 
ATOM     24  N   LIG    1        1.357   1.607   2.431  0.00  0.00    -0.420 N 
BRANCH  24  25
ATOM     25  C   LIG    1       -0.028   1.823   2.398  0.00  0.00    +0.090 A 
ATOM     26  C   LIG    1       -0.688   2.275   3.533  0.00  0.00    +0.040 A 
ATOM     27  C   LIG    1       -2.053   2.487   3.498  0.00  0.00    +0.020 A 
ATOM     28  C   LIG    1       -2.761   2.249   2.334  0.00  0.00    -0.060 A 
ATOM     29  C   LIG    1       -2.105   1.804   1.201  0.00  0.00    +0.030 A 
ATOM     30  C   LIG    1       -4.250   2.480   2.300  0.00  0.00    +0.100 C 
ATOM     31  C   LIG    1       -0.742   1.585   1.232  0.00  0.00    -0.050 A 
ATOM     32  C   LIG    1       -0.029   1.095  -0.002  0.00  0.00    +0.110 C 
ENDBRANCH  24  25
ENDBRANCH  19  20
ENDBRANCH  18  19
ENDBRANCH   3  18
TORSDOF 7
