REMARK  Name = ZINCvU000000044V.0
REMARK                            x       y       z     vdW  Elec       q    Type
REMARK                         _______ _______ _______ _____ _____    ______ ____
ROOT
ATOM      1  C   LIG    1       -2.299   1.132   1.301  0.00  0.00    +0.340 C 
ATOM      2  O   LIG    1       -2.671   1.036   2.677  0.00  0.00    -0.300 OA
ATOM      3  C   LIG    1       -2.320   2.059   3.497  0.00  0.00    +0.140 A 
ATOM      4  C   LIG    1       -3.121   2.427   4.562  0.00  0.00    -0.010 A 
ATOM      5  C   LIG    1       -2.738   3.472   5.383  0.00  0.00    +0.050 A 
ATOM      6  C   LIG    1       -1.557   4.154   5.148  0.00  0.00    -0.020 A 
ATOM      7  C   LIG    1       -0.747   3.797   4.087  0.00  0.00    +0.100 A 
ATOM      8  C   LIG    1       -1.125   2.750   3.259  0.00  0.00    -0.120 A 
ATOM      9  C   LIG    1       -0.287   2.332   2.105  0.00  0.00    +0.240 C 
ATOM     10  N   LIG    1        1.006   2.725   2.002  0.00  0.00    -0.570 NA
ATOM     11  C   LIG    1        1.810   2.378   1.024  0.00  0.00    +0.580 A 
ATOM     12  N   LIG    1        3.105   2.671   0.773  0.00  0.00    -0.520 NA
ATOM     13  C   LIG    1        3.495   2.094  -0.330  0.00  0.00    +0.630 A 
ATOM     14  N   LIG    1        2.461   1.385  -0.863  0.00  0.00    -0.480 N 
ATOM     15  H   LIG    1        2.476   0.861  -1.679  0.00  0.00    +0.450 HD
ATOM     16  N   LIG    1        1.375   1.563  -0.003  0.00  0.00    -0.460 N 
ATOM     17  C   LIG    1       -0.013   1.086   0.008  0.00  0.00    +0.370 C 
ATOM     18  C   LIG    1       -0.860   1.540   1.176  0.00  0.00    -0.310 C 
ENDROOT
BRANCH   1  23
ATOM     19  C   LIG    1       -5.633   5.064  -1.310  0.00  0.00    +0.080 C 
ATOM     20  C   LIG    1       -4.764   4.039  -0.629  0.00  0.00    -0.080 A 
ATOM     21  C   LIG    1       -4.451   2.858  -1.277  0.00  0.00    +0.000 A 
ATOM     22  C   LIG    1       -3.653   1.918  -0.652  0.00  0.00    +0.030 A 
ATOM     23  C   LIG    1       -3.168   2.158   0.620  0.00  0.00    -0.110 A 
ATOM     24  C   LIG    1       -3.485   3.336   1.269  0.00  0.00    +0.030 A 
ATOM     25  C   LIG    1       -4.279   4.279   0.643  0.00  0.00    +0.000 A 
ENDBRANCH   1  23
BRANCH  17  26
ATOM     26  C   LIG    1       -0.680   1.551  -1.261  0.00  0.00    -0.120 A 
ATOM     27  C   LIG    1       -0.480   2.842  -1.713  0.00  0.00    +0.030 A 
ATOM     28  C   LIG    1       -1.089   3.268  -2.879  0.00  0.00    +0.010 A 
ATOM     29  C   LIG    1       -1.904   2.405  -3.588  0.00  0.00    -0.070 A 
ATOM     30  C   LIG    1       -2.107   1.116  -3.133  0.00  0.00    +0.000 A 
ATOM     31  C   LIG    1       -2.571   2.870  -4.856  0.00  0.00    +0.090 C 
ATOM     32  C   LIG    1       -1.495   0.689  -1.969  0.00  0.00    +0.020 A 
ENDBRANCH  17  26
TORSDOF 2
