REMARK  Name = ZINCrg000000nvee.0
REMARK                            x       y       z     vdW  Elec       q    Type
REMARK                         _______ _______ _______ _____ _____    ______ ____
ROOT
ATOM      1  N   LIG    1        0.906  -2.313   3.676  0.00  0.00    -0.740 N 
ATOM      2  H   LIG    1        0.345  -2.818   3.067  0.00  0.00    +0.390 HD
ATOM      3  C   LIG    1        1.676  -2.959   4.574  0.00  0.00    +0.710 C 
ATOM      4  N   LIG    1        1.592  -4.299   4.695  0.00  0.00    -0.630 N 
ATOM      5  C   LIG    1        0.753  -5.083   3.780  0.00  0.00    +0.280 C 
ATOM      6  C   LIG    1        1.547  -6.245   3.201  0.00  0.00    -0.010 C 
ATOM      7  C   LIG    1        2.250  -7.035   4.306  0.00  0.00    +0.050 C 
ATOM      8  C   LIG    1        3.191  -6.087   5.054  0.00  0.00    +0.050 C 
ATOM      9  C   LIG    1        4.102  -5.391   4.071  0.00  0.00    +0.190 A 
ATOM     10  C   LIG    1        5.314  -4.977   4.526  0.00  0.00    -0.100 A 
ATOM     11  C   LIG    1        6.184  -4.268   3.690  0.00  0.00    +0.140 A 
ATOM     12  C   LIG    1        5.785  -3.977   2.418  0.00  0.00    -0.110 A 
ATOM     13  C   LIG    1        4.528  -4.416   1.981  0.00  0.00    +0.510 A 
ATOM     14  O   LIG    1        4.134  -4.109   0.867  0.00  0.00    -0.560 OA
ATOM     15  N   LIG    1        3.744  -5.178   2.783  0.00  0.00    -0.480 N 
ATOM     16  C   LIG    1        2.562  -5.785   2.171  0.00  0.00    +0.290 C 
ATOM     17  C   LIG    1        2.343  -5.009   5.742  0.00  0.00    +0.320 C 
ATOM     18  O   LIG    1        2.447  -2.333   5.276  0.00  0.00    -0.580 OA
ENDROOT
BRANCH   1  19
ATOM     19  C   LIG    1        0.918  -0.850   3.620  0.00  0.00    +0.290 C 
BRANCH  19  20
ATOM     20  C   LIG    1       -0.036  -0.374   2.522  0.00  0.00    +0.180 C 
BRANCH  20  28
ATOM     21  C   LIG    1       -0.030   1.087   0.015  0.00  0.00    +0.020 C 
ATOM     22  C   LIG    1       -0.740   1.581   1.277  0.00  0.00    +0.070 C 
ATOM     23  C   LIG    1       -0.755   3.112   1.289  0.00  0.00    +0.230 C 
ATOM     24  O   LIG    1        0.589   3.596   1.349  0.00  0.00    -0.380 OA
ATOM     25  C   LIG    1        1.315   3.142   2.494  0.00  0.00    +0.220 C 
ATOM     26  C   LIG    1        1.351   1.611   2.494  0.00  0.00    +0.140 C 
ATOM     27  C   LIG    1       -2.177   1.054   1.294  0.00  0.00    +0.050 C 
ATOM     28  N   LIG    1       -0.025   1.094   2.466  0.00  0.00    -0.520 NA
ENDBRANCH  20  28
ENDBRANCH  19  20
ENDBRANCH   1  19
TORSDOF 3
