REMARK  Name = ZINCpe00000zkmC6.0
REMARK                            x       y       z     vdW  Elec       q    Type
REMARK                         _______ _______ _______ _____ _____    ______ ____
ROOT
ATOM      1  C   LIG    1       -0.947   2.624  -5.757  0.00  0.00    +0.150 C 
ATOM      2  C   LIG    1       -0.641   3.885  -4.909  0.00  0.00    +0.050 C 
ATOM      3  C   LIG    1       -1.194   3.483  -3.520  0.00  0.00    +0.030 C 
ATOM      4  C   LIG    1       -1.242   1.944  -3.563  0.00  0.00    +0.170 C 
ATOM      5  O   LIG    1       -0.717   1.535  -4.837  0.00  0.00    -0.340 OA
ENDROOT
BRANCH   4   6
ATOM      6  C   LIG    1       -0.398   1.373  -2.453  0.00  0.00    +0.540 C 
ATOM      7  N   LIG    1       -0.743   1.582  -1.167  0.00  0.00    -0.620 N 
ATOM      8  C   LIG    1       -1.915   2.349  -0.707  0.00  0.00    +0.280 C 
ATOM      9  C   LIG    1       -1.545   2.819   0.722  0.00  0.00    +0.050 C 
ATOM     10  C   LIG    1       -0.756   1.594   1.262  0.00  0.00    +0.280 C 
ATOM     11  F   LIG    1        0.153   1.983   2.252  0.00  0.00    -0.180 F 
ATOM     12  F   LIG    1       -1.631   0.617   1.748  0.00  0.00    -0.180 F 
ATOM     13  C   LIG    1       -0.013   1.086   0.008  0.00  0.00    +0.270 C 
ATOM     14  O   LIG    1        0.593   0.725  -2.717  0.00  0.00    -0.510 OA
ENDBRANCH   4   6
BRANCH   1  15
ATOM     15  C   LIG    1        0.006   2.532  -6.950  0.00  0.00    +0.340 C 
BRANCH  15  20
ATOM     16  C   LIG    1       -2.250  -0.154 -10.370  0.00  0.00    +0.510 A 
ATOM     17  C   LIG    1       -1.353   0.117  -9.322  0.00  0.00    -0.110 A 
ATOM     18  N   LIG    1       -0.435  -0.611  -8.642  0.00  0.00    -0.470 NA
ATOM     19  C   LIG    1        0.137   0.141  -7.747  0.00  0.00    +0.490 A 
ATOM     20  N   LIG    1       -0.380   1.401  -7.798  0.00  0.00    -0.470 N 
ATOM     21  C   LIG    1       -1.334   1.415  -8.784  0.00  0.00    +0.300 A 
ATOM     22  N   LIG    1       -2.158   2.332  -9.280  0.00  0.00    -0.560 NA
ATOM     23  C   LIG    1       -2.985   2.031 -10.259  0.00  0.00    +0.560 A 
ATOM     24  N   LIG    1       -3.042   0.826 -10.794  0.00  0.00    -0.590 NA
BRANCH  16  25
ATOM     25  N   LIG    1       -2.318  -1.415 -10.935  0.00  0.00    -0.820 N 
ATOM     26  H   LIG    1       -2.941  -1.589 -11.658  0.00  0.00    +0.410 HD
ATOM     27  H   LIG    1       -1.743  -2.125 -10.609  0.00  0.00    +0.420 HD
ENDBRANCH  16  25
ENDBRANCH  15  20
ENDBRANCH   1  15
TORSDOF 4
