REMARK  Name = ZINCpk000000nXe1.0
REMARK                            x       y       z     vdW  Elec       q    Type
REMARK                         _______ _______ _______ _____ _____    ______ ____
ROOT
ATOM      1  N   LIG    1       -2.751  -1.194   2.133  0.00  0.00    -1.000 NA
ATOM      2  C   LIG    1       -1.601  -1.923   2.685  0.00  0.00    +0.280 C 
ATOM      3  C   LIG    1       -2.116  -3.120   3.489  0.00  0.00    +0.020 C 
ATOM      4  C   LIG    1       -3.032  -3.969   2.604  0.00  0.00    +0.010 C 
ATOM      5  C   LIG    1       -4.234  -3.132   2.160  0.00  0.00    +0.180 C 
ATOM      6  C   LIG    1       -3.746  -1.936   1.345  0.00  0.00    +0.300 C 
ENDROOT
BRANCH   1   7
ATOM      7  S   LIG    1       -2.927   0.431   2.398  0.00  0.00    +2.780 S 
ATOM      8  O   LIG    1       -4.312   0.714   2.251  0.00  0.00    -0.970 OA
ATOM      9  O   LIG    1       -2.195   0.726   3.580  0.00  0.00    -0.970 OA
BRANCH   7  13
ATOM     10  C   LIG    1       -2.663   1.595  -2.568  0.00  0.00    +0.080 C 
ATOM     11  C   LIG    1       -2.045   1.075  -1.268  0.00  0.00    +0.100 C 
ATOM     12  C   LIG    1       -2.870   1.570  -0.075  0.00  0.00    +0.280 C 
ATOM     13  N   LIG    1       -2.155   1.216   1.162  0.00  0.00    -1.010 NA
ATOM     14  C   LIG    1       -0.732   1.581   1.268  0.00  0.00    +0.270 C 
ATOM     15  C   LIG    1       -0.013   1.086   0.008  0.00  0.00    +0.220 C 
ATOM     16  C   LIG    1       -2.035  -0.455  -1.283  0.00  0.00    +0.020 C 
ATOM     17  O   LIG    1       -0.706   1.560  -1.149  0.00  0.00    -0.370 OA
ENDBRANCH   7  13
ENDBRANCH   1   7
BRANCH   5  18
ATOM     18  O   LIG    1       -5.103  -3.934   1.359  0.00  0.00    -0.290 OA
BRANCH  18  19
ATOM     19  C   LIG    1       -6.081  -4.619   2.006  0.00  0.00    +0.300 A 
ATOM     20  N   LIG    1       -6.186  -4.525   3.320  0.00  0.00    -0.510 NA
ATOM     21  C   LIG    1       -7.124  -5.170   3.988  0.00  0.00    +0.300 A 
ATOM     22  C   LIG    1       -8.030  -5.980   3.333  0.00  0.00    -0.030 A 
ATOM     23  C   LIG    1       -7.951  -6.111   1.953  0.00  0.00    +0.090 A 
ATOM     24  C   LIG    1       -6.959  -5.417   1.280  0.00  0.00    +0.030 A 
ATOM     25  F   LIG    1       -6.846  -5.516  -0.063  0.00  0.00    -0.120 F 
ENDBRANCH  18  19
ENDBRANCH   5  18
TORSDOF 4
