REMARK  Name = ZINCkj000005hny1.1
REMARK                            x       y       z     vdW  Elec       q    Type
REMARK                         _______ _______ _______ _____ _____    ______ ____
ROOT
ATOM      1  C   LIG    1       -1.228   3.143   0.025  0.00  0.00    -0.140 A 
ATOM      2  C   LIG    1       -1.086   1.976  -0.737  0.00  0.00    +0.020 A 
ATOM      3  C   LIG    1        0.104   1.309  -0.758  0.00  0.00    +0.060 A 
ATOM      4  C   LIG    1        1.188   1.795  -0.028  0.00  0.00    -0.040 A 
ATOM      5  C   LIG    1        2.577   1.339   0.163  0.00  0.00    -0.300 A 
ATOM      6  C   LIG    1        3.169   2.253   1.011  0.00  0.00    +0.380 A 
ATOM      7  N   LIG    1        2.279   3.204   1.344  0.00  0.00    -0.560 N 
ATOM      8  H   LIG    1        2.467   3.954   1.930  0.00  0.00    +0.430 HD
ATOM      9  C   LIG    1        1.061   2.968   0.737  0.00  0.00    +0.070 A 
ATOM     10  C   LIG    1       -0.153   3.639   0.759  0.00  0.00    +0.100 A 
ENDROOT
BRANCH   1  17
ATOM     11  C   LIG    1       -6.985   1.244   1.646  0.00  0.00    +0.330 C 
ATOM     12  N   LIG    1       -5.993   1.802   0.717  0.00  0.00    -0.390 N 
ATOM     13  C   LIG    1       -5.917   3.257   0.900  0.00  0.00    +0.260 C 
ATOM     14  C   LIG    1       -4.968   3.853  -0.145  0.00  0.00    +0.330 C 
ATOM     15  N   LIG    1       -3.674   3.160  -0.049  0.00  0.00    -0.630 N 
ATOM     16  C   LIG    1       -3.672   1.689  -0.065  0.00  0.00    +0.320 C 
ATOM     17  C   LIG    1       -2.522   3.854   0.045  0.00  0.00    +0.580 C 
ATOM     18  O   LIG    1       -2.549   5.065   0.148  0.00  0.00    -0.510 OA
ATOM     19  C   LIG    1       -4.682   1.195   0.982  0.00  0.00    +0.260 C 
ATOM     20  H   LIG    1       -6.271   1.597  -0.231  0.00  0.00    +0.430 HD
ENDBRANCH   1  17
BRANCH   5  21
ATOM     21  C   LIG    1        3.182   0.191  -0.408  0.00  0.00    +0.510 C 
ATOM     22  O   LIG    1        4.343  -0.068  -0.165  0.00  0.00    -0.470 OA
ENDBRANCH   5  21
TORSDOF 2
