REMARK  Name = ZINCvU0000000Ikn.0
REMARK                            x       y       z     vdW  Elec       q    Type
REMARK                         _______ _______ _______ _____ _____    ______ ____
ROOT
ATOM      1  C   LIG    1        3.667   2.239  -0.017  0.00  0.00    +0.100 C 
ATOM      2  C   LIG    1        2.386   1.444  -0.012  0.00  0.00    -0.100 A 
ATOM      3  C   LIG    1        1.163   2.099   0.002  0.00  0.00    +0.080 A 
ATOM      4  C   LIG    1       -0.017   1.390   0.010  0.00  0.00    -0.090 A 
ATOM      5  C   LIG    1        0.002  -0.004   0.002  0.00  0.00    +0.130 A 
ATOM      6  O   LIG    1       -1.172  -0.676   0.016  0.00  0.00    -0.180 OA
ATOM      7  C   LIG    1       -1.183  -2.002  -0.226  0.00  0.00    +0.090 A 
ATOM      8  C   LIG    1       -0.045  -2.755  -0.258  0.00  0.00    -0.250 A 
ATOM      9  C   LIG    1       -0.440  -4.167  -0.543  0.00  0.00    +0.350 C 
ATOM     10  N   LIG    1       -1.906  -4.154  -0.677  0.00  0.00    -0.590 N 
ATOM     11  C   LIG    1        1.271  -2.146  -0.037  0.00  0.00    +0.460 A 
ATOM     12  O   LIG    1        2.291  -2.796   0.114  0.00  0.00    -0.430 OA
ATOM     13  C   LIG    1       -2.331  -2.887  -0.492  0.00  0.00    +0.570 C 
ATOM     14  O   LIG    1       -3.491  -2.528  -0.538  0.00  0.00    -0.480 OA
ATOM     15  C   LIG    1        1.243  -0.662  -0.017  0.00  0.00    -0.200 A 
ATOM     16  C   LIG    1       -1.333   2.123   0.020  0.00  0.00    +0.120 C 
ATOM     17  C   LIG    1        2.432   0.067  -0.021  0.00  0.00    +0.110 A 
ENDROOT
BRANCH   9  18
ATOM     18  C   LIG    1       -0.031  -5.062   0.599  0.00  0.00    -0.090 A 
ATOM     19  C   LIG    1       -0.786  -5.095   1.756  0.00  0.00    +0.040 A 
ATOM     20  C   LIG    1       -0.414  -5.919   2.801  0.00  0.00    +0.030 A 
ATOM     21  C   LIG    1        0.719  -6.704   2.694  0.00  0.00    +0.040 A 
ATOM     22  C   LIG    1        1.478  -6.667   1.538  0.00  0.00    -0.030 A 
ATOM     23 CL   LIG    1        2.901  -7.652   1.402  0.00  0.00    -0.060 Cl
ATOM     24  C   LIG    1        1.102  -5.846   0.490  0.00  0.00    +0.060 A 
ENDBRANCH   9  18
BRANCH  10  25
ATOM     25  C   LIG    1       -2.755  -5.313  -0.962  0.00  0.00    +0.400 C 
BRANCH  25  26
ATOM     26  C   LIG    1       -3.176  -5.957   0.334  0.00  0.00    -0.180 A 
ATOM     27  C   LIG    1       -2.407  -6.962   0.901  0.00  0.00    +0.090 A 
ATOM     28  C   LIG    1       -2.831  -7.522   2.096  0.00  0.00    -0.030 A 
ATOM     29  C   LIG    1       -4.003  -7.072   2.673  0.00  0.00    +0.270 A 
ATOM     30  N   LIG    1       -4.713  -6.117   2.102  0.00  0.00    -0.480 NA
ATOM     31  C   LIG    1       -4.337  -5.558   0.969  0.00  0.00    +0.290 A 
ENDBRANCH  25  26
ENDBRANCH  10  25
TORSDOF 3
