REMARK  Name = ZINCrD00000lbnrd.0
REMARK                            x       y       z     vdW  Elec       q    Type
REMARK                         _______ _______ _______ _____ _____    ______ ____
ROOT
ATOM      1  C   LIG    1       -1.863   0.419  -1.181  0.00  0.00    -0.020 A 
ATOM      2  C   LIG    1       -2.904   0.014  -0.358  0.00  0.00    -0.050 A 
ATOM      3  C   LIG    1       -3.817  -0.909  -0.829  0.00  0.00    +0.300 A 
ATOM      4  N   LIG    1       -3.710  -1.406  -2.046  0.00  0.00    -0.520 NA
ATOM      5  C   LIG    1       -2.732  -1.044  -2.860  0.00  0.00    +0.320 A 
ATOM      6  C   LIG    1       -1.781  -0.117  -2.454  0.00  0.00    -0.020 A 
ENDROOT
BRANCH   1   7
ATOM      7  C   LIG    1       -0.848   1.425  -0.701  0.00  0.00    +0.340 C 
BRANCH   7   8
ATOM      8  N   LIG    1        0.266   0.725  -0.057  0.00  0.00    -1.120 NA
ATOM      9  H   LIG    1        0.166  -0.202   0.213  0.00  0.00    +0.420 HD
BRANCH   8  10
ATOM     10  S   LIG    1        1.699   1.513   0.204  0.00  0.00    +2.780 S 
ATOM     11  O   LIG    1        2.036   2.150  -1.021  0.00  0.00    -0.970 OA
ATOM     12  O   LIG    1        2.554   0.585   0.859  0.00  0.00    -0.970 OA
BRANCH  10  13
ATOM     13  N   LIG    1        1.401   2.724   1.294  0.00  0.00    -1.000 NA
BRANCH  13  14
ATOM     14  C   LIG    1        1.353   2.423   2.727  0.00  0.00    +0.290 C 
BRANCH  14  16
ATOM     15  C   LIG    1        2.673   2.383   4.848  0.00  0.00    +0.030 C 
ATOM     16  C   LIG    1        2.723   2.696   3.352  0.00  0.00    -0.010 C 
ENDBRANCH  14  16
ENDBRANCH  13  14
BRANCH  13  17
ATOM     17  C   LIG    1        1.185   4.095   0.825  0.00  0.00    +0.290 C 
BRANCH  17  18
ATOM     18  C   LIG    1       -0.308   4.424   0.881  0.00  0.00    -0.020 C 
ATOM     19  C   LIG    1       -0.519   5.896   0.526  0.00  0.00    +0.030 C 
ENDBRANCH  17  18
ENDBRANCH  13  17
ENDBRANCH  10  13
ENDBRANCH   8  10
ENDBRANCH   7   8
ENDBRANCH   1   7
BRANCH   5  20
ATOM     20  O   LIG    1       -2.660  -1.581  -4.104  0.00  0.00    -0.240 OA
BRANCH  20  21
ATOM     21  C   LIG    1       -3.664  -2.406  -4.502  0.00  0.00    +0.060 A 
ATOM     22  C   LIG    1       -3.474  -3.781  -4.501  0.00  0.00    +0.060 A 
ATOM     23  C   LIG    1       -4.496  -4.619  -4.900  0.00  0.00    -0.060 A 
ATOM     24  C   LIG    1       -5.709  -4.087  -5.313  0.00  0.00    +0.130 A 
ATOM     25  C   LIG    1       -5.897  -2.713  -5.319  0.00  0.00    +0.000 A 
ATOM     26  C   LIG    1       -4.877  -1.874  -4.915  0.00  0.00    +0.060 A 
BRANCH  24  27
ATOM     27  O   LIG    1       -6.713  -4.913  -5.711  0.00  0.00    -0.310 OA
ATOM     28  C   LIG    1       -6.450  -6.317  -5.679  0.00  0.00    +0.240 C 
ENDBRANCH  24  27
ENDBRANCH  20  21
ENDBRANCH   5  20
TORSDOF 11
