REMARK  Name = ZINCtV00000L6jb5.0
REMARK                            x       y       z     vdW  Elec       q    Type
REMARK                         _______ _______ _______ _____ _____    ______ ____
ROOT
ATOM      1  P   LIG    1       -0.780   3.451   2.306  0.00  0.00    +2.570 P 
ATOM      2  O   LIG    1        0.610   3.708   1.867  0.00  0.00    -1.040 OA
ENDROOT
BRANCH   1   3
ATOM      3  C   LIG    1       -0.769   2.799   3.998  0.00  0.00    -0.750 A 
ATOM      4  C   LIG    1       -1.885   2.944   4.802  0.00  0.00    +0.070 A 
ATOM      5  C   LIG    1       -1.879   2.443   6.090  0.00  0.00    -0.010 A 
ATOM      6  C   LIG    1       -0.753   1.807   6.579  0.00  0.00    +0.040 A 
ATOM      7  C   LIG    1        0.364   1.667   5.778  0.00  0.00    +0.000 A 
ATOM      8  C   LIG    1        0.356   2.163   4.487  0.00  0.00    +0.100 A 
ENDBRANCH   1   3
BRANCH   1   9
ATOM      9  N   LIG    1       -1.634   4.850   2.264  0.00  0.00    -1.110 N 
ATOM     10  H   LIG    1       -2.446   4.907   1.736  0.00  0.00    +0.410 HD
BRANCH   9  11
ATOM     11  C   LIG    1       -1.192   5.962   2.990  0.00  0.00    +0.130 A 
ATOM     12  C   LIG    1        0.012   5.907   3.680  0.00  0.00    +0.000 A 
ATOM     13  C   LIG    1        0.450   7.005   4.393  0.00  0.00    -0.020 A 
ATOM     14  C   LIG    1       -0.318   8.162   4.427  0.00  0.00    +0.190 A 
ATOM     15  C   LIG    1       -1.524   8.216   3.741  0.00  0.00    -0.030 A 
ATOM     16  C   LIG    1       -1.960   7.119   3.025  0.00  0.00    +0.010 A 
BRANCH  14  17
ATOM     17  N   LIG    1        0.124   9.274   5.154  0.00  0.00    -0.640 N 
ATOM     18  C   LIG    1        1.397   9.218   5.878  0.00  0.00    +0.280 C 
ATOM     19  C   LIG    1       -0.686  10.494   5.191  0.00  0.00    +0.280 C 
ENDBRANCH  14  17
ENDBRANCH   9  11
ENDBRANCH   1   9
BRANCH   1  20
ATOM     20  O   LIG    1       -1.462   2.375   1.321  0.00  0.00    -0.740 OA
BRANCH  20  27
ATOM     21  C   LIG    1       -1.981   0.025   1.101  0.00  0.00    +0.000 C 
ATOM     22  C   LIG    1       -3.051   0.337   0.053  0.00  0.00    +0.030 C 
ATOM     23  C   LIG    1       -2.416   0.349  -1.338  0.00  0.00    +0.000 C 
ATOM     24  C   LIG    1       -1.324   1.420  -1.391  0.00  0.00    -0.010 C 
ATOM     25  C   LIG    1       -0.253   1.107  -0.343  0.00  0.00    +0.030 C 
ATOM     26  C   LIG    1       -1.938   2.790  -1.099  0.00  0.00    +0.010 C 
ATOM     27  C   LIG    1       -0.888   1.095   1.048  0.00  0.00    +0.230 C 
BRANCH  21  29
ATOM     28  C   LIG    1       -3.802  -0.954   2.503  0.00  0.00    +0.020 C 
ATOM     29  C   LIG    1       -2.616   0.013   2.492  0.00  0.00    -0.020 C 
ATOM     30  C   LIG    1       -1.580  -0.440   3.523  0.00  0.00    +0.000 C 
ENDBRANCH  21  29
ENDBRANCH  20  27
ENDBRANCH   1  20
TORSDOF 7
