REMARK  Name = ZINCrD000000C6PY.0
REMARK                            x       y       z     vdW  Elec       q    Type
REMARK                         _______ _______ _______ _____ _____    ______ ____
ROOT
ATOM      1  C   LIG    1        0.005   0.039   0.487  0.00  0.00    -0.100 A 
ATOM      2  C   LIG    1        0.003   1.417   0.405  0.00  0.00    +0.010 A 
ATOM      3  C   LIG    1        1.163   2.092   0.049  0.00  0.00    +0.160 A 
ATOM      4  C   LIG    1        2.322   1.378  -0.223  0.00  0.00    +0.040 A 
ATOM      5  C   LIG    1        2.318  -0.001  -0.139  0.00  0.00    +0.030 A 
ATOM      6  C   LIG    1        1.161  -0.670   0.215  0.00  0.00    -0.010 A 
ENDROOT
BRANCH   3   7
ATOM      7  N   LIG    1        1.164   3.489  -0.035  0.00  0.00    -0.680 N 
ATOM      8  H   LIG    1        0.335   3.966  -0.194  0.00  0.00    +0.410 HD
ATOM      9  C   LIG    1        2.318   4.172   0.104  0.00  0.00    +0.710 C 
ATOM     10  N   LIG    1        2.297   5.515   0.212  0.00  0.00    -0.620 N 
ATOM     11  C   LIG    1        1.024   6.237   0.333  0.00  0.00    +0.260 C 
ATOM     12  C   LIG    1        0.960   7.316  -0.747  0.00  0.00    +0.020 C 
ATOM     13  C   LIG    1        2.198   8.210  -0.647  0.00  0.00    -0.010 C 
ATOM     14  C   LIG    1        2.121   9.299  -1.721  0.00  0.00    +0.010 C 
ATOM     15  C   LIG    1        2.052   8.645  -3.103  0.00  0.00    +0.000 C 
ATOM     16  C   LIG    1        3.303   7.794  -3.330  0.00  0.00    +0.000 C 
ATOM     17  C   LIG    1        3.386   6.710  -2.253  0.00  0.00    +0.010 C 
ATOM     18  C   LIG    1        3.456   7.368  -0.874  0.00  0.00    -0.020 C 
ATOM     19  C   LIG    1        3.548   6.286   0.206  0.00  0.00    +0.300 C 
ATOM     20  O   LIG    1        3.377   3.576   0.131  0.00  0.00    -0.570 OA
ENDBRANCH   3   7
BRANCH   1  21
ATOM     21  C   LIG    1       -1.254  -0.694   0.873  0.00  0.00    +0.360 C 
BRANCH  21  28
ATOM     22  O   LIG    1       -3.130   0.905  -0.194  0.00  0.00    -0.530 OA
ATOM     23  C   LIG    1       -2.944  -0.142  -0.790  0.00  0.00    +0.630 A 
ATOM     24  N   LIG    1       -3.653  -0.408  -1.890  0.00  0.00    -0.550 NA
ATOM     25  C   LIG    1       -3.477  -1.535  -2.551  0.00  0.00    +0.420 A 
ATOM     26  C   LIG    1       -2.534  -2.464  -2.102  0.00  0.00    -0.140 A 
ATOM     27  C   LIG    1       -1.811  -2.185  -0.984  0.00  0.00    +0.360 A 
ATOM     28  N   LIG    1       -2.024  -1.012  -0.333  0.00  0.00    -0.510 N 
ENDBRANCH  21  28
ENDBRANCH   1  21
TORSDOF 3
