REMARK  Name = ZINCvU0000000HW7.0
REMARK                            x       y       z     vdW  Elec       q    Type
REMARK                         _______ _______ _______ _____ _____    ______ ____
ROOT
ATOM      1  O   LIG    1       -5.976   3.510  -1.897  0.00  0.00    -0.510 OA
ATOM      2  C   LIG    1       -4.914   4.010  -2.205  0.00  0.00    +0.520 C 
ATOM      3  N   LIG    1       -4.854   5.315  -2.533  0.00  0.00    -0.720 N 
ATOM      4  H   LIG    1       -4.005   5.715  -2.779  0.00  0.00    +0.410 HD
ENDROOT
BRANCH   3   5
ATOM      5  C   LIG    1       -6.070   6.131  -2.518  0.00  0.00    +0.310 C 
ATOM      6  C   LIG    1       -6.786   5.972  -3.846  0.00  0.00    +0.030 C 
ATOM      7  C   LIG    1       -6.198   6.869  -4.922  0.00  0.00    +0.120 C 
ATOM      8  O   LIG    1       -6.117   8.220  -4.504  0.00  0.00    -0.300 OA
ATOM      9  C   LIG    1       -5.733   8.521  -3.242  0.00  0.00    +0.170 A 
ATOM     10  C   LIG    1       -5.369   9.832  -2.950  0.00  0.00    +0.000 A 
ATOM     11  C   LIG    1       -4.978  10.178  -1.673  0.00  0.00    +0.080 A 
ATOM     12  C   LIG    1       -4.947   9.218  -0.678  0.00  0.00    -0.080 A 
ATOM     13  C   LIG    1       -5.305   7.914  -0.965  0.00  0.00    +0.090 A 
ATOM     14 CL   LIG    1       -4.458   9.650   0.931  0.00  0.00    -0.070 Cl
ATOM     15  C   LIG    1       -7.062   6.776  -6.198  0.00  0.00    +0.060 C 
ATOM     16  C   LIG    1       -6.036   6.819  -7.356  0.00  0.00    +0.020 C 
ATOM     17  C   LIG    1       -4.857   5.982  -6.800  0.00  0.00    +0.020 C 
ATOM     18  C   LIG    1       -4.795   6.362  -5.306  0.00  0.00    +0.000 C 
ATOM     19  C   LIG    1       -5.696   7.560  -2.246  0.00  0.00    -0.180 A 
ENDBRANCH   3   5
BRANCH   2  20
ATOM     20  C   LIG    1       -3.663   3.170  -2.220  0.00  0.00    -0.010 C 
BRANCH  20  21
ATOM     21  C   LIG    1       -3.066   3.170  -3.629  0.00  0.00    +0.460 C 
ATOM     22  F   LIG    1       -1.904   2.390  -3.643  0.00  0.00    -0.160 F 
ATOM     23  F   LIG    1       -2.752   4.481  -4.003  0.00  0.00    -0.180 F 
ATOM     24  F   LIG    1       -3.995   2.638  -4.529  0.00  0.00    -0.170 F 
ENDBRANCH  20  21
BRANCH  20  25
ATOM     25  C   LIG    1       -4.005   1.736  -1.811  0.00  0.00    +0.150 C 
BRANCH  25  26
ATOM     26  C   LIG    1       -2.738   0.927  -1.707  0.00  0.00    -0.120 A 
ATOM     27  C   LIG    1       -2.255   0.256  -2.815  0.00  0.00    +0.060 A 
ATOM     28  C   LIG    1       -1.097  -0.491  -2.721  0.00  0.00    -0.020 A 
ATOM     29  C   LIG    1       -0.412  -0.559  -1.516  0.00  0.00    +0.110 A 
ATOM     30  C   LIG    1       -0.896   0.120  -0.407  0.00  0.00    -0.020 A 
ATOM     31  C   LIG    1       -2.058   0.862  -0.505  0.00  0.00    +0.040 A 
BRANCH  29  32
ATOM     32  O   LIG    1        0.730  -1.288  -1.422  0.00  0.00    -0.500 OA
ATOM     33  H   LIG    1        1.534  -0.789  -1.623  0.00  0.00    +0.390 HD
ENDBRANCH  29  32
ENDBRANCH  25  26
ENDBRANCH  20  25
ENDBRANCH   2  20
TORSDOF 6
