REMARK  Name = ZINCrg00000fREEr.0
REMARK                            x       y       z     vdW  Elec       q    Type
REMARK                         _______ _______ _______ _____ _____    ______ ____
ROOT
ATOM      1  C   LIG    1       -3.737   2.041   0.649  0.00  0.00    -0.070 A 
ATOM      2  C   LIG    1       -4.927   1.310   0.672  0.00  0.00    +0.100 A 
ATOM      3  C   LIG    1       -4.896  -0.072   0.663  0.00  0.00    +0.050 A 
ATOM      4  C   LIG    1       -3.690  -0.749   0.631  0.00  0.00    +0.110 A 
ATOM      5  C   LIG    1       -2.491  -0.040   0.608  0.00  0.00    -0.120 A 
ATOM      6  C   LIG    1       -1.195  -0.755   0.574  0.00  0.00    +0.440 C 
ATOM      7  O   LIG    1       -1.154  -1.941   0.313  0.00  0.00    -0.420 OA
ATOM      8  C   LIG    1        0.050  -0.008   0.860  0.00  0.00    -0.120 A 
ATOM      9  C   LIG    1        1.237  -0.683   1.118  0.00  0.00    +0.080 A 
ATOM     10  C   LIG    1        2.392   0.033   1.385  0.00  0.00    +0.040 A 
ATOM     11  C   LIG    1        2.373   1.415   1.396  0.00  0.00    +0.040 A 
ATOM     12  C   LIG    1        1.199   2.103   1.140  0.00  0.00    +0.070 A 
ATOM     13  C   LIG    1        0.030   1.399   0.870  0.00  0.00    -0.120 A 
ATOM     14  C   LIG    1       -1.236   2.115   0.601  0.00  0.00    +0.430 C 
ATOM     15  O   LIG    1       -1.229   3.306   0.361  0.00  0.00    -0.410 OA
ATOM     16  C   LIG    1       -2.510   1.363   0.618  0.00  0.00    -0.070 A 
ENDROOT
BRANCH   1  17
ATOM     17  C   LIG    1       -3.772   3.519   0.658  0.00  0.00    +0.520 C 
ATOM     18  O   LIG    1       -3.118   4.137   1.474  0.00  0.00    -0.470 OA
BRANCH  17  19
ATOM     19  O   LIG    1       -4.529   4.181  -0.239  0.00  0.00    -0.320 OA
BRANCH  19  20
ATOM     20  C   LIG    1       -4.514   5.631  -0.171  0.00  0.00    +0.270 C 
BRANCH  20  27
ATOM     21  C   LIG    1       -7.376   9.909  -3.500  0.00  0.00    +0.300 C 
ATOM     22  N   LIG    1       -6.502   9.363  -2.458  0.00  0.00    -0.740 N 
ATOM     23  H   LIG    1       -6.027   9.961  -1.860  0.00  0.00    +0.400 HD
ATOM     24  C   LIG    1       -6.359   8.029  -2.330  0.00  0.00    +0.690 C 
ATOM     25  N   LIG    1       -5.556   7.527  -1.371  0.00  0.00    -0.690 N 
ATOM     26  H   LIG    1       -5.081   8.125  -0.773  0.00  0.00    +0.410 HD
ATOM     27  C   LIG    1       -5.412   6.193  -1.243  0.00  0.00    +0.520 C 
ATOM     28  O   LIG    1       -6.006   5.445  -1.990  0.00  0.00    -0.440 OA
ATOM     29  O   LIG    1       -6.954   7.279  -3.078  0.00  0.00    -0.530 OA
ENDBRANCH  20  27
ENDBRANCH  19  20
ENDBRANCH  17  19
ENDBRANCH   1  17
TORSDOF 4
