REMARK  Name = ZINCpe00000VVGqN.0
REMARK                            x       y       z     vdW  Elec       q    Type
REMARK                         _______ _______ _______ _____ _____    ______ ____
ROOT
ATOM      1  O   LIG    1       -4.514  -6.317  -3.120  0.00  0.00    -0.510 OA
ATOM      2  C   LIG    1       -3.852  -5.706  -2.305  0.00  0.00    +0.710 C 
ATOM      3  N   LIG    1       -4.224  -5.722  -1.016  0.00  0.00    -0.660 N 
ATOM      4  H   LIG    1       -5.015  -6.222  -0.761  0.00  0.00    +0.440 HD
ATOM      5  C   LIG    1       -3.534  -5.068  -0.071  0.00  0.00    +0.530 C 
ATOM      6  C   LIG    1       -2.299  -4.276  -0.395  0.00  0.00    -0.100 C 
ATOM      7  C   LIG    1       -1.997  -4.341  -1.865  0.00  0.00    +0.520 C 
ATOM      8  O   LIG    1       -1.029  -3.750  -2.293  0.00  0.00    -0.440 OA
ATOM      9  C   LIG    1       -2.500  -2.818   0.025  0.00  0.00    +0.170 C 
ATOM     10  C   LIG    1       -1.175  -2.098   0.002  0.00  0.00    -0.130 A 
ATOM     11  C   LIG    1       -1.183  -0.712   0.015  0.00  0.00    +0.140 A 
ATOM     12  C   LIG    1        0.002  -0.004   0.002  0.00  0.00    -0.080 A 
ATOM     13  C   LIG    1        1.208  -0.680  -0.013  0.00  0.00    +0.140 A 
ATOM     14  C   LIG    1        1.224  -2.059  -0.024  0.00  0.00    -0.010 A 
ATOM     15  C   LIG    1        0.029  -2.780  -0.019  0.00  0.00    +0.210 A 
ATOM     16  N   LIG    1        0.113  -4.170  -0.044  0.00  0.00    -0.480 N 
ATOM     17  C   LIG    1        1.283  -4.648   0.704  0.00  0.00    +0.210 C 
ATOM     18  C   LIG    1        1.468  -6.147   0.457  0.00  0.00    +0.040 C 
ATOM     19  C   LIG    1        0.209  -6.893   0.905  0.00  0.00    +0.030 C 
ATOM     20  C   LIG    1       -1.004  -6.343   0.147  0.00  0.00    +0.030 C 
ATOM     21  C   LIG    1       -1.112  -4.837   0.397  0.00  0.00    +0.220 C 
ATOM     22  O   LIG    1       -3.919  -5.116   1.078  0.00  0.00    -0.460 OA
ATOM     23  N   LIG    1       -2.767  -5.032  -2.716  0.00  0.00    -0.660 N 
ATOM     24  H   LIG    1       -2.534  -5.045  -3.658  0.00  0.00    +0.440 HD
ENDROOT
BRANCH  12  25
ATOM     25  N   LIG    1       -0.018   1.476   0.010  0.00  0.00    +0.040 N 
ATOM     26  O   LIG    1       -1.081   2.070   0.018  0.00  0.00    -0.170 OA
ATOM     27  O   LIG    1        1.028   2.099   0.004  0.00  0.00    -0.160 OA
ENDBRANCH  12  25
TORSDOF 1
