REMARK  Name = ZINCrD00000F5Lur.1
REMARK                            x       y       z     vdW  Elec       q    Type
REMARK                         _______ _______ _______ _____ _____    ______ ____
ROOT
ATOM      1  C   LIG    1       -2.522   3.376   1.347  0.00  0.00    +0.260 C 
ENDROOT
BRANCH   1   4
ATOM      2  C   LIG    1       -4.510   3.856   4.524  0.00  0.00    +0.110 A 
ATOM      3  C   LIG    1       -4.175   3.529   3.220  0.00  0.00    +0.000 A 
ATOM      4  C   LIG    1       -2.886   3.738   2.764  0.00  0.00    -0.120 A 
ATOM      5  C   LIG    1       -1.933   4.284   3.603  0.00  0.00    +0.000 A 
ATOM      6  C   LIG    1       -2.263   4.619   4.903  0.00  0.00    -0.020 A 
ATOM      7  C   LIG    1       -3.550   4.406   5.368  0.00  0.00    +0.120 A 
BRANCH   2   9
ATOM      8  C   LIG    1       -6.707   3.078   4.053  0.00  0.00    +0.250 C 
ATOM      9  O   LIG    1       -5.775   3.646   4.975  0.00  0.00    -0.300 OA
ENDBRANCH   2   9
BRANCH   7  10
ATOM     10  O   LIG    1       -3.876   4.735   6.647  0.00  0.00    -0.300 OA
BRANCH  10  11
ATOM     11  C   LIG    1       -2.840   5.295   7.457  0.00  0.00    +0.190 C 
BRANCH  11  12
ATOM     12  C   LIG    1       -3.391   5.598   8.852  0.00  0.00    -0.010 C 
ATOM     13  C   LIG    1       -4.461   6.687   8.752  0.00  0.00    +0.020 C 
ATOM     14  C   LIG    1       -2.254   6.081   9.755  0.00  0.00    +0.040 C 
ENDBRANCH  11  12
ENDBRANCH  10  11
ENDBRANCH   7  10
ENDBRANCH   1   4
BRANCH   1  15
ATOM     15  N   LIG    1       -1.180   2.778   1.324  0.00  0.00    -0.500 N 
ATOM     16  H   LIG    1       -0.898   2.622   0.368  0.00  0.00    +0.450 HD
ATOM     17  H   LIG    1       -0.526   3.404   1.769  0.00  0.00    +0.410 HD
BRANCH  15  18
ATOM     18  C   LIG    1       -1.202   1.498   2.045  0.00  0.00    +0.400 C 
BRANCH  18  19
ATOM     19  C   LIG    1        0.138   0.822   1.907  0.00  0.00    +0.130 A 
ATOM     20  N   LIG    1        0.507   0.060   0.914  0.00  0.00    -0.430 NA
ATOM     21  C   LIG    1        1.759  -0.372   1.130  0.00  0.00    +0.010 A 
ATOM     22  C   LIG    1        2.181   0.142   2.300  0.00  0.00    +0.010 A 
ATOM     23  C   LIG    1        3.526  -0.075   2.944  0.00  0.00    +0.150 C 
ATOM     24  C   LIG    1        2.553  -1.274   0.220  0.00  0.00    +0.140 C 
ATOM     25  N   LIG    1        1.153   0.900   2.794  0.00  0.00    -0.550 N 
ATOM     26  H   LIG    1        1.155   1.400   3.626  0.00  0.00    +0.420 HD
ENDBRANCH  18  19
ENDBRANCH  15  18
ENDBRANCH   1  15
BRANCH   1  27
ATOM     27  C   LIG    1       -2.535   4.636   0.479  0.00  0.00    -0.020 C 
BRANCH  27  28
ATOM     28  C   LIG    1       -2.317   4.255  -0.963  0.00  0.00    +0.480 C 
ATOM     29  O   LIG    1       -2.174   5.122  -1.807  0.00  0.00    -0.660 OA
ATOM     30  O   LIG    1       -2.285   3.079  -1.284  0.00  0.00    -0.690 OA
ENDBRANCH  27  28
ENDBRANCH   1  27
TORSDOF 10
