REMARK  Name = ZINCkj00000a7Ukk.0
REMARK                            x       y       z     vdW  Elec       q    Type
REMARK                         _______ _______ _______ _____ _____    ______ ____
ROOT
ATOM      1  C   LIG    1       -2.248   6.993  -1.164  0.00  0.00    +0.350 C 
ENDROOT
BRANCH   1   2
ATOM      2  C   LIG    1       -1.836   5.543  -1.153  0.00  0.00    -0.160 A 
ATOM      3  C   LIG    1       -1.812   4.824  -2.333  0.00  0.00    +0.070 A 
ATOM      4  C   LIG    1       -1.435   3.493  -2.327  0.00  0.00    -0.040 A 
ATOM      5  C   LIG    1       -1.081   2.877  -1.135  0.00  0.00    +0.100 A 
ATOM      6  O   LIG    1       -0.716   1.565  -1.143  0.00  0.00    -0.290 OA
ATOM      7  C   LIG    1       -0.013   1.086   0.008  0.00  0.00    +0.250 C 
ATOM      8  C   LIG    1       -0.743   1.587   1.262  0.00  0.00    +0.250 C 
ATOM      9  O   LIG    1       -0.756   3.018   1.230  0.00  0.00    -0.300 OA
ATOM     10  C   LIG    1       -1.104   3.601   0.051  0.00  0.00    +0.070 A 
ATOM     11 CL   LIG    1       -1.405   2.593  -3.811  0.00  0.00    -0.020 Cl
ATOM     12  C   LIG    1       -1.483   4.935   0.037  0.00  0.00    +0.060 A 
ENDBRANCH   1   2
BRANCH   1  13
ATOM     13  N   LIG    1       -1.063   7.837  -1.367  0.00  0.00    -0.510 N 
ATOM     14  H   LIG    1       -0.631   7.604  -2.249  0.00  0.00    +0.430 HD
ATOM     15  H   LIG    1       -0.405   7.680  -0.619  0.00  0.00    +0.430 HD
BRANCH  13  16
ATOM     16  C   LIG    1       -1.464   9.250  -1.378  0.00  0.00    +0.280 C 
BRANCH  16  21
ATOM     17  O   LIG    1        0.854  10.946  -4.770  0.00  0.00    -0.490 OA
ATOM     18  C   LIG    1        0.390  10.915  -3.647  0.00  0.00    +0.650 C 
ATOM     19  N   LIG    1        0.410   9.819  -2.877  0.00  0.00    -0.750 N 
ATOM     20  H   LIG    1        0.787   8.961  -3.127  0.00  0.00    +0.430 HD
ATOM     21  C   LIG    1       -0.231  10.129  -1.590  0.00  0.00    +0.200 C 
ATOM     22  C   LIG    1       -0.638  11.609  -1.730  0.00  0.00    +0.300 C 
ATOM     23  O   LIG    1       -0.189  11.973  -3.068  0.00  0.00    -0.310 OA
ENDBRANCH  16  21
ENDBRANCH  13  16
ENDBRANCH   1  13
TORSDOF 4
