REMARK  Name = ZINCrD0000074373.1
REMARK                            x       y       z     vdW  Elec       q    Type
REMARK                         _______ _______ _______ _____ _____    ______ ____
ROOT
ATOM      1  C   LIG    1        0.172   0.151  -3.114  0.00  0.00    +0.610 C 
ATOM      2  N   LIG    1        0.198  -0.042  -4.447  0.00  0.00    -0.600 N 
ATOM      3  C   LIG    1       -0.630   0.780  -5.339  0.00  0.00    +0.280 C 
ATOM      4  C   LIG    1       -1.472  -0.137  -6.224  0.00  0.00    +0.020 C 
ATOM      5  C   LIG    1       -0.554  -1.124  -6.950  0.00  0.00    +0.040 C 
ATOM      6  C   LIG    1        0.186  -1.985  -5.924  0.00  0.00    +0.020 C 
ATOM      7  C   LIG    1        1.050  -1.084  -5.037  0.00  0.00    +0.290 C 
ATOM      8  O   LIG    1       -0.627   0.927  -2.628  0.00  0.00    -0.530 OA
ENDROOT
BRANCH   1  15
ATOM      9  C   LIG    1        2.776  -3.159   1.151  0.00  0.00    +0.070 C 
ATOM     10  C   LIG    1        2.520  -1.663   0.958  0.00  0.00    +0.240 C 
ATOM     11  O   LIG    1        1.414  -1.251   1.773  0.00  0.00    -0.360 OA
ATOM     12  C   LIG    1        0.947   0.076   1.516  0.00  0.00    +0.150 C 
ATOM     13  C   LIG    1        0.245   0.121   0.149  0.00  0.00    +0.120 C 
ATOM     14  C   LIG    1        1.132  -0.582  -0.842  0.00  0.00    -0.140 A 
ATOM     15  C   LIG    1        1.115  -0.580  -2.243  0.00  0.00    +0.000 A 
ATOM     16  N   LIG    1        2.110  -1.360  -2.634  0.00  0.00    -0.260 NA
ATOM     17  N   LIG    1        2.731  -1.837  -1.609  0.00  0.00    -0.360 N 
ATOM     18  H   LIG    1        3.495  -2.433  -1.649  0.00  0.00    +0.450 HD
ATOM     19  C   LIG    1       -0.041   0.490   2.609  0.00  0.00    +0.080 C 
ATOM     20  C   LIG    1        2.164  -1.389  -0.480  0.00  0.00    -0.020 A 
ENDBRANCH   1  15
BRANCH   5  21
ATOM     21  C   LIG    1       -1.379  -2.010  -7.848  0.00  0.00    -0.050 A 
ATOM     22  C   LIG    1       -2.365  -2.814  -7.303  0.00  0.00    +0.010 A 
ATOM     23  C   LIG    1       -3.127  -3.624  -8.119  0.00  0.00    +0.060 A 
ATOM     24  C   LIG    1       -2.896  -3.639  -9.496  0.00  0.00    -0.030 A 
ATOM     25  C   LIG    1       -1.896  -2.829 -10.038  0.00  0.00    +0.060 A 
ATOM     26  C   LIG    1       -1.145  -2.019  -9.211  0.00  0.00    +0.010 A 
BRANCH  24  27
ATOM     27  C   LIG    1       -3.679  -4.482 -10.348  0.00  0.00    +0.250 C 
ATOM     28  N   LIG    1       -4.301  -5.151 -11.024  0.00  0.00    -0.410 NA
ENDBRANCH  24  27
ENDBRANCH   5  21
TORSDOF 3
