REMARK  Name = ZINCrD0000074373.0
REMARK                            x       y       z     vdW  Elec       q    Type
REMARK                         _______ _______ _______ _____ _____    ______ ____
ROOT
ATOM      1  C   LIG    1       -2.379   9.104   0.072  0.00  0.00    +0.590 C 
ATOM      2  N   LIG    1       -1.313   8.280   0.063  0.00  0.00    -0.600 N 
ATOM      3  C   LIG    1       -0.752   7.796  -1.206  0.00  0.00    +0.290 C 
ATOM      4  C   LIG    1       -0.680   6.266  -1.161  0.00  0.00    +0.020 C 
ATOM      5  C   LIG    1        0.104   5.832   0.079  0.00  0.00    +0.040 C 
ATOM      6  C   LIG    1       -0.618   6.319   1.337  0.00  0.00    +0.020 C 
ATOM      7  C   LIG    1       -0.689   7.849   1.321  0.00  0.00    +0.270 C 
ATOM      8  O   LIG    1       -2.832   9.525  -0.976  0.00  0.00    -0.520 OA
ENDROOT
BRANCH   1  15
ATOM      9  C   LIG    1       -4.616  12.021   4.822  0.00  0.00    +0.070 C 
ATOM     10  C   LIG    1       -3.287  11.336   4.498  0.00  0.00    +0.260 C 
ATOM     11  O   LIG    1       -2.298  12.322   4.168  0.00  0.00    -0.370 OA
ATOM     12  C   LIG    1       -1.072  11.795   3.658  0.00  0.00    +0.150 C 
ATOM     13  C   LIG    1       -1.285  11.264   2.232  0.00  0.00    +0.100 C 
ATOM     14  C   LIG    1       -2.523  10.409   2.249  0.00  0.00    -0.160 A 
ATOM     15  C   LIG    1       -2.997   9.494   1.349  0.00  0.00    -0.010 A 
ATOM     16  N   LIG    1       -4.169   9.019   1.880  0.00  0.00    -0.380 N 
ATOM     17  H   LIG    1       -4.740   8.354   1.465  0.00  0.00    +0.450 HD
ATOM     18  N   LIG    1       -4.394   9.586   3.015  0.00  0.00    -0.250 NA
ATOM     19  C   LIG    1       -0.014  12.901   3.635  0.00  0.00    +0.060 C 
ATOM     20  C   LIG    1       -3.454  10.435   3.300  0.00  0.00    +0.010 A 
ENDBRANCH   1  15
BRANCH   5  21
ATOM     21  C   LIG    1        0.206   4.329   0.108  0.00  0.00    -0.050 A 
ATOM     22  C   LIG    1        1.450   3.723   0.091  0.00  0.00    +0.020 A 
ATOM     23  C   LIG    1        1.550   2.347   0.117  0.00  0.00    +0.060 A 
ATOM     24  C   LIG    1        0.393   1.567   0.162  0.00  0.00    -0.030 A 
ATOM     25  C   LIG    1       -0.858   2.185   0.175  0.00  0.00    +0.060 A 
ATOM     26  C   LIG    1       -0.944   3.562   0.153  0.00  0.00    +0.010 A 
BRANCH  24  27
ATOM     27  C   LIG    1        0.490   0.138   0.190  0.00  0.00    +0.250 C 
ATOM     28  N   LIG    1        0.567  -0.995   0.211  0.00  0.00    -0.410 NA
ENDBRANCH  24  27
ENDBRANCH   5  21
TORSDOF 3
