REMARK  Name = ZINCrD000000CaNW.0
REMARK                            x       y       z     vdW  Elec       q    Type
REMARK                         _______ _______ _______ _____ _____    ______ ____
ROOT
ATOM      1  O   LIG    1        3.879   7.365  -3.896  0.00  0.00    -0.520 OA
ATOM      2  C   LIG    1        3.843   6.195  -4.224  0.00  0.00    +0.610 C 
ATOM      3  N   LIG    1        4.159   5.838  -5.485  0.00  0.00    -0.650 N 
ATOM      4  H   LIG    1        4.209   4.900  -5.726  0.00  0.00    +0.420 HD
ENDROOT
BRANCH   3   5
ATOM      5  C   LIG    1        4.415   6.820  -6.445  0.00  0.00    +0.120 A 
ATOM      6  C   LIG    1        3.880   8.096  -6.311  0.00  0.00    +0.070 A 
ATOM      7  C   LIG    1        4.162   9.038  -7.289  0.00  0.00    +0.010 A 
ATOM      8  C   LIG    1        4.960   8.687  -8.362  0.00  0.00    +0.260 A 
ATOM      9  N   LIG    1        5.458   7.471  -8.471  0.00  0.00    -0.440 NA
ATOM     10  C   LIG    1        5.220   6.537  -7.558  0.00  0.00    +0.170 A 
BRANCH  10  11
ATOM     11  C   LIG    1        5.803   5.190  -7.717  0.00  0.00    +0.010 A 
ATOM     12  C   LIG    1        6.001   4.540  -8.896  0.00  0.00    +0.010 A 
ATOM     13  C   LIG    1        6.576   3.294  -8.580  0.00  0.00    -0.070 A 
ATOM     14  C   LIG    1        6.700   3.244  -7.239  0.00  0.00    +0.190 A 
ATOM     15  O   LIG    1        6.238   4.394  -6.721  0.00  0.00    -0.170 OA
ENDBRANCH  10  11
ENDBRANCH   3   5
BRANCH   2  16
ATOM     16  C   LIG    1        3.453   5.165  -3.243  0.00  0.00    -0.110 A 
ATOM     17  C   LIG    1        3.111   5.393  -1.940  0.00  0.00    +0.320 A 
ATOM     18  N   LIG    1        2.826   4.193  -1.396  0.00  0.00    -0.360 N 
ATOM     19  N   LIG    1        3.010   3.236  -2.404  0.00  0.00    -0.050 NA
ATOM     20  N   LIG    1        3.374   3.844  -3.479  0.00  0.00    -0.200 NA
BRANCH  18  21
ATOM     21  C   LIG    1        2.409   3.937  -0.015  0.00  0.00    +0.400 C 
BRANCH  21  22
ATOM     22  C   LIG    1        1.109   3.174  -0.015  0.00  0.00    -0.100 A 
ATOM     23  C   LIG    1        1.119   1.792  -0.024  0.00  0.00    +0.050 A 
ATOM     24  C   LIG    1       -0.072   1.091  -0.025  0.00  0.00    +0.050 A 
ATOM     25  C   LIG    1       -1.275   1.772  -0.022  0.00  0.00    +0.000 A 
ATOM     26  C   LIG    1       -1.286   3.156  -0.007  0.00  0.00    +0.100 A 
ATOM     27  F   LIG    1       -2.461   3.823   0.001  0.00  0.00    -0.140 F 
ATOM     28  C   LIG    1       -0.092   3.857  -0.007  0.00  0.00    +0.010 A 
ENDBRANCH  21  22
ENDBRANCH  18  21
ENDBRANCH   2  16
TORSDOF 5
