REMARK  Name = ZINCrD000000BFii.0
REMARK                            x       y       z     vdW  Elec       q    Type
REMARK                         _______ _______ _______ _____ _____    ______ ____
ROOT
ATOM      1  C   LIG    1       -0.732   1.598   1.260  0.00  0.00    +0.260 C 
ATOM      2  C   LIG    1       -2.165   1.785   0.703  0.00  0.00    +0.070 C 
ATOM      3  C   LIG    1       -1.963   1.986  -0.782  0.00  0.00    +0.520 C 
ATOM      4  N   LIG    1       -0.730   1.589  -1.140  0.00  0.00    -0.560 N 
ATOM      5  O   LIG    1       -2.794   2.440  -1.541  0.00  0.00    -0.500 OA
ATOM      6  C   LIG    1        0.022   1.080   0.014  0.00  0.00    +0.280 C 
ENDROOT
BRANCH   4   7
ATOM      7  C   LIG    1       -0.226   1.651  -2.446  0.00  0.00    +0.170 A 
ATOM      8  C   LIG    1       -1.056   2.030  -3.492  0.00  0.00    +0.020 A 
ATOM      9  C   LIG    1       -0.558   2.096  -4.779  0.00  0.00    +0.050 A 
ATOM     10  C   LIG    1        0.769   1.774  -5.026  0.00  0.00    +0.060 A 
ATOM     11  C   LIG    1        1.597   1.390  -3.982  0.00  0.00    +0.040 A 
ATOM     12  C   LIG    1        1.101   1.329  -2.694  0.00  0.00    -0.010 A 
BRANCH  10  13
ATOM     13  O   LIG    1        1.257   1.835  -6.294  0.00  0.00    -0.260 OA
BRANCH  13  14
ATOM     14  C   LIG    1        1.456   0.666  -6.957  0.00  0.00    +0.120 A 
ATOM     15  C   LIG    1        1.065  -0.535  -6.383  0.00  0.00    -0.060 A 
ATOM     16  C   LIG    1        1.265  -1.721  -7.062  0.00  0.00    +0.050 A 
ATOM     17  C   LIG    1        1.863  -1.714  -8.308  0.00  0.00    -0.020 A 
ATOM     18  C   LIG    1        2.259  -0.519  -8.881  0.00  0.00    +0.050 A 
ATOM     19  C   LIG    1        2.057   0.671  -8.208  0.00  0.00    -0.020 A 
ENDBRANCH  13  14
ENDBRANCH  10  13
ENDBRANCH   4   7
BRANCH   1  22
ATOM     20  O   LIG    1       -0.974   2.178   3.883  0.00  0.00    -0.520 OA
ATOM     21  C   LIG    1       -0.840   0.998   3.619  0.00  0.00    +0.600 C 
ATOM     22  N   LIG    1       -0.711   0.605   2.336  0.00  0.00    -0.730 N 
ATOM     23  H   LIG    1       -0.603  -0.336   2.125  0.00  0.00    +0.400 HD
BRANCH  21  24
ATOM     24  C   LIG    1       -0.819   0.003   4.696  0.00  0.00    -0.070 A 
ATOM     25  C   LIG    1       -0.940   0.260   6.045  0.00  0.00    +0.050 A 
ATOM     26  C   LIG    1       -0.867  -0.970   6.706  0.00  0.00    -0.060 A 
ATOM     27  C   LIG    1       -0.706  -1.935   5.770  0.00  0.00    +0.200 A 
ATOM     28  N   LIG    1       -0.681  -1.358   4.544  0.00  0.00    -0.540 N 
ATOM     29  H   LIG    1       -0.580  -1.826   3.701  0.00  0.00    +0.410 HD
ENDBRANCH  21  24
ENDBRANCH   1  22
TORSDOF 5
