REMARK  Name = ZINCvU0000000FGk.0
REMARK                            x       y       z     vdW  Elec       q    Type
REMARK                         _______ _______ _______ _____ _____    ______ ____
ROOT
ATOM      1  O   LIG    1        6.565   2.152  -0.027  0.00  0.00    -0.320 OA
ENDROOT
BRANCH   1   2
ATOM      2  C   LIG    1        5.977   0.938  -0.018  0.00  0.00    +0.560 C 
ATOM      3  O   LIG    1        6.660  -0.068  -0.025  0.00  0.00    -0.470 OA
BRANCH   2   9
ATOM      4  C   LIG    1        0.001  -0.001   0.056  0.00  0.00    +0.110 A 
ATOM      5  C   LIG    1       -0.017   1.392   0.054  0.00  0.00    -0.010 A 
ATOM      6  C   LIG    1        1.158   2.111   0.038  0.00  0.00    +0.070 A 
ATOM      7  C   LIG    1        2.379   1.448   0.025  0.00  0.00    +0.050 A 
ATOM      8  O   LIG    1        3.658   1.875   0.008  0.00  0.00    -0.170 OA
ATOM      9  C   LIG    1        4.513   0.831  -0.001  0.00  0.00    -0.020 A 
ATOM     10  C   LIG    1        3.814  -0.335   0.009  0.00  0.00    -0.060 A 
ATOM     11  C   LIG    1        4.381  -1.731   0.004  0.00  0.00    +0.160 C 
ATOM     12  C   LIG    1        2.401   0.041   0.026  0.00  0.00    -0.110 A 
ATOM     13  C   LIG    1        1.204  -0.679   0.042  0.00  0.00    +0.050 A 
BRANCH   4  14
ATOM     14  O   LIG    1       -1.168  -0.694   0.072  0.00  0.00    -0.310 OA
BRANCH  14  16
ATOM     15  C   LIG    1       -3.578  -0.876   0.102  0.00  0.00    +0.070 C 
ATOM     16  C   LIG    1       -2.376   0.070   0.085  0.00  0.00    +0.170 C 
ENDBRANCH  14  16
ENDBRANCH   4  14
ENDBRANCH   2   9
ENDBRANCH   1   2
BRANCH   1  17
ATOM     17  C   LIG    1        8.016   2.181  -0.044  0.00  0.00    +0.290 C 
BRANCH  17  18
ATOM     18  C   LIG    1        8.489   3.612  -0.052  0.00  0.00    +0.520 C 
ATOM     19  N   LIG    1        9.809   3.886  -0.068  0.00  0.00    -0.680 N 
ATOM     20  H   LIG    1       10.454   3.164  -0.009  0.00  0.00    +0.420 HD
ATOM     21  O   LIG    1        7.682   4.518  -0.044  0.00  0.00    -0.480 OA
BRANCH  19  22
ATOM     22  C   LIG    1       10.248   5.211  -0.171  0.00  0.00    +0.200 A 
ATOM     23  C   LIG    1        9.525   6.231   0.433  0.00  0.00    +0.050 A 
ATOM     24  C   LIG    1        9.963   7.538   0.335  0.00  0.00    +0.100 A 
ATOM     25  C   LIG    1       11.115   7.831  -0.374  0.00  0.00    -0.050 A 
ATOM     26  C   LIG    1       11.834   6.816  -0.981  0.00  0.00    +0.120 A 
ATOM     27 CL   LIG    1       11.659   9.474  -0.501  0.00  0.00    -0.050 Cl
ATOM     28  C   LIG    1       11.404   5.508  -0.881  0.00  0.00    -0.200 A 
BRANCH  28  29
ATOM     29  C   LIG    1       12.187   4.403  -1.542  0.00  0.00    +0.510 C 
ATOM     30  F   LIG    1       11.375   3.751  -2.476  0.00  0.00    -0.170 F 
ATOM     31  F   LIG    1       12.612   3.488  -0.574  0.00  0.00    -0.180 F 
ATOM     32  F   LIG    1       13.301   4.946  -2.192  0.00  0.00    -0.170 F 
ENDBRANCH  28  29
ENDBRANCH  19  22
ENDBRANCH  17  18
ENDBRANCH   1  17
TORSDOF 8
