REMARK  Name = ZINCrD000000Ch6s.0
REMARK                            x       y       z     vdW  Elec       q    Type
REMARK                         _______ _______ _______ _____ _____    ______ ____
ROOT
ATOM      1  C   LIG    1       -0.602   1.878  -6.109  0.00  0.00    +0.170 C 
ATOM      2  C   LIG    1        0.144   1.473  -7.401  0.00  0.00    +0.100 C 
ATOM      3  C   LIG    1        1.166   2.622  -7.548  0.00  0.00    +0.290 C 
ATOM      4  N   LIG    1        0.570   3.767  -6.851  0.00  0.00    -0.540 N 
ATOM      5  C   LIG    1       -0.422   3.378  -6.031  0.00  0.00    +0.500 C 
ATOM      6  O   LIG    1       -1.077   4.121  -5.332  0.00  0.00    -0.450 OA
ENDROOT
BRANCH   1  11
ATOM      7  C   LIG    1        0.016   1.083  -2.494  0.00  0.00    -0.020 C 
ATOM      8  C   LIG    1       -0.080  -0.444  -2.574  0.00  0.00    +0.040 C 
ATOM      9  C   LIG    1        0.553  -0.917  -3.886  0.00  0.00    +0.060 C 
ATOM     10  C   LIG    1       -0.146  -0.229  -5.060  0.00  0.00    +0.250 C 
ATOM     11  N   LIG    1        0.003   1.226  -4.940  0.00  0.00    -0.370 N 
ATOM     12  H   LIG    1        0.984   1.460  -4.897  0.00  0.00    +0.420 HD
ATOM     13  C   LIG    1       -0.664   1.696  -3.720  0.00  0.00    +0.260 C 
BRANCH   7  14
ATOM     14  C   LIG    1       -0.683   1.572  -1.224  0.00  0.00    +0.050 C 
BRANCH  14  15
ATOM     15  C   LIG    1        0.072   1.059   0.004  0.00  0.00    -0.060 C 
BRANCH  15  17
ATOM     16  O   LIG    1       -1.618   2.231   1.172  0.00  0.00    -0.700 OA
ATOM     17  C   LIG    1       -0.616   1.541   1.255  0.00  0.00    +0.490 C 
ATOM     18  O   LIG    1       -0.171   1.241   2.350  0.00  0.00    -0.700 OA
ENDBRANCH  15  17
ENDBRANCH  14  15
ENDBRANCH   7  14
ENDBRANCH   1  11
BRANCH   4  19
ATOM     19  C   LIG    1        0.982   5.094  -7.017  0.00  0.00    +0.180 A 
ATOM     20  C   LIG    1        0.274   6.124  -6.410  0.00  0.00    +0.020 A 
ATOM     21  C   LIG    1        0.686   7.432  -6.572  0.00  0.00    +0.110 A 
ATOM     22  C   LIG    1        1.794   7.718  -7.348  0.00  0.00    -0.190 A 
ATOM     23  C   LIG    1        2.497   6.696  -7.958  0.00  0.00    +0.110 A 
ATOM     24  C   LIG    1        2.094   5.386  -7.795  0.00  0.00    -0.010 A 
BRANCH  22  25
ATOM     25  C   LIG    1        2.238   9.148  -7.527  0.00  0.00    +0.510 C 
ATOM     26  F   LIG    1        3.624   9.186  -7.710  0.00  0.00    -0.180 F 
ATOM     27  F   LIG    1        1.897   9.888  -6.389  0.00  0.00    -0.170 F 
ATOM     28  F   LIG    1        1.603   9.696  -8.647  0.00  0.00    -0.170 F 
ENDBRANCH  22  25
ENDBRANCH   4  19
TORSDOF 6
