REMARK  Name = ZINCrD000000Ch6s.1
REMARK                            x       y       z     vdW  Elec       q    Type
REMARK                         _______ _______ _______ _____ _____    ______ ____
ROOT
ATOM      1  C   LIG    1       -2.208   1.798   0.668  0.00  0.00    +0.170 C 
ATOM      2  C   LIG    1       -0.786   1.602   1.248  0.00  0.00    +0.100 C 
ATOM      3  C   LIG    1       -0.025   1.041   0.026  0.00  0.00    +0.310 C 
ATOM      4  N   LIG    1       -0.752   1.533  -1.150  0.00  0.00    -0.540 N 
ATOM      5  C   LIG    1       -1.984   1.959  -0.820  0.00  0.00    +0.510 C 
ATOM      6  O   LIG    1       -2.796   2.408  -1.601  0.00  0.00    -0.470 OA
ENDROOT
BRANCH   1  11
ATOM      7  C   LIG    1       -3.473   4.175   3.282  0.00  0.00    +0.010 C 
ATOM      8  C   LIG    1       -4.880   4.405   2.723  0.00  0.00    +0.050 C 
ATOM      9  C   LIG    1       -4.809   4.452   1.194  0.00  0.00    +0.050 C 
ATOM     10  C   LIG    1       -4.186   3.153   0.679  0.00  0.00    +0.260 C 
ATOM     11  N   LIG    1       -2.832   3.005   1.227  0.00  0.00    -0.370 N 
ATOM     12  H   LIG    1       -2.280   3.813   0.980  0.00  0.00    +0.430 HD
ATOM     13  C   LIG    1       -2.898   2.887   2.688  0.00  0.00    +0.260 C 
BRANCH   7  14
ATOM     14  C   LIG    1       -2.574   5.356   2.908  0.00  0.00    +0.020 C 
BRANCH  14  15
ATOM     15  C   LIG    1       -3.078   6.621   3.604  0.00  0.00    -0.060 C 
BRANCH  15  17
ATOM     16  O   LIG    1       -1.246   7.616   2.486  0.00  0.00    -0.700 OA
ATOM     17  C   LIG    1       -2.193   7.784   3.236  0.00  0.00    +0.490 C 
ATOM     18  O   LIG    1       -2.424   8.893   3.687  0.00  0.00    -0.690 OA
ENDBRANCH  15  17
ENDBRANCH  14  15
ENDBRANCH   7  14
ENDBRANCH   1  11
BRANCH   4  19
ATOM     19  C   LIG    1       -0.231   1.556  -2.448  0.00  0.00    +0.180 A 
ATOM     20  C   LIG    1       -1.039   1.923  -3.516  0.00  0.00    +0.020 A 
ATOM     21  C   LIG    1       -0.519   1.950  -4.796  0.00  0.00    +0.110 A 
ATOM     22  C   LIG    1        0.800   1.600  -5.015  0.00  0.00    -0.200 A 
ATOM     23  C   LIG    1        1.606   1.228  -3.955  0.00  0.00    +0.110 A 
ATOM     24  C   LIG    1        1.094   1.205  -2.672  0.00  0.00    -0.010 A 
BRANCH  22  25
ATOM     25  C   LIG    1        1.362   1.624  -6.413  0.00  0.00    +0.510 C 
ATOM     26  F   LIG    1        2.729   1.917  -6.362  0.00  0.00    -0.170 F 
ATOM     27  F   LIG    1        0.703   2.604  -7.164  0.00  0.00    -0.170 F 
ATOM     28  F   LIG    1        1.175   0.374  -7.013  0.00  0.00    -0.170 F 
ENDBRANCH  22  25
ENDBRANCH   4  19
TORSDOF 6
