REMARK  Name = ZINCrH000004qjB3.0
REMARK                            x       y       z     vdW  Elec       q    Type
REMARK                         _______ _______ _______ _____ _____    ______ ____
ROOT
ATOM      1  C   LIG    1        4.960  -2.672   0.154  0.00  0.00    -0.290 A 
ATOM      2  C   LIG    1        5.161  -4.044   0.262  0.00  0.00    +0.380 A 
ATOM      3  N   LIG    1        6.495  -4.247   0.319  0.00  0.00    -0.310 N 
ATOM      4  N   LIG    1        7.135  -3.004   0.257  0.00  0.00    -0.260 NA
ATOM      5  C   LIG    1        6.236  -2.064   0.160  0.00  0.00    +0.310 A 
ENDROOT
BRANCH   3   6
ATOM      6  C   LIG    1        7.130  -5.492   0.428  0.00  0.00    +0.110 A 
ATOM      7  C   LIG    1        6.546  -6.508   1.173  0.00  0.00    +0.060 A 
ATOM      8  C   LIG    1        7.171  -7.735   1.275  0.00  0.00    +0.020 A 
ATOM      9  C   LIG    1        8.385  -7.949   0.644  0.00  0.00    +0.110 A 
ATOM     10  C   LIG    1        8.972  -6.936  -0.095  0.00  0.00    +0.010 A 
ATOM     11  F   LIG    1        8.998  -9.148   0.750  0.00  0.00    -0.130 F 
ATOM     12  C   LIG    1        8.347  -5.709  -0.204  0.00  0.00    +0.080 A 
ENDBRANCH   3   6
BRANCH   2  13
ATOM     13  N   LIG    1        4.175  -5.022   0.300  0.00  0.00    -0.400 N 
ATOM     14  C   LIG    1        4.186  -6.194  -0.405  0.00  0.00    +0.130 A 
ATOM     15  C   LIG    1        3.064  -6.878  -0.102  0.00  0.00    -0.010 A 
ATOM     16  C   LIG    1        2.328  -6.100   0.816  0.00  0.00    -0.040 A 
ATOM     17  C   LIG    1        3.029  -4.972   1.045  0.00  0.00    +0.220 A 
ENDBRANCH   2  13
BRANCH   1  20
ATOM     18  N   LIG    1        3.621  -0.640  -0.035  0.00  0.00    -0.670 N 
ATOM     19  H   LIG    1        4.444  -0.132  -0.109  0.00  0.00    +0.410 HD
ATOM     20  C   LIG    1        3.664  -1.984   0.059  0.00  0.00    +0.600 C 
ATOM     21  O   LIG    1        2.632  -2.627   0.066  0.00  0.00    -0.510 OA
BRANCH  18  25
ATOM     22  C   LIG    1        0.862   3.238   1.215  0.00  0.00    +0.130 C 
ATOM     23  C   LIG    1        1.023   1.888   0.564  0.00  0.00    +0.150 A 
ATOM     24  C   LIG    1        2.255   1.268   0.578  0.00  0.00    -0.060 A 
ATOM     25  C   LIG    1        2.392   0.020  -0.027  0.00  0.00    +0.190 A 
ATOM     26  C   LIG    1        1.269  -0.552  -0.623  0.00  0.00    -0.030 A 
ATOM     27  C   LIG    1        0.072   0.133  -0.593  0.00  0.00    +0.280 A 
ATOM     28  N   LIG    1       -0.017   1.313  -0.011  0.00  0.00    -0.500 NA
ENDBRANCH  18  25
ENDBRANCH   1  20
TORSDOF 4
