REMARK  Name = ZINCtV00000L6keF.0
REMARK                            x       y       z     vdW  Elec       q    Type
REMARK                         _______ _______ _______ _____ _____    ______ ____
ROOT
ATOM      1  N   LIG    1        2.647   1.031   0.018  0.00  0.00    -0.550 N 
ATOM      2  C   LIG    1        1.483   1.779   0.181  0.00  0.00    +0.200 A 
ATOM      3  C   LIG    1        0.387   1.494  -0.626  0.00  0.00    -0.030 A 
ATOM      4  C   LIG    1       -0.786   2.213  -0.488  0.00  0.00    +0.050 A 
ATOM      5  C   LIG    1       -0.877   3.220   0.453  0.00  0.00    +0.000 A 
ATOM      6  C   LIG    1        0.208   3.512   1.259  0.00  0.00    +0.080 A 
ATOM      7  C   LIG    1        1.390   2.796   1.126  0.00  0.00    -0.150 A 
ATOM      8  S   LIG    1        2.758   3.189   2.162  0.00  0.00    +0.030 S 
ATOM      9  C   LIG    1        4.124   2.453   1.330  0.00  0.00    -0.150 A 
ATOM     10  C   LIG    1        5.412   2.860   1.647  0.00  0.00    +0.090 A 
ATOM     11  C   LIG    1        6.499   2.299   1.001  0.00  0.00    +0.010 A 
ATOM     12  C   LIG    1        6.302   1.325   0.040  0.00  0.00    +0.010 A 
ATOM     13  C   LIG    1        5.021   0.918  -0.285  0.00  0.00    +0.000 A 
ATOM     14 CL   LIG    1        7.667   0.616  -0.767  0.00  0.00    -0.060 Cl
ATOM     15  C   LIG    1        3.922   1.475   0.360  0.00  0.00    +0.210 A 
ENDROOT
BRANCH   1  16
ATOM     16  C   LIG    1        2.522  -0.312  -0.553  0.00  0.00    +0.350 C 
BRANCH  16  18
ATOM     17  O   LIG    1        2.810   0.840  -2.593  0.00  0.00    -0.410 OA
ATOM     18  C   LIG    1        2.639  -0.233  -2.054  0.00  0.00    +0.290 C 
BRANCH  18  19
ATOM     19  S   LIG    1        2.531  -1.658  -2.997  0.00  0.00    -0.000 S 
BRANCH  19  20
ATOM     20  C   LIG    1        2.881  -0.996  -4.592  0.00  0.00    -0.120 A 
ATOM     21  C   LIG    1        1.865  -0.806  -5.503  0.00  0.00    +0.110 A 
ATOM     22  C   LIG    1        2.128  -0.280  -6.765  0.00  0.00    +0.010 A 
ATOM     23  C   LIG    1        3.395   0.052  -7.136  0.00  0.00    +0.080 A 
ATOM     24  C   LIG    1        4.459  -0.132  -6.237  0.00  0.00    -0.110 A 
ATOM     25  C   LIG    1        5.780   0.201  -6.590  0.00  0.00    +0.090 A 
ATOM     26  C   LIG    1        6.766  -0.005  -5.667  0.00  0.00    -0.040 A 
ATOM     27  C   LIG    1        6.448  -0.530  -4.417  0.00  0.00    +0.310 A 
ATOM     28  N   LIG    1        5.215  -0.839  -4.092  0.00  0.00    -0.470 NA
ATOM     29  C   LIG    1        4.206  -0.662  -4.948  0.00  0.00    +0.170 A 
ENDBRANCH  19  20
ENDBRANCH  18  19
ENDBRANCH  16  18
ENDBRANCH   1  16
TORSDOF 4
