REMARK  Name = ZINCvU0000000JeS.0
REMARK                            x       y       z     vdW  Elec       q    Type
REMARK                         _______ _______ _______ _____ _____    ______ ____
ROOT
ATOM      1  C   LIG    1       -0.620   0.902  -2.344  0.00  0.00    +0.550 C 
ATOM      2  N   LIG    1       -0.721   1.571  -1.179  0.00  0.00    -0.720 N 
ATOM      3  H   LIG    1       -1.263   2.374  -1.126  0.00  0.00    +0.400 HD
ATOM      4  O   LIG    1        0.059  -0.105  -2.411  0.00  0.00    -0.540 OA
ENDROOT
BRANCH   1   6
ATOM      5  C   LIG    1       -1.227   0.716  -4.697  0.00  0.00    +0.130 C 
ATOM      6  C   LIG    1       -1.328   1.387  -3.529  0.00  0.00    -0.090 C 
BRANCH   5   9
ATOM      7  C   LIG    1       -2.504   0.973  -8.215  0.00  0.00    +0.110 A 
ATOM      8  C   LIG    1       -1.830   0.513  -7.101  0.00  0.00    -0.010 A 
ATOM      9  C   LIG    1       -1.938   1.203  -5.888  0.00  0.00    -0.070 A 
ATOM     10  C   LIG    1       -2.720   2.361  -5.813  0.00  0.00    +0.050 A 
ATOM     11  C   LIG    1       -3.385   2.816  -6.931  0.00  0.00    -0.030 A 
ATOM     12  C   LIG    1       -3.281   2.128  -8.133  0.00  0.00    +0.110 A 
BRANCH   7  14
ATOM     13  C   LIG    1       -1.592  -0.873  -9.405  0.00  0.00    +0.240 C 
ATOM     14  O   LIG    1       -2.406   0.302  -9.393  0.00  0.00    -0.300 OA
ENDBRANCH   7  14
BRANCH  12  15
ATOM     15  O   LIG    1       -3.939   2.581  -9.231  0.00  0.00    -0.300 OA
BRANCH  15  16
ATOM     16  C   LIG    1       -4.717   3.770  -9.077  0.00  0.00    +0.380 C 
BRANCH  16  17
ATOM     17  C   LIG    1       -5.353   4.109 -10.361  0.00  0.00    +0.210 C 
ATOM     18  N   LIG    1       -5.844   4.371 -11.351  0.00  0.00    -0.390 NA
ENDBRANCH  16  17
ENDBRANCH  15  16
ENDBRANCH  12  15
ENDBRANCH   5   9
ENDBRANCH   1   6
BRANCH   2  19
ATOM     19  C   LIG    1       -0.013   1.086   0.008  0.00  0.00    +0.280 C 
ATOM     20  C   LIG    1        1.423   1.615  -0.003  0.00  0.00    +0.040 C 
BRANCH  19  21
ATOM     21  C   LIG    1       -0.718   1.572   1.248  0.00  0.00    -0.090 A 
ATOM     22  C   LIG    1       -1.222   2.859   1.294  0.00  0.00    +0.010 A 
ATOM     23  C   LIG    1       -1.874   3.308   2.425  0.00  0.00    +0.020 A 
ATOM     24  C   LIG    1       -2.013   2.465   3.526  0.00  0.00    -0.040 A 
ATOM     25  C   LIG    1       -1.498   1.171   3.476  0.00  0.00    +0.020 A 
ATOM     26  C   LIG    1       -0.854   0.731   2.338  0.00  0.00    +0.030 A 
BRANCH  24  27
ATOM     27  C   LIG    1       -2.707   2.944   4.747  0.00  0.00    -0.050 A 
ATOM     28  C   LIG    1       -2.851   2.099   5.846  0.00  0.00    +0.020 A 
ATOM     29  C   LIG    1       -3.493   2.551   6.981  0.00  0.00    +0.010 A 
ATOM     30  C   LIG    1       -4.002   3.837   7.025  0.00  0.00    +0.000 A 
ATOM     31  C   LIG    1       -3.866   4.678   5.935  0.00  0.00    +0.010 A 
ATOM     32  C   LIG    1       -3.221   4.238   4.797  0.00  0.00    +0.020 A 
ENDBRANCH  24  27
ENDBRANCH  19  21
ENDBRANCH   2  19
TORSDOF 9
