REMARK  Name = ZINCrD00000l51hd.0
REMARK                            x       y       z     vdW  Elec       q    Type
REMARK                         _______ _______ _______ _____ _____    ______ ____
ROOT
ATOM      1  C   LIG    1       -3.498   1.799  -0.682  0.00  0.00    +0.430 C 
ATOM      2  O   LIG    1       -3.385   2.989  -0.896  0.00  0.00    -0.420 OA
ENDROOT
BRANCH   1   7
ATOM      3  C   LIG    1       -6.677   0.632  -1.952  0.00  0.00    -0.220 A 
ATOM      4  C   LIG    1       -6.127  -0.523  -1.426  0.00  0.00    +0.140 A 
ATOM      5  N   LIG    1       -4.923  -0.230  -0.912  0.00  0.00    -0.520 N 
ATOM      6  H   LIG    1       -4.327  -0.863  -0.481  0.00  0.00    +0.430 HD
ATOM      7  C   LIG    1       -4.667   1.114  -1.091  0.00  0.00    -0.100 A 
ATOM      8  C   LIG    1       -6.772  -1.885  -1.431  0.00  0.00    +0.150 C 
ATOM      9  C   LIG    1       -5.750   1.673  -1.734  0.00  0.00    +0.000 A 
ATOM     10  C   LIG    1       -5.912   3.119  -2.129  0.00  0.00    +0.140 C 
BRANCH   3  11
ATOM     11  C   LIG    1       -7.989   0.754  -2.612  0.00  0.00    +0.550 C 
ATOM     12  O   LIG    1       -8.977   1.014  -1.955  0.00  0.00    -0.490 OA
BRANCH  11  14
ATOM     13  C   LIG    1       -9.415   0.712  -4.526  0.00  0.00    +0.260 C 
ATOM     14  O   LIG    1       -8.092   0.577  -3.944  0.00  0.00    -0.350 OA
ENDBRANCH  11  14
ENDBRANCH   3  11
ENDBRANCH   1   7
BRANCH   1  15
ATOM     15  C   LIG    1       -2.393   1.052   0.019  0.00  0.00    +0.150 C 
ATOM     16  C   LIG    1       -2.810   0.761   1.462  0.00  0.00    +0.070 C 
BRANCH  15  17
ATOM     17  O   LIG    1       -1.186   1.859   0.018  0.00  0.00    -0.320 OA
BRANCH  17  18
ATOM     18  C   LIG    1       -0.014   1.204   0.009  0.00  0.00    +0.470 C 
ATOM     19  O   LIG    1        0.002  -0.004   0.002  0.00  0.00    -0.480 OA
BRANCH  18  20
ATOM     20  C   LIG    1        1.280   1.975   0.000  0.00  0.00    +0.290 C 
BRANCH  20  21
ATOM     21  O   LIG    1        2.379   1.062  -0.015  0.00  0.00    -0.290 OA
BRANCH  21  22
ATOM     22  C   LIG    1        3.628   1.598  -0.024  0.00  0.00    +0.130 A 
ATOM     23  C   LIG    1        3.792   2.975  -0.024  0.00  0.00    -0.050 A 
ATOM     24  C   LIG    1        5.062   3.519  -0.026  0.00  0.00    +0.070 A 
ATOM     25  C   LIG    1        6.169   2.692  -0.042  0.00  0.00    +0.020 A 
ATOM     26  C   LIG    1        6.009   1.317  -0.048  0.00  0.00    -0.050 A 
ATOM     27 BR   LIG    1        7.526   0.188  -0.069  0.00  0.00    -0.040 Br
ATOM     28  C   LIG    1        4.740   0.769  -0.039  0.00  0.00    +0.020 A 
ENDBRANCH  21  22
ENDBRANCH  20  21
ENDBRANCH  18  20
ENDBRANCH  17  18
ENDBRANCH  15  17
ENDBRANCH   1  15
TORSDOF 9
