REMARK  Name = ZINCqH0000005aFs.0
REMARK                            x       y       z     vdW  Elec       q    Type
REMARK                         _______ _______ _______ _____ _____    ______ ____
ROOT
ATOM      1  C   LIG    1        1.145   3.365   0.135  0.00  0.00    +0.540 C 
ATOM      2  N   LIG    1       -0.081   3.933  -0.436  0.00  0.00    -0.750 N 
ATOM      3  H   LIG    1       -0.045   4.728  -0.991  0.00  0.00    +0.410 HD
ATOM      4  C   LIG    1       -1.295   3.311  -0.168  0.00  0.00    +0.240 A 
ATOM      5  C   LIG    1       -2.485   4.018  -0.138  0.00  0.00    -0.050 A 
ATOM      6  C   LIG    1       -3.670   3.352   0.101  0.00  0.00    +0.080 A 
ATOM      7  C   LIG    1       -3.677   1.985   0.327  0.00  0.00    -0.040 A 
ATOM      8  C   LIG    1       -2.499   1.267   0.312  0.00  0.00    +0.110 A 
ATOM      9  C   LIG    1       -1.296   1.926   0.068  0.00  0.00    -0.200 A 
ATOM     10  C   LIG    1       -0.010   1.206   0.058  0.00  0.00    +0.580 C 
ATOM     11  O   LIG    1        0.014  -0.009   0.096  0.00  0.00    -0.530 OA
ATOM     12  N   LIG    1        1.140   1.908   0.001  0.00  0.00    -0.590 N 
ENDROOT
BRANCH   1  16
ATOM     13  C   LIG    1        1.393   4.406   4.273  0.00  0.00    +0.220 A 
ATOM     14  C   LIG    1        0.736   5.245   3.382  0.00  0.00    -0.080 A 
ATOM     15  C   LIG    1        0.657   4.905   2.046  0.00  0.00    +0.080 A 
ATOM     16  C   LIG    1        1.233   3.732   1.594  0.00  0.00    -0.190 A 
ATOM     17  C   LIG    1        1.883   2.892   2.479  0.00  0.00    +0.080 A 
ATOM     18  C   LIG    1        1.970   3.228   3.816  0.00  0.00    -0.080 A 
BRANCH  13  20
ATOM     19  C   LIG    1        0.866   5.989   6.105  0.00  0.00    +0.280 C 
ATOM     20  N   LIG    1        1.475   4.746   5.625  0.00  0.00    -0.630 N 
BRANCH  20  21
ATOM     21  C   LIG    1        2.168   3.860   6.563  0.00  0.00    +0.310 C 
BRANCH  21  22
ATOM     22  C   LIG    1        3.645   4.253   6.638  0.00  0.00    +0.170 C 
BRANCH  22  23
ATOM     23  C   LIG    1        4.342   3.363   7.581  0.00  0.00    +0.200 C 
ATOM     24  N   LIG    1        4.880   2.676   8.308  0.00  0.00    -0.430 NA
ENDBRANCH  22  23
ENDBRANCH  21  22
ENDBRANCH  20  21
ENDBRANCH  13  20
ENDBRANCH   1  16
BRANCH  12  25
ATOM     25  C   LIG    1        2.407   1.199  -0.197  0.00  0.00    +0.220 C 
ATOM     26  C   LIG    1        3.696   2.018  -0.112  0.00  0.00    +0.020 C 
ATOM     27  C   LIG    1        3.199   1.510  -1.468  0.00  0.00    +0.020 C 
ENDBRANCH  12  25
TORSDOF 6
