REMARK  Name = ZINCpe00000bEME0.0
REMARK                            x       y       z     vdW  Elec       q    Type
REMARK                         _______ _______ _______ _____ _____    ______ ____
ROOT
ATOM      1  C   LIG    1       -4.553   4.916   1.639  0.00  0.00    +0.270 C 
ENDROOT
BRANCH   1   2
ATOM      2  N   LIG    1       -4.312   3.804   2.563  0.00  0.00    -0.720 N 
ATOM      3  H   LIG    1       -3.943   2.970   2.233  0.00  0.00    +0.400 HD
ATOM      4  C   LIG    1       -4.603   3.942   3.872  0.00  0.00    +0.600 C 
ATOM      5  O   LIG    1       -5.065   4.988   4.286  0.00  0.00    -0.540 OA
BRANCH   4   6
ATOM      6  C   LIG    1       -4.361   2.828   4.798  0.00  0.00    -0.280 A 
ATOM      7  C   LIG    1       -4.612   2.820   6.180  0.00  0.00    +0.100 A 
ATOM      8  C   LIG    1       -5.126   3.766   7.078  0.00  0.00    +0.370 A 
ATOM      9  N   LIG    1       -5.246   3.457   8.350  0.00  0.00    -0.440 NA
ATOM     10  C   LIG    1       -4.886   2.257   8.803  0.00  0.00    +0.220 A 
ATOM     11  C   LIG    1       -4.384   1.314   7.972  0.00  0.00    +0.260 A 
ATOM     12  N   LIG    1       -4.242   1.587   6.644  0.00  0.00    -0.250 N 
ATOM     13  N   LIG    1       -3.768   0.844   5.560  0.00  0.00    -0.300 NA
ATOM     14  C   LIG    1       -3.841   1.566   4.470  0.00  0.00    +0.310 A 
ENDBRANCH   4   6
ENDBRANCH   1   2
BRANCH   1  15
ATOM     15  C   LIG    1       -4.140   4.502   0.225  0.00  0.00    +0.230 C 
ATOM     16  C   LIG    1       -4.274   5.700  -0.717  0.00  0.00    +0.040 C 
BRANCH  15  18
ATOM     17  C   LIG    1       -2.451   2.785  -0.147  0.00  0.00    +0.500 C 
ATOM     18  N   LIG    1       -2.749   4.043   0.237  0.00  0.00    -0.600 N 
ATOM     19  C   LIG    1       -1.682   4.950   0.665  0.00  0.00    +0.290 C 
ATOM     20  O   LIG    1       -3.341   2.005  -0.410  0.00  0.00    -0.530 OA
BRANCH  17  21
ATOM     21  C   LIG    1       -1.012   2.350  -0.248  0.00  0.00    +0.070 C 
ATOM     22  C   LIG    1       -0.289   2.895  -1.491  0.00  0.00    +0.070 C 
ATOM     23  C   LIG    1        0.383   1.517  -1.609  0.00  0.00    +0.040 C 
ATOM     24  C   LIG    1       -0.830   0.947  -0.854  0.00  0.00    +0.040 C 
BRANCH  21  26
ATOM     25  C   LIG    1       -0.878   1.914   2.105  0.00  0.00    +0.210 C 
ATOM     26  O   LIG    1       -0.286   2.545   0.968  0.00  0.00    -0.340 OA
ENDBRANCH  21  26
ENDBRANCH  17  21
ENDBRANCH  15  18
ENDBRANCH   1  15
TORSDOF 6
