REMARK  Name = ZINCpk000000oSBc.0
REMARK                            x       y       z     vdW  Elec       q    Type
REMARK                         _______ _______ _______ _____ _____    ______ ____
ROOT
ATOM      1  C   LIG    1        6.353   5.331  -0.558  0.00  0.00    -0.150 C 
ATOM      2  C   LIG    1        4.997   5.069  -1.330  0.00  0.00    +0.100 C 
ATOM      3  C   LIG    1        4.705   4.280  -0.020  0.00  0.00    +0.050 C 
ATOM      4  O   LIG    1        4.776   5.203   1.117  0.00  0.00    -0.300 OA
ATOM      5  C   LIG    1        5.932   5.982   0.787  0.00  0.00    +0.070 C 
ATOM      6  C   LIG    1        7.020   6.126   1.836  0.00  0.00    +0.240 C 
ATOM      7  O   LIG    1        6.412   7.412   2.098  0.00  0.00    -0.370 OA
ATOM      8  C   LIG    1        5.799   7.494   0.791  0.00  0.00    +0.240 C 
ATOM      9  C   LIG    1        6.171   3.822  -0.224  0.00  0.00    +0.080 C 
ENDROOT
BRANCH   1  10
ATOM     10  C   LIG    1        7.581   5.843  -1.264  0.00  0.00    +0.510 C 
ATOM     11  O   LIG    1        8.223   6.747  -0.783  0.00  0.00    -0.490 OA
BRANCH  10  12
ATOM     12  O   LIG    1        7.963   5.295  -2.429  0.00  0.00    -0.350 OA
BRANCH  12  14
ATOM     13  C   LIG    1        9.432   5.094  -4.361  0.00  0.00    +0.070 C 
ATOM     14  C   LIG    1        9.156   5.839  -3.053  0.00  0.00    +0.200 C 
ENDBRANCH  12  14
ENDBRANCH  10  12
ENDBRANCH   1  10
BRANCH   3  15
ATOM     15  C   LIG    1        3.580   3.244  -0.015  0.00  0.00    +0.340 C 
BRANCH  15  16
ATOM     16  N   LIG    1        2.285   3.928   0.001  0.00  0.00    -0.720 N 
ATOM     17  H   LIG    1        2.249   4.897   0.006  0.00  0.00    +0.410 HD
BRANCH  16  18
ATOM     18  C   LIG    1        1.108   3.189   0.008  0.00  0.00    +0.410 A 
ATOM     19  C   LIG    1        1.167   1.799   0.001  0.00  0.00    -0.110 A 
ATOM     20  C   LIG    1       -0.013   1.076   0.008  0.00  0.00    +0.110 A 
ATOM     21  C   LIG    1       -1.215   1.769   0.017  0.00  0.00    -0.080 A 
ATOM     22  C   LIG    1       -1.200   3.150   0.030  0.00  0.00    +0.170 A 
ATOM     23  N   LIG    1       -0.060   3.814   0.023  0.00  0.00    -0.540 NA
BRANCH  22  24
ATOM     24  C   LIG    1       -2.502   3.908   0.046  0.00  0.00    +0.290 C 
BRANCH  24  25
ATOM     25  C   LIG    1       -2.515   4.837   1.188  0.00  0.00    +0.210 C 
ATOM     26  N   LIG    1       -2.524   5.554   2.070  0.00  0.00    -0.430 NA
ENDBRANCH  24  25
ENDBRANCH  22  24
ENDBRANCH  16  18
ENDBRANCH  15  16
ENDBRANCH   3  15
TORSDOF 8
