REMARK  Name = ZINCrD00000hQ7e2.0
REMARK                            x       y       z     vdW  Elec       q    Type
REMARK                         _______ _______ _______ _____ _____    ______ ____
ROOT
ATOM      1  C   LIG    1       -6.171   5.469   2.362  0.00  0.00    +0.320 C 
ENDROOT
BRANCH   1   5
ATOM      2  C   LIG    1       -2.499   4.118   0.648  0.00  0.00    -0.080 A 
ATOM      3  C   LIG    1       -3.682   3.471   0.345  0.00  0.00    +0.000 A 
ATOM      4  C   LIG    1       -4.870   3.905   0.903  0.00  0.00    +0.040 A 
ATOM      5  C   LIG    1       -4.875   4.992   1.757  0.00  0.00    -0.110 A 
ATOM      6  C   LIG    1       -3.692   5.642   2.057  0.00  0.00    +0.040 A 
ATOM      7  C   LIG    1       -2.504   5.205   1.502  0.00  0.00    +0.020 A 
BRANCH   2   9
ATOM      8  C   LIG    1       -1.085   4.166  -1.389  0.00  0.00    +0.040 C 
ATOM      9  C   LIG    1       -1.203   3.641   0.044  0.00  0.00    +0.280 C 
BRANCH   9  10
ATOM     10  N   LIG    1       -1.180   2.176   0.030  0.00  0.00    -0.720 N 
ATOM     11  H   LIG    1       -2.013   1.678   0.025  0.00  0.00    +0.400 HD
ATOM     12  C   LIG    1       -0.003   1.521   0.024  0.00  0.00    +0.510 C 
ATOM     13  O   LIG    1        1.038   2.144   0.025  0.00  0.00    -0.510 OA
BRANCH  12  14
ATOM     14  C   LIG    1        0.021   0.014   0.010  0.00  0.00    +0.170 C 
ATOM     15 CL   LIG    1        1.730  -0.560  -0.003  0.00  0.00    -0.130 Cl
ENDBRANCH  12  14
ENDBRANCH   9  10
ENDBRANCH   2   9
ENDBRANCH   1   5
BRANCH   1  16
ATOM     16  N   LIG    1       -6.782   6.468   1.482  0.00  0.00    -0.710 N 
ATOM     17  H   LIG    1       -6.343   6.720   0.655  0.00  0.00    +0.410 HD
ATOM     18  C   LIG    1       -7.955   7.038   1.822  0.00  0.00    +0.600 C 
ATOM     19  O   LIG    1       -8.552   6.657   2.811  0.00  0.00    -0.540 OA
BRANCH  18  20
ATOM     20  C   LIG    1       -8.514   8.120   0.997  0.00  0.00    -0.050 A 
ATOM     21  C   LIG    1       -8.015   8.591  -0.205  0.00  0.00    -0.030 A 
ATOM     22  C   LIG    1       -8.886   9.611  -0.594  0.00  0.00    +0.180 A 
ATOM     23  N   LIG    1       -9.812   9.719   0.324  0.00  0.00    -0.270 NA
ATOM     24  N   LIG    1       -9.626   8.866   1.266  0.00  0.00    -0.240 N 
BRANCH  24  25
ATOM     25  C   LIG    1      -10.477   8.716   2.449  0.00  0.00    +0.270 C 
ATOM     26  C   LIG    1      -11.898   8.289   2.028  0.00  0.00    +0.030 C 
ATOM     27  C   LIG    1      -12.828   9.046   3.009  0.00  0.00    +0.030 C 
ATOM     28  C   LIG    1      -12.122  10.416   3.163  0.00  0.00    +0.020 C 
ATOM     29  C   LIG    1      -10.619  10.068   3.171  0.00  0.00    +0.030 C 
ENDBRANCH  24  25
ENDBRANCH  18  20
ENDBRANCH   1  16
TORSDOF 7
