REMARK  Name = ZINCnE000005urq0.0
REMARK                            x       y       z     vdW  Elec       q    Type
REMARK                         _______ _______ _______ _____ _____    ______ ____
ROOT
ATOM      1  O   LIG    1       -3.667   3.189   1.284  0.00  0.00    -1.030 OA
ATOM      2  S   LIG    1       -3.728   2.522   0.031  0.00  0.00    +2.610 S 
ATOM      3  O   LIG    1       -3.677   3.203  -1.215  0.00  0.00    -1.030 OA
ENDROOT
BRANCH   2   4
ATOM      4  C   LIG    1       -5.227   1.597   0.032  0.00  0.00    -0.610 A 
ATOM      5  C   LIG    1       -5.811   1.227   1.229  0.00  0.00    +0.120 A 
ATOM      6  C   LIG    1       -6.987   0.502   1.228  0.00  0.00    -0.010 A 
ATOM      7  C   LIG    1       -7.583   0.143   0.031  0.00  0.00    -0.070 A 
ATOM      8  C   LIG    1       -8.851  -0.637  -0.238  0.00  0.00    +0.070 C 
ATOM      9  C   LIG    1       -9.211  -0.330  -1.708  0.00  0.00    +0.030 C 
ATOM     10  C   LIG    1       -7.835   0.006  -2.322  0.00  0.00    +0.070 C 
ATOM     11  C   LIG    1       -6.999   0.513  -1.167  0.00  0.00    -0.130 A 
ATOM     12  C   LIG    1       -5.824   1.245  -1.163  0.00  0.00    +0.120 A 
ENDBRANCH   2   4
BRANCH   2  13
ATOM     13  N   LIG    1       -2.480   1.433   0.020  0.00  0.00    -1.060 NA
BRANCH  13  14
ATOM     14  C   LIG    1       -1.155   1.886   0.017  0.00  0.00    +0.380 A 
ATOM     15  N   LIG    1       -0.774   3.142   0.025  0.00  0.00    -0.410 NA
ATOM     16  N   LIG    1        0.626   3.181   0.012  0.00  0.00    -0.490 N 
ATOM     17  H   LIG    1        1.175   3.980   0.011  0.00  0.00    +0.420 HD
ATOM     18  C   LIG    1        1.080   1.896   0.002  0.00  0.00    +0.120 A 
ATOM     19  C   LIG    1       -0.013   1.076   0.008  0.00  0.00    -0.110 A 
BRANCH  18  20
ATOM     20  C   LIG    1        2.496   1.467  -0.013  0.00  0.00    -0.030 A 
ATOM     21  C   LIG    1        2.867   0.172  -0.022  0.00  0.00    -0.020 A 
ATOM     22  S   LIG    1        4.622   0.063  -0.039  0.00  0.00    +0.090 S 
ATOM     23  C   LIG    1        4.767   1.815  -0.032  0.00  0.00    -0.050 A 
ATOM     24  C   LIG    1        3.559   2.371  -0.024  0.00  0.00    +0.010 A 
ENDBRANCH  18  20
ENDBRANCH  13  14
ENDBRANCH   2  13
TORSDOF 4
