REMARK  Name = ZINCrD000000CC6D.0
REMARK                            x       y       z     vdW  Elec       q    Type
REMARK                         _______ _______ _______ _____ _____    ______ ____
ROOT
ATOM      1  C   LIG    1       -1.265   1.438  -0.230  0.00  0.00    -0.150 A 
ATOM      2  C   LIG    1       -0.988   2.788   0.005  0.00  0.00    +0.140 A 
ATOM      3  C   LIG    1        0.311   3.197   0.203  0.00  0.00    -0.020 A 
ATOM      4  C   LIG    1        1.347   2.268   0.176  0.00  0.00    +0.190 A 
ATOM      5  C   LIG    1        1.074   0.922  -0.051  0.00  0.00    -0.040 A 
ATOM      6  C   LIG    1       -0.223   0.506  -0.251  0.00  0.00    +0.180 A 
ENDROOT
BRANCH   4   7
ATOM      7  N   LIG    1        2.659   2.686   0.378  0.00  0.00    -0.500 N 
ATOM      8  C   LIG    1        2.833   3.240   1.728  0.00  0.00    +0.160 C 
ATOM      9  C   LIG    1        4.300   3.630   1.928  0.00  0.00    +0.230 C 
ATOM     10  O   LIG    1        4.685   4.557   0.908  0.00  0.00    -0.380 OA
ATOM     11  C   LIG    1        4.528   4.049  -0.420  0.00  0.00    +0.240 C 
ATOM     12  C   LIG    1        3.063   3.663  -0.643  0.00  0.00    +0.160 C 
ENDBRANCH   4   7
BRANCH   1  14
ATOM     13  O   LIG    1       -2.883   0.032  -1.154  0.00  0.00    -0.490 OA
ATOM     14  C   LIG    1       -2.655   0.996  -0.450  0.00  0.00    +0.580 C 
ATOM     15  N   LIG    1       -3.673   1.662   0.130  0.00  0.00    -0.610 N 
BRANCH  15  16
ATOM     16  C   LIG    1       -3.667   3.127   0.162  0.00  0.00    +0.250 C 
ATOM     17  C   LIG    1       -2.971   3.661  -1.091  0.00  0.00    -0.010 C 
ATOM     18  C   LIG    1       -2.964   5.191  -1.057  0.00  0.00    +0.040 C 
ATOM     19  C   LIG    1       -2.214   5.671   0.187  0.00  0.00    -0.000 C 
ATOM     20  C   LIG    1       -2.910   5.136   1.440  0.00  0.00    +0.020 C 
ATOM     21  C   LIG    1       -2.917   3.606   1.406  0.00  0.00    +0.000 C 
ENDBRANCH  15  16
BRANCH  15  22
ATOM     22  C   LIG    1       -4.787   0.921   0.729  0.00  0.00    +0.220 C 
ATOM     23  C   LIG    1       -4.582  -0.572   0.990  0.00  0.00    +0.010 C 
ATOM     24  C   LIG    1       -5.499  -0.112  -0.146  0.00  0.00    +0.020 C 
ENDBRANCH  15  22
ENDBRANCH   1  14
BRANCH   5  25
ATOM     25  N   LIG    1        2.179  -0.062  -0.079  0.00  0.00    +0.030 N 
ATOM     26  O   LIG    1        3.326   0.305   0.098  0.00  0.00    -0.100 OA
ATOM     27  O   LIG    1        1.940  -1.240  -0.278  0.00  0.00    -0.190 OA
ENDBRANCH   5  25
TORSDOF 5
