REMARK  Name = ZINCrD00000F5LCE.0
REMARK                            x       y       z     vdW  Elec       q    Type
REMARK                         _______ _______ _______ _____ _____    ______ ____
ROOT
ATOM      1  C   LIG    1       -1.262   0.950   3.391  0.00  0.00    +0.290 C 
ATOM      2  N   LIG    1       -0.608  -0.358   3.306  0.00  0.00    -0.600 N 
ATOM      3  C   LIG    1       -1.133  -1.417   3.954  0.00  0.00    +0.590 C 
ATOM      4  O   LIG    1       -0.632  -2.519   3.825  0.00  0.00    -0.480 OA
ENDROOT
BRANCH   3   5
ATOM      5  C   LIG    1       -2.308  -1.241   4.817  0.00  0.00    -0.050 A 
ATOM      6  C   LIG    1       -2.891  -2.205   5.633  0.00  0.00    +0.120 A 
ATOM      7  O   LIG    1       -3.936  -1.607   6.240  0.00  0.00    -0.180 OA
ATOM      8  C   LIG    1       -4.000  -0.337   5.813  0.00  0.00    +0.450 A 
ATOM      9  N   LIG    1       -3.041  -0.106   4.968  0.00  0.00    -0.460 NA
BRANCH   6  10
ATOM     10  C   LIG    1       -2.454  -3.594   5.802  0.00  0.00    +0.020 A 
ATOM     11  C   LIG    1       -3.036  -4.526   6.613  0.00  0.00    +0.010 A 
ATOM     12  C   LIG    1       -2.297  -5.712   6.461  0.00  0.00    -0.070 A 
ATOM     13  C   LIG    1       -1.305  -5.452   5.584  0.00  0.00    +0.210 A 
ATOM     14  O   LIG    1       -1.402  -4.174   5.188  0.00  0.00    -0.110 OA
ENDBRANCH   6  10
ENDBRANCH   3   5
BRANCH   2  15
ATOM     15  C   LIG    1        0.615  -0.516   2.516  0.00  0.00    +0.430 C 
BRANCH  15  16
ATOM     16  C   LIG    1        0.255  -0.885   1.100  0.00  0.00    +0.150 A 
ATOM     17  N   LIG    1        0.103  -2.094   0.626  0.00  0.00    -0.260 NA
ATOM     18  N   LIG    1       -0.215  -2.034  -0.620  0.00  0.00    -0.290 NA
ATOM     19  C   LIG    1       -0.291  -0.786  -0.993  0.00  0.00    +0.180 A 
ATOM     20  C   LIG    1       -0.680  -0.260  -2.338  0.00  0.00    +0.140 C 
ATOM     21  C   LIG    1        0.541  -0.002  -3.237  0.00  0.00    +0.030 C 
ATOM     22  C   LIG    1        0.984   1.467  -3.014  0.00  0.00    +0.010 C 
ATOM     23  C   LIG    1        2.328   1.448  -2.288  0.00  0.00    +0.000 C 
ATOM     24  C   LIG    1        2.304   0.874  -0.900  0.00  0.00    +0.000 C 
ATOM     25  C   LIG    1        1.615   1.795   0.109  0.00  0.00    +0.030 C 
ATOM     26  C   LIG    1        0.117   1.432   0.105  0.00  0.00    +0.290 C 
ATOM     27  N   LIG    1        0.027  -0.029   0.081  0.00  0.00    -0.460 N 
ENDBRANCH  15  16
ENDBRANCH   2  15
TORSDOF 4
