REMARK  Name = ZINCqH0000001OBq.0
REMARK                            x       y       z     vdW  Elec       q    Type
REMARK                         _______ _______ _______ _____ _____    ______ ____
ROOT
ATOM      1  C   LIG    1       -0.013   1.086   0.008  0.00  0.00    +0.470 C 
ENDROOT
BRANCH   1  10
ATOM      2  C   LIG    1       -0.452   2.719   1.879  0.00  0.00    +0.300 A 
ATOM      3  N   LIG    1       -1.246   2.825   2.904  0.00  0.00    -0.480 NA
ATOM      4  C   LIG    1       -2.051   1.733   2.972  0.00  0.00    +0.050 A 
ATOM      5  C   LIG    1       -3.061   1.334   3.850  0.00  0.00    +0.060 A 
ATOM      6  C   LIG    1       -3.707   0.146   3.651  0.00  0.00    +0.010 A 
ATOM      7  C   LIG    1       -3.371  -0.671   2.582  0.00  0.00    +0.030 A 
ATOM      8  C   LIG    1       -2.378  -0.297   1.701  0.00  0.00    +0.020 A 
ATOM      9  C   LIG    1       -1.711   0.905   1.888  0.00  0.00    +0.050 A 
ATOM     10  N   LIG    1       -0.698   1.558   1.213  0.00  0.00    -0.490 N 
BRANCH   2  12
ATOM     11  C   LIG    1       -0.093   5.077   1.202  0.00  0.00    +0.050 C 
ATOM     12  C   LIG    1        0.588   3.736   1.484  0.00  0.00    +0.070 C 
ATOM     13  C   LIG    1        1.595   3.905   2.623  0.00  0.00    +0.060 C 
ENDBRANCH   2  12
ENDBRANCH   1  10
BRANCH   1  14
ATOM     14  C   LIG    1       -0.742   1.585  -1.213  0.00  0.00    +0.150 A 
ATOM     15  N   LIG    1       -0.518   2.705  -1.836  0.00  0.00    -0.350 NA
ATOM     16  O   LIG    1       -1.268   2.822  -2.782  0.00  0.00    +0.090 OA
ATOM     17  C   LIG    1       -2.073   1.750  -2.857  0.00  0.00    +0.260 A 
ATOM     18  N   LIG    1       -1.734   0.952  -1.856  0.00  0.00    -0.440 NA
BRANCH  17  19
ATOM     19  C   LIG    1       -3.122   1.505  -3.860  0.00  0.00    +0.120 A 
ATOM     20  C   LIG    1       -3.946   0.401  -3.932  0.00  0.00    -0.010 A 
ATOM     21  C   LIG    1       -4.790   0.574  -5.027  0.00  0.00    +0.240 A 
ATOM     22  N   LIG    1       -4.507   1.717  -5.600  0.00  0.00    -0.250 NA
ATOM     23  N   LIG    1       -3.468   2.332  -4.891  0.00  0.00    -0.320 N 
BRANCH  23  24
ATOM     24  C   LIG    1       -2.858   3.627  -5.201  0.00  0.00    +0.210 C 
ATOM     25  C   LIG    1       -3.530   4.485  -6.276  0.00  0.00    +0.080 C 
ATOM     26  C   LIG    1       -2.200   3.788  -6.573  0.00  0.00    +0.050 C 
ENDBRANCH  23  24
ENDBRANCH  17  19
ENDBRANCH   1  14
TORSDOF 5
