REMARK  Name = ZINCvU0000000D2U.0
REMARK                            x       y       z     vdW  Elec       q    Type
REMARK                         _______ _______ _______ _____ _____    ______ ____
ROOT
ATOM      1  C   LIG    1        7.221  -1.909  -3.877  0.00  0.00    +0.150 A 
ATOM      2  N   LIG    1        7.244  -3.129  -3.389  0.00  0.00    -0.290 NA
ATOM      3  N   LIG    1        8.121  -3.835  -4.008  0.00  0.00    -0.250 NA
ATOM      4  C   LIG    1        8.720  -3.107  -4.921  0.00  0.00    +0.220 A 
ATOM      5  N   LIG    1        8.161  -1.851  -4.866  0.00  0.00    -0.450 N 
ENDROOT
BRANCH   4   6
ATOM      6  C   LIG    1        9.790  -3.552  -5.838  0.00  0.00    -0.060 A 
ATOM      7  C   LIG    1        9.707  -3.272  -7.202  0.00  0.00    +0.060 A 
ATOM      8  C   LIG    1       10.713  -3.685  -8.051  0.00  0.00    +0.010 A 
ATOM      9  C   LIG    1       11.798  -4.386  -7.556  0.00  0.00    +0.070 A 
ATOM     10  C   LIG    1       11.886  -4.674  -6.206  0.00  0.00    +0.000 A 
ATOM     11  C   LIG    1       10.889  -4.261  -5.342  0.00  0.00    +0.140 A 
ATOM     12  F   LIG    1       10.975  -4.542  -4.024  0.00  0.00    -0.120 F 
ENDBRANCH   4   6
BRANCH   5  13
ATOM     13  C   LIG    1        8.504  -0.692  -5.694  0.00  0.00    +0.240 C 
ATOM     14  C   LIG    1        8.975   0.455  -4.796  0.00  0.00    +0.010 C 
ATOM     15  C   LIG    1        9.333   1.665  -5.661  0.00  0.00    +0.040 C 
ATOM     16  C   LIG    1        8.101   2.109  -6.452  0.00  0.00    +0.010 C 
ATOM     17  C   LIG    1        7.630   0.963  -7.349  0.00  0.00    +0.040 C 
ATOM     18  C   LIG    1        7.272  -0.247  -6.484  0.00  0.00    +0.010 C 
ENDBRANCH   5  13
BRANCH   1  19
ATOM     19  S   LIG    1        6.177  -0.592  -3.347  0.00  0.00    +0.070 S 
BRANCH  19  20
ATOM     20  C   LIG    1        5.245  -1.433  -2.044  0.00  0.00    +0.100 C 
BRANCH  20  21
ATOM     21  C   LIG    1        4.261  -0.472  -1.429  0.00  0.00    +0.390 C 
ATOM     22  O   LIG    1        4.197   0.665  -1.831  0.00  0.00    -0.400 OA
BRANCH  21  23
ATOM     23  C   LIG    1        3.357  -0.929  -0.314  0.00  0.00    +0.170 C 
BRANCH  23  24
ATOM     24  C   LIG    1        2.065  -0.155  -0.365  0.00  0.00    -0.100 A 
ATOM     25  C   LIG    1        0.866  -0.822  -0.536  0.00  0.00    +0.030 A 
ATOM     26  C   LIG    1       -0.319  -0.112  -0.583  0.00  0.00    +0.010 A 
ATOM     27  C   LIG    1       -0.306   1.265  -0.458  0.00  0.00    +0.030 A 
ATOM     28  C   LIG    1        0.893   1.931  -0.285  0.00  0.00    +0.010 A 
ATOM     29  C   LIG    1        2.078   1.222  -0.240  0.00  0.00    +0.050 A 
ENDBRANCH  23  24
BRANCH  23  31
ATOM     30  N   LIG    1        4.528  -0.515   1.979  0.00  0.00    -0.390 NA
ATOM     31  C   LIG    1        4.018  -0.695   0.981  0.00  0.00    +0.210 C 
ENDBRANCH  23  31
ENDBRANCH  21  23
ENDBRANCH  20  21
ENDBRANCH  19  20
ENDBRANCH   1  19
TORSDOF 8
