REMARK  Name = ZINCpk000000np3F.0
REMARK                            x       y       z     vdW  Elec       q    Type
REMARK                         _______ _______ _______ _____ _____    ______ ____
ROOT
ATOM      1  N   LIG    1       -3.369  -2.542   7.640  0.00  0.00    -0.530 NA
ATOM      2  C   LIG    1       -4.068  -1.517   8.425  0.00  0.00    +0.170 C 
ATOM      3  C   LIG    1       -5.198  -0.914   7.582  0.00  0.00    +0.300 C 
ATOM      4  N   LIG    1       -4.631  -0.444   6.309  0.00  0.00    -0.610 N 
ATOM      5  C   LIG    1       -3.807  -1.378   5.527  0.00  0.00    +0.280 C 
ATOM      6  C   LIG    1       -4.865   0.808   5.869  0.00  0.00    +0.560 C 
ATOM      7  O   LIG    1       -5.479   1.593   6.565  0.00  0.00    -0.530 OA
ATOM      8  C   LIG    1       -2.727  -1.960   6.454  0.00  0.00    +0.170 C 
ENDROOT
BRANCH   6   9
ATOM      9  C   LIG    1       -4.376   1.227   4.538  0.00  0.00    -0.120 A 
ATOM     10  C   LIG    1       -3.948   2.539   4.329  0.00  0.00    +0.080 A 
ATOM     11  C   LIG    1       -3.492   2.923   3.085  0.00  0.00    +0.030 A 
ATOM     12  C   LIG    1       -3.458   2.011   2.045  0.00  0.00    -0.090 A 
ATOM     13  C   LIG    1       -3.886   0.710   2.244  0.00  0.00    +0.030 A 
ATOM     14  C   LIG    1       -4.340   0.312   3.485  0.00  0.00    +0.050 A 
BRANCH  12  15
ATOM     15  C   LIG    1       -2.959   2.437   0.689  0.00  0.00    +0.350 C 
BRANCH  15  16
ATOM     16  N   LIG    1       -1.513   2.214   0.609  0.00  0.00    -0.460 N 
ATOM     17  C   LIG    1       -0.890   1.073   0.179  0.00  0.00    +0.120 A 
ATOM     18  C   LIG    1        0.435   1.298   0.261  0.00  0.00    +0.140 A 
ATOM     19  N   LIG    1        0.616   2.540   0.734  0.00  0.00    -0.490 NA
ATOM     20  C   LIG    1       -0.546   3.094   0.947  0.00  0.00    +0.380 A 
ENDBRANCH  15  16
ENDBRANCH  12  15
ENDBRANCH   6   9
BRANCH   1  21
ATOM     21  C   LIG    1       -2.392  -3.264   8.466  0.00  0.00    +0.150 C 
BRANCH  21  23
ATOM     22  C   LIG    1       -1.092  -5.385   8.698  0.00  0.00    +0.020 C 
ATOM     23  C   LIG    1       -2.025  -4.584   7.786  0.00  0.00    +0.130 C 
ATOM     24  C   LIG    1       -3.296  -5.392   7.521  0.00  0.00    +0.070 C 
BRANCH  23  25
ATOM     25  O   LIG    1       -1.364  -4.314   6.548  0.00  0.00    -0.550 OA
ATOM     26  H   LIG    1       -0.548  -3.804   6.641  0.00  0.00    +0.370 HD
ENDBRANCH  23  25
ENDBRANCH  21  23
ENDBRANCH   1  21
TORSDOF 6
