REMARK  Name = ZINCtV00000L6kmN.0
REMARK                            x       y       z     vdW  Elec       q    Type
REMARK                         _______ _______ _______ _____ _____    ______ ____
ROOT
ATOM      1  C   LIG    1        1.243  10.275   0.158  0.00  0.00    +0.210 C 
ENDROOT
BRANCH   1   3
ATOM      2  O   LIG    1       -1.107  10.057   0.125  0.00  0.00    -0.420 OA
ATOM      3  C   LIG    1       -0.039   9.483   0.166  0.00  0.00    +0.400 C 
BRANCH   3   4
ATOM      4  C   LIG    1        0.004   8.015   0.223  0.00  0.00    -0.170 A 
ATOM      5  C   LIG    1       -1.187   7.279   0.231  0.00  0.00    +0.090 A 
ATOM      6  C   LIG    1       -1.145   5.909   0.285  0.00  0.00    +0.020 A 
ATOM      7  C   LIG    1        0.084   5.250   0.333  0.00  0.00    -0.000 A 
ATOM      8  C   LIG    1        1.272   5.982   0.331  0.00  0.00    +0.010 A 
ATOM      9  C   LIG    1        1.235   7.351   0.271  0.00  0.00    +0.060 A 
BRANCH   7  10
ATOM     10  C   LIG    1        0.128   3.769   0.393  0.00  0.00    -0.060 A 
ATOM     11  C   LIG    1        1.353   3.106   0.441  0.00  0.00    +0.030 A 
ATOM     12  C   LIG    1        1.387   1.728   0.496  0.00  0.00    +0.010 A 
ATOM     13  C   LIG    1        0.208   1.004   0.504  0.00  0.00    +0.020 A 
ATOM     14  C   LIG    1       -1.011   1.656   0.451  0.00  0.00    +0.010 A 
ATOM     15  C   LIG    1       -1.057   3.034   0.401  0.00  0.00    +0.030 A 
ENDBRANCH   7  10
ENDBRANCH   3   4
ENDBRANCH   1   3
BRANCH   1  16
ATOM     16  O   LIG    1        0.941  11.670   0.098  0.00  0.00    -0.290 OA
BRANCH  16  17
ATOM     17  C   LIG    1        1.995  12.530   0.083  0.00  0.00    +0.130 A 
ATOM     18  C   LIG    1        3.291  12.039   0.131  0.00  0.00    -0.050 A 
ATOM     19  C   LIG    1        4.361  12.911   0.110  0.00  0.00    +0.030 A 
ATOM     20  C   LIG    1        4.140  14.280   0.053  0.00  0.00    +0.050 A 
ATOM     21  C   LIG    1        2.843  14.771   0.011  0.00  0.00    +0.060 A 
ATOM     22  C   LIG    1        1.773  13.898   0.026  0.00  0.00    +0.010 A 
BRANCH  20  23
ATOM     23  O   LIG    1        5.193  15.139   0.038  0.00  0.00    -0.250 OA
BRANCH  23  24
ATOM     24  C   LIG    1        5.997  15.143  -1.057  0.00  0.00    +0.120 A 
ATOM     25  C   LIG    1        5.666  14.377  -2.166  0.00  0.00    -0.070 A 
ATOM     26  C   LIG    1        6.483  14.388  -3.280  0.00  0.00    +0.050 A 
ATOM     27  C   LIG    1        7.635  15.152  -3.286  0.00  0.00    -0.020 A 
ATOM     28  C   LIG    1        7.971  15.911  -2.181  0.00  0.00    +0.050 A 
ATOM     29  C   LIG    1        7.155  15.909  -1.066  0.00  0.00    -0.020 A 
ENDBRANCH  23  24
ENDBRANCH  20  23
ENDBRANCH  16  17
ENDBRANCH   1  16
TORSDOF 7
