REMARK  Name = ZINCqH0000001mWs.0
REMARK                            x       y       z     vdW  Elec       q    Type
REMARK                         _______ _______ _______ _____ _____    ______ ____
ROOT
ATOM      1  N   LIG    1        0.896  -7.072  -3.144  0.00  0.00    -1.120 NA
ATOM      2  H   LIG    1        0.484  -7.586  -3.856  0.00  0.00    +0.420 HD
ENDROOT
BRANCH   1   3
ATOM      3  S   LIG    1       -0.024  -6.524  -1.880  0.00  0.00    +2.700 S 
ATOM      4  O   LIG    1       -1.357  -6.936  -2.147  0.00  0.00    -0.960 OA
ATOM      5  O   LIG    1        0.675  -6.875  -0.694  0.00  0.00    -0.960 OA
BRANCH   3   9
ATOM      6  C   LIG    1       -0.016  -2.002  -2.080  0.00  0.00    -0.020 A 
ATOM      7  C   LIG    1        0.960  -2.664  -1.358  0.00  0.00    -0.010 A 
ATOM      8  C   LIG    1        0.954  -4.045  -1.293  0.00  0.00    +0.120 A 
ATOM      9  C   LIG    1       -0.021  -4.764  -1.958  0.00  0.00    -0.680 A 
ATOM     10  C   LIG    1       -0.993  -4.103  -2.684  0.00  0.00    +0.130 A 
ATOM     11  C   LIG    1       -0.991  -2.722  -2.745  0.00  0.00    -0.010 A 
BRANCH   6  12
ATOM     12  C   LIG    1       -0.013  -0.497  -2.147  0.00  0.00    +0.070 C 
BRANCH  12  14
ATOM     13  C   LIG    1       -0.951   1.587  -1.138  0.00  0.00    +0.030 C 
ATOM     14  C   LIG    1       -0.851   0.067  -0.998  0.00  0.00    -0.020 C 
ATOM     15  C   LIG    1       -0.186  -0.280   0.336  0.00  0.00    +0.030 C 
ENDBRANCH  12  14
ENDBRANCH   6  12
ENDBRANCH   3   9
ENDBRANCH   1   3
BRANCH   1  16
ATOM     16  C   LIG    1        2.331  -6.781  -3.186  0.00  0.00    +0.270 C 
BRANCH  16  17
ATOM     17  C   LIG    1        3.008  -7.699  -4.205  0.00  0.00    +0.050 C 
BRANCH  17  18
ATOM     18  C   LIG    1        4.459  -7.315  -4.341  0.00  0.00    -0.080 A 
ATOM     19  C   LIG    1        5.292  -7.361  -3.239  0.00  0.00    +0.000 A 
ATOM     20  C   LIG    1        6.624  -7.012  -3.364  0.00  0.00    +0.000 A 
ATOM     21  C   LIG    1        7.121  -6.611  -4.590  0.00  0.00    +0.000 A 
ATOM     22  C   LIG    1        6.287  -6.560  -5.691  0.00  0.00    +0.000 A 
ATOM     23  C   LIG    1        4.956  -6.912  -5.566  0.00  0.00    +0.010 A 
ENDBRANCH  17  18
BRANCH  17  24
ATOM     24  C   LIG    1        2.907  -9.150  -3.731  0.00  0.00    +0.050 C 
BRANCH  24  25
ATOM     25  C   LIG    1        3.470 -10.079  -4.809  0.00  0.00    +0.160 C 
ATOM     26  C   LIG    1        3.435 -11.524  -4.306  0.00  0.00    +0.000 C 
BRANCH  25  27
ATOM     27  O   LIG    1        2.679  -9.968  -5.994  0.00  0.00    -0.570 OA
ATOM     28  H   LIG    1        2.979 -10.531  -6.721  0.00  0.00    +0.380 HD
ENDBRANCH  25  27
ENDBRANCH  24  25
ENDBRANCH  17  24
ENDBRANCH  16  17
ENDBRANCH   1  16
TORSDOF 10
