REMARK  Name = ZINCqH0000051vGJ.0
REMARK                            x       y       z     vdW  Elec       q    Type
REMARK                         _______ _______ _______ _____ _____    ______ ____
ROOT
ATOM      1  C   LIG    1        1.401   2.919   1.009  0.00  0.00    +0.000 C 
ATOM      2  C   LIG    1        2.725   3.297   1.676  0.00  0.00    +0.040 C 
ATOM      3  C   LIG    1        3.084   2.249   2.732  0.00  0.00    +0.030 C 
ATOM      4  C   LIG    1        1.993   2.218   3.807  0.00  0.00    +0.270 C 
ATOM      5  N   LIG    1        0.694   1.999   3.156  0.00  0.00    -0.600 N 
ATOM      6  C   LIG    1       -0.112   0.995   3.553  0.00  0.00    +0.560 C 
ATOM      7  O   LIG    1       -1.217   0.875   3.067  0.00  0.00    -0.520 OA
ATOM      8  C   LIG    1        0.291   2.896   2.065  0.00  0.00    +0.310 C 
ENDROOT
BRANCH   1  10
ATOM      9  O   LIG    1        0.038   4.575   0.024  0.00  0.00    -0.500 OA
ATOM     10  C   LIG    1        1.065   3.934  -0.053  0.00  0.00    +0.520 C 
ATOM     11  N   LIG    1        1.905   4.129  -1.088  0.00  0.00    -0.620 N 
ATOM     12  H   LIG    1        2.726   3.616  -1.150  0.00  0.00    +0.420 HD
BRANCH  11  13
ATOM     13  C   LIG    1        1.595   5.065  -2.068  0.00  0.00    +0.230 A 
ATOM     14  N   LIG    1        2.332   5.329  -3.102  0.00  0.00    -0.510 NA
ATOM     15  C   LIG    1        1.884   6.250  -3.935  0.00  0.00    +0.240 A 
ATOM     16  C   LIG    1        0.714   6.790  -3.588  0.00  0.00    -0.130 A 
ATOM     17  S   LIG    1        0.184   6.030  -2.089  0.00  0.00    +0.240 S 
ENDBRANCH  11  13
ENDBRANCH   1  10
BRANCH   6  18
ATOM     18  C   LIG    1        0.359   0.020   4.601  0.00  0.00    -0.130 C 
ATOM     19  C   LIG    1       -0.702  -0.619   5.500  0.00  0.00    +0.090 C 
ATOM     20  C   LIG    1        0.242   0.446   6.066  0.00  0.00    +0.070 C 
BRANCH  18  21
ATOM     21  C   LIG    1        1.545  -0.827   4.216  0.00  0.00    -0.030 A 
ATOM     22  C   LIG    1        2.684  -0.819   4.999  0.00  0.00    +0.020 A 
ATOM     23  C   LIG    1        3.770  -1.599   4.649  0.00  0.00    +0.040 A 
ATOM     24  C   LIG    1        3.722  -2.378   3.509  0.00  0.00    +0.030 A 
ATOM     25  C   LIG    1        2.585  -2.382   2.721  0.00  0.00    -0.030 A 
ATOM     26 CL   LIG    1        2.524  -3.361   1.288  0.00  0.00    -0.060 Cl
ATOM     27  C   LIG    1        1.496  -1.606   3.075  0.00  0.00    +0.030 A 
ENDBRANCH  18  21
ENDBRANCH   6  18
TORSDOF 4
