REMARK  Name = ZINCpk00000Fbftg.0
REMARK                            x       y       z     vdW  Elec       q    Type
REMARK                         _______ _______ _______ _____ _____    ______ ____
ROOT
ATOM      1  C   LIG    1        5.015  -2.697  -0.058  0.00  0.00    +0.580 C 
ATOM      2  N   LIG    1        6.139  -1.961  -0.167  0.00  0.00    -0.610 N 
ATOM      3  C   LIG    1        6.204  -0.489  -0.179  0.00  0.00    +0.230 C 
ATOM      4  C   LIG    1        7.640  -0.153   0.303  0.00  0.00    +0.180 C 
ATOM      5  C   LIG    1        8.462  -1.288  -0.364  0.00  0.00    +0.080 C 
ATOM      6  C   LIG    1        7.503  -2.494  -0.298  0.00  0.00    +0.290 C 
ATOM      7  O   LIG    1        5.088  -3.906   0.042  0.00  0.00    -0.510 OA
ENDROOT
BRANCH   6   8
ATOM      8  C   LIG    1        7.616  -3.308  -1.562  0.00  0.00    -0.100 A 
ATOM      9  C   LIG    1        6.741  -3.084  -2.608  0.00  0.00    +0.030 A 
ATOM     10  C   LIG    1        6.848  -3.828  -3.771  0.00  0.00    +0.090 A 
ATOM     11  C   LIG    1        7.824  -4.804  -3.881  0.00  0.00    +0.030 A 
ATOM     12  C   LIG    1        8.695  -5.032  -2.832  0.00  0.00    +0.030 A 
ATOM     13  F   LIG    1        5.997  -3.606  -4.796  0.00  0.00    -0.130 F 
ATOM     14  C   LIG    1        8.592  -4.284  -1.672  0.00  0.00    +0.100 A 
ATOM     15  F   LIG    1        9.443  -4.507  -0.647  0.00  0.00    -0.130 F 
ENDBRANCH   6   8
BRANCH   1  19
ATOM     16  C   LIG    1        1.289  -0.742  -0.109  0.00  0.00    +0.100 A 
ATOM     17  C   LIG    1        1.373  -1.985   0.513  0.00  0.00    +0.050 A 
ATOM     18  C   LIG    1        2.589  -2.648   0.536  0.00  0.00    +0.140 A 
ATOM     19  C   LIG    1        3.693  -2.033  -0.062  0.00  0.00    -0.160 A 
ATOM     20  C   LIG    1        3.530  -0.781  -0.662  0.00  0.00    +0.290 A 
ATOM     21  N   LIG    1        2.358  -0.187  -0.667  0.00  0.00    -0.460 NA
BRANCH  16  25
ATOM     22  N   LIG    1       -0.099   1.179  -0.739  0.00  0.00    -0.830 N 
ATOM     23  H   LIG    1       -0.950   1.645  -0.765  0.00  0.00    +0.410 HD
ATOM     24  H   LIG    1        0.686   1.579  -1.145  0.00  0.00    +0.410 HD
ATOM     25  C   LIG    1       -0.010  -0.027  -0.144  0.00  0.00    +0.580 C 
ATOM     26  O   LIG    1       -0.993  -0.527   0.365  0.00  0.00    -0.530 OA
ENDBRANCH  16  25
ENDBRANCH   1  19
BRANCH   4  27
ATOM     27  O   LIG    1        7.736  -0.220   1.727  0.00  0.00    -0.550 OA
ATOM     28  H   LIG    1        7.238   0.469   2.188  0.00  0.00    +0.380 HD
ENDBRANCH   4  27
TORSDOF 4
