REMARK  Name = ZINCvU00000006jk.0
REMARK                            x       y       z     vdW  Elec       q    Type
REMARK                         _______ _______ _______ _____ _____    ______ ____
ROOT
ATOM      1  N   LIG    1       -1.793  -3.908  -1.074  0.00  0.00    -0.590 N 
ATOM      2  C   LIG    1       -2.066  -4.211  -2.359  0.00  0.00    +0.570 C 
ATOM      3  O   LIG    1       -2.755  -3.464  -3.026  0.00  0.00    -0.520 OA
ENDROOT
BRANCH   2   4
ATOM      4  C   LIG    1       -1.528  -5.451  -2.956  0.00  0.00    -0.110 A 
ATOM      5  C   LIG    1       -1.343  -6.586  -2.165  0.00  0.00    +0.030 A 
ATOM      6  C   LIG    1       -0.845  -7.745  -2.727  0.00  0.00    +0.040 A 
ATOM      7  C   LIG    1       -0.518  -7.783  -4.069  0.00  0.00    +0.010 A 
ATOM      8  C   LIG    1       -0.694  -6.657  -4.864  0.00  0.00    +0.160 A 
ATOM      9  C   LIG    1       -1.198  -5.490  -4.311  0.00  0.00    +0.080 A 
BRANCH   8  10
ATOM     10  N   LIG    1       -0.362  -6.700  -6.223  0.00  0.00    -0.650 N 
ATOM     11  H   LIG    1       -0.490  -7.519  -6.728  0.00  0.00    +0.420 HD
ATOM     12  C   LIG    1        0.136  -5.605  -6.831  0.00  0.00    +0.650 C 
ATOM     13  O   LIG    1        0.387  -4.611  -6.180  0.00  0.00    -0.540 OA
BRANCH  12  14
ATOM     14  O   LIG    1        0.354  -5.613  -8.160  0.00  0.00    -0.360 OA
BRANCH  14  15
ATOM     15  C   LIG    1        0.891  -4.399  -8.747  0.00  0.00    +0.140 C 
ATOM     16  C   LIG    1       -0.076  -3.240  -8.496  0.00  0.00    +0.030 C 
ATOM     17  C   LIG    1        1.070  -4.597 -10.254  0.00  0.00    +0.080 C 
ATOM     18  C   LIG    1        2.245  -4.080  -8.110  0.00  0.00    +0.030 C 
ENDBRANCH  14  15
ENDBRANCH  12  14
ENDBRANCH   8  10
ENDBRANCH   2   4
BRANCH   1  20
ATOM     19  C   LIG    1       -2.083  -5.646   0.622  0.00  0.00    +0.040 C 
ATOM     20  C   LIG    1       -1.078  -4.869  -0.231  0.00  0.00    +0.270 C 
ENDBRANCH   1  20
BRANCH   1  21
ATOM     21  C   LIG    1       -2.210  -2.617  -0.521  0.00  0.00    +0.330 C 
BRANCH  21  22
ATOM     22  C   LIG    1       -1.115  -1.603  -0.730  0.00  0.00    +0.490 C 
ATOM     23  N   LIG    1       -1.278  -0.337  -0.299  0.00  0.00    -0.680 N 
ATOM     24  H   LIG    1       -2.079  -0.090   0.190  0.00  0.00    +0.410 HD
ATOM     25  O   LIG    1       -0.087  -1.927  -1.286  0.00  0.00    -0.490 OA
BRANCH  23  26
ATOM     26  C   LIG    1       -0.292   0.623  -0.556  0.00  0.00    +0.160 A 
ATOM     27  C   LIG    1        0.241   0.749  -1.833  0.00  0.00    -0.030 A 
ATOM     28  C   LIG    1        1.214   1.698  -2.084  0.00  0.00    +0.050 A 
ATOM     29  C   LIG    1        1.658   2.521  -1.065  0.00  0.00    +0.040 A 
ATOM     30  C   LIG    1        1.131   2.399   0.207  0.00  0.00    +0.050 A 
ATOM     31 CL   LIG    1       -0.310  -0.288  -3.111  0.00  0.00    -0.020 Cl
ATOM     32  C   LIG    1        0.157   1.452   0.465  0.00  0.00    -0.050 A 
ATOM     33 CL   LIG    1       -0.505   1.299   2.062  0.00  0.00    -0.050 Cl
ENDBRANCH  23  26
ENDBRANCH  21  22
ENDBRANCH   1  21
TORSDOF 8
