REMARK  Name = ZINCpe00000c2qa6.0
REMARK                            x       y       z     vdW  Elec       q    Type
REMARK                         _______ _______ _______ _____ _____    ______ ____
ROOT
ATOM      1  C   LIG    1       -3.800   7.914   7.639  0.00  0.00    +0.610 C 
ATOM      2  N   LIG    1       -3.746   6.567   7.611  0.00  0.00    -0.620 N 
ATOM      3  C   LIG    1       -4.475   5.657   8.515  0.00  0.00    +0.260 C 
ATOM      4  C   LIG    1       -3.652   4.341   8.510  0.00  0.00    +0.050 C 
ATOM      5  C   LIG    1       -3.159   4.297   7.057  0.00  0.00    -0.090 C 
ATOM      6  C   LIG    1       -4.162   3.591   6.135  0.00  0.00    +0.060 C 
ATOM      7  C   LIG    1       -3.263   3.072   4.988  0.00  0.00    +0.250 C 
ATOM      8  N   LIG    1       -1.884   3.022   5.499  0.00  0.00    -0.620 N 
ATOM      9  C   LIG    1       -0.800   2.638   4.796  0.00  0.00    +0.610 C 
ATOM     10  O   LIG    1        0.296   2.635   5.322  0.00  0.00    -0.550 OA
ATOM     11  C   LIG    1       -1.884   3.456   6.911  0.00  0.00    +0.290 C 
ATOM     12  C   LIG    1       -2.947   5.759   6.671  0.00  0.00    +0.270 C 
ATOM     13  O   LIG    1       -4.559   8.475   8.406  0.00  0.00    -0.530 OA
ENDROOT
BRANCH   1  20
ATOM     14  C   LIG    1       -3.496  11.073   7.667  0.00  0.00    +0.170 C 
ATOM     15  C   LIG    1       -2.795  10.111   6.743  0.00  0.00    +0.140 A 
ATOM     16  N   LIG    1       -1.948  10.430   5.803  0.00  0.00    -0.300 NA
ATOM     17  N   LIG    1       -1.517   9.262   5.165  0.00  0.00    -0.460 N 
ATOM     18  H   LIG    1       -0.885   9.217   4.431  0.00  0.00    +0.450 HD
ATOM     19  C   LIG    1       -2.121   8.213   5.745  0.00  0.00    +0.280 A 
ATOM     20  C   LIG    1       -2.940   8.706   6.741  0.00  0.00    -0.290 A 
ENDBRANCH   1  20
BRANCH   9  21
ATOM     21  C   LIG    1       -0.944   2.221   3.389  0.00  0.00    -0.300 A 
ATOM     22  C   LIG    1        0.070   1.805   2.550  0.00  0.00    +0.320 A 
ATOM     23  N   LIG    1       -0.484   1.519   1.361  0.00  0.00    -0.360 N 
ATOM     24  N   LIG    1       -1.860   1.761   1.443  0.00  0.00    -0.300 NA
ATOM     25  C   LIG    1        0.232   1.041   0.176  0.00  0.00    +0.360 C 
ATOM     26  C   LIG    1       -2.146   2.173   2.647  0.00  0.00    +0.270 A 
ENDBRANCH   9  21
TORSDOF 2
