REMARK  Name = ZINCrH000004swQ9.0
REMARK                            x       y       z     vdW  Elec       q    Type
REMARK                         _______ _______ _______ _____ _____    ______ ____
ROOT
ATOM      1  C   LIG    1       -1.181  -3.050  -0.663  0.00  0.00    +0.110 C 
ATOM      2  C   LIG    1       -1.503  -3.283   0.815  0.00  0.00    +0.040 C 
ATOM      3  C   LIG    1       -3.018  -3.399   0.997  0.00  0.00    +0.040 C 
ATOM      4  C   LIG    1       -3.683  -2.091   0.556  0.00  0.00    +0.280 C 
ATOM      5  N   LIG    1       -3.262  -1.785  -0.818  0.00  0.00    -0.610 N 
ATOM      6  C   LIG    1       -4.176  -1.552  -1.780  0.00  0.00    +0.600 C 
ATOM      7  O   LIG    1       -5.360  -1.705  -1.545  0.00  0.00    -0.510 OA
ATOM      8  C   LIG    1       -1.825  -1.738  -1.122  0.00  0.00    +0.270 C 
ENDROOT
BRANCH   6   9
ATOM      9  C   LIG    1       -3.744  -1.113  -3.109  0.00  0.00    -0.270 A 
ATOM     10  C   LIG    1       -4.374  -1.422  -4.282  0.00  0.00    +0.130 A 
ATOM     11  C   LIG    1       -3.801  -0.902  -5.408  0.00  0.00    -0.170 A 
ATOM     12  C   LIG    1       -2.662  -0.151  -5.151  0.00  0.00    -0.130 A 
ATOM     13  C   LIG    1       -1.928   0.482  -6.265  0.00  0.00    -0.100 A 
ATOM     14  C   LIG    1       -0.648   0.995  -6.130  0.00  0.00    +0.060 A 
ATOM     15  C   LIG    1       -0.023   1.560  -7.227  0.00  0.00    -0.010 A 
ATOM     16  C   LIG    1       -0.675   1.608  -8.447  0.00  0.00    +0.070 A 
ATOM     17  C   LIG    1       -1.954   1.103  -8.588  0.00  0.00    +0.000 A 
ATOM     18  C   LIG    1       -2.600   0.540  -7.501  0.00  0.00    +0.150 A 
ATOM     19  O   LIG    1       -3.860   0.055  -7.612  0.00  0.00    -0.310 OA
ATOM     20  C   LIG    1       -4.274  -1.074  -6.844  0.00  0.00    +0.340 C 
ATOM     21  S   LIG    1       -2.332  -0.117  -3.437  0.00  0.00    +0.220 S 
ENDBRANCH   6   9
BRANCH   1  26
ATOM     22  C   LIG    1        3.579  -1.376  -0.911  0.00  0.00    +0.200 C 
ATOM     23  C   LIG    1        2.353  -2.250  -0.952  0.00  0.00    +0.180 A 
ATOM     24  N   LIG    1        2.317  -3.521  -1.249  0.00  0.00    -0.290 NA
ATOM     25  N   LIG    1        1.106  -3.947  -1.186  0.00  0.00    -0.280 NA
ATOM     26  C   LIG    1        0.313  -2.968  -0.846  0.00  0.00    +0.180 A 
ATOM     27  N   LIG    1        1.081  -1.863  -0.688  0.00  0.00    -0.580 N 
ATOM     28  H   LIG    1        0.782  -0.974  -0.440  0.00  0.00    +0.430 HD
ENDBRANCH   1  26
TORSDOF 2
