REMARK  Name = ZINCrg00000SjSsc.0
REMARK                            x       y       z     vdW  Elec       q    Type
REMARK                         _______ _______ _______ _____ _____    ______ ____
ROOT
ATOM      1  C   LIG    1       -0.735   1.579   1.270  0.00  0.00    +0.190 C 
ATOM      2  C   LIG    1       -0.029   1.083   0.007  0.00  0.00    +0.070 C 
ENDROOT
BRANCH   1   5
ATOM      3  N   LIG    1        0.056  -0.242   2.745  0.00  0.00    -0.670 N 
ATOM      4  H   LIG    1       -0.434  -0.866   2.188  0.00  0.00    +0.410 HD
ATOM      5  C   LIG    1        0.002   1.080   2.486  0.00  0.00    +0.520 C 
ATOM      6  O   LIG    1        0.545   1.867   3.232  0.00  0.00    -0.490 OA
BRANCH   3  11
ATOM      7  C   LIG    1        1.677  -0.443   6.053  0.00  0.00    -0.150 A 
ATOM      8  C   LIG    1        2.341  -1.669   5.939  0.00  0.00    +0.050 A 
ATOM      9  C   LIG    1        2.240  -2.402   4.775  0.00  0.00    +0.030 A 
ATOM     10  C   LIG    1        1.480  -1.933   3.720  0.00  0.00    +0.020 A 
ATOM     11  C   LIG    1        0.820  -0.713   3.819  0.00  0.00    +0.130 A 
ATOM     12  C   LIG    1        0.913   0.033   4.983  0.00  0.00    +0.090 A 
BRANCH   7  14
ATOM     13  C   LIG    1        2.606  -0.174   8.444  0.00  0.00    +0.080 C 
ATOM     14  C   LIG    1        1.782   0.342   7.293  0.00  0.00    +0.390 C 
ATOM     15  O   LIG    1        1.206   1.405   7.388  0.00  0.00    -0.450 OA
ENDBRANCH   7  14
ENDBRANCH   3  11
ENDBRANCH   1   5
BRANCH   1  16
ATOM     16  O   LIG    1       -0.750   3.031   1.276  0.00  0.00    -0.330 OA
BRANCH  16  17
ATOM     17  C   LIG    1       -1.802   3.632   0.698  0.00  0.00    +0.470 C 
ATOM     18  O   LIG    1       -2.681   2.966   0.203  0.00  0.00    -0.500 OA
BRANCH  17  19
ATOM     19  C   LIG    1       -1.888   5.136   0.666  0.00  0.00    +0.130 C 
BRANCH  19  20
ATOM     20  C   LIG    1       -3.175   5.559  -0.044  0.00  0.00    +0.030 C 
BRANCH  20  21
ATOM     21  C   LIG    1       -3.261   7.086  -0.076  0.00  0.00    +0.320 C 
BRANCH  21  22
ATOM     22  N   LIG    1       -4.494   7.491  -0.756  0.00  0.00    -0.580 N 
ATOM     23  C   LIG    1       -4.589   7.716  -2.082  0.00  0.00    +0.520 C 
ATOM     24  C   LIG    1       -6.033   8.105  -2.330  0.00  0.00    +0.320 C 
ATOM     25  N   LIG    1       -6.639   8.057  -0.988  0.00  0.00    -0.730 N 
ATOM     26  H   LIG    1       -7.562   8.252  -0.762  0.00  0.00    +0.440 HD
ATOM     27  O   LIG    1       -3.703   7.624  -2.905  0.00  0.00    -0.470 OA
ATOM     28  C   LIG    1       -5.664   7.689  -0.138  0.00  0.00    +0.700 C 
ATOM     29  O   LIG    1       -5.827   7.553   1.059  0.00  0.00    -0.540 OA
ENDBRANCH  21  22
ENDBRANCH  20  21
ENDBRANCH  19  20
ENDBRANCH  17  19
ENDBRANCH  16  17
ENDBRANCH   1  16
TORSDOF 9
