REMARK  Name = ZINCqH0000004dNW.0
REMARK                            x       y       z     vdW  Elec       q    Type
REMARK                         _______ _______ _______ _____ _____    ______ ____
ROOT
ATOM      1  C   LIG    1        0.502  -0.871  -3.780  0.00  0.00    +0.330 A 
ATOM      2  C   LIG    1        1.063  -0.174  -4.805  0.00  0.00    -0.070 A 
ATOM      3  C   LIG    1        1.532  -1.096  -5.746  0.00  0.00    +0.110 A 
ATOM      4  N   LIG    1        1.261  -2.302  -5.316  0.00  0.00    -0.250 NA
ATOM      5  C   LIG    1        2.227  -0.758  -7.039  0.00  0.00    +0.170 C 
ATOM      6  N   LIG    1        0.612  -2.196  -4.080  0.00  0.00    -0.330 N 
ENDROOT
BRANCH   6   7
ATOM      7  C   LIG    1        0.159  -3.256  -3.296  0.00  0.00    +0.580 A 
ATOM      8  N   LIG    1       -0.435  -2.998  -2.141  0.00  0.00    -0.570 NA
ATOM      9  C   LIG    1       -0.880  -3.979  -1.375  0.00  0.00    +0.220 A 
ATOM     10  C   LIG    1       -0.710  -5.291  -1.790  0.00  0.00    -0.090 A 
ATOM     11  C   LIG    1       -0.079  -5.525  -3.002  0.00  0.00    +0.210 A 
ATOM     12  C   LIG    1        0.128  -6.934  -3.495  0.00  0.00    +0.160 C 
ATOM     13  C   LIG    1       -1.560  -3.676  -0.065  0.00  0.00    +0.150 C 
ATOM     14  N   LIG    1        0.338  -4.496  -3.721  0.00  0.00    -0.510 NA
ENDBRANCH   6   7
BRANCH   1  16
ATOM     15  C   LIG    1       -0.121   1.007  -2.468  0.00  0.00    +0.520 C 
ATOM     16  N   LIG    1       -0.082  -0.330  -2.636  0.00  0.00    -0.640 N 
ATOM     17  H   LIG    1       -0.460  -0.915  -1.961  0.00  0.00    +0.430 HD
ATOM     18  O   LIG    1        0.352   1.739  -3.312  0.00  0.00    -0.490 OA
BRANCH  15  19
ATOM     19  C   LIG    1       -0.753   1.593  -1.232  0.00  0.00    +0.050 C 
BRANCH  19  20
ATOM     20  C   LIG    1       -0.667   3.096  -1.288  0.00  0.00    -0.070 A 
ATOM     21  C   LIG    1        0.566   3.716  -1.353  0.00  0.00    +0.030 A 
ATOM     22  C   LIG    1        0.644   5.096  -1.408  0.00  0.00    +0.000 A 
ATOM     23  C   LIG    1       -0.511   5.854  -1.391  0.00  0.00    +0.000 A 
ATOM     24  C   LIG    1       -1.744   5.234  -1.320  0.00  0.00    +0.000 A 
ATOM     25  C   LIG    1       -1.823   3.855  -1.269  0.00  0.00    +0.010 A 
ENDBRANCH  19  20
BRANCH  19  27
ATOM     26  C   LIG    1       -0.729   1.579   1.267  0.00  0.00    +0.030 C 
ATOM     27  C   LIG    1       -0.013   1.086   0.008  0.00  0.00    +0.020 C 
ENDBRANCH  19  27
ENDBRANCH  15  19
ENDBRANCH   1  16
TORSDOF 5
