REMARK  Name = ZINCvU0000000BC4.0
REMARK                            x       y       z     vdW  Elec       q    Type
REMARK                         _______ _______ _______ _____ _____    ______ ____
ROOT
ATOM      1  C   LIG    1        6.904  -0.863   3.679  0.00  0.00    +0.190 A 
ATOM      2  C   LIG    1        7.038  -2.150   3.173  0.00  0.00    +0.010 A 
ATOM      3  C   LIG    1        8.193  -2.870   3.409  0.00  0.00    +0.050 A 
ATOM      4  C   LIG    1        9.214  -2.317   4.158  0.00  0.00    -0.030 A 
ATOM      5  C   LIG    1        9.084  -1.032   4.671  0.00  0.00    +0.180 A 
ATOM      6  C   LIG    1        7.928  -0.305   4.431  0.00  0.00    -0.010 A 
ENDROOT
BRANCH   1  10
ATOM      7  N   LIG    1        3.895   0.335   2.077  0.00  0.00    -0.740 N 
ATOM      8  H   LIG    1        3.523   0.896   2.775  0.00  0.00    +0.400 HD
ATOM      9  C   LIG    1        5.074  -0.289   2.271  0.00  0.00    +0.710 C 
ATOM     10  N   LIG    1        5.736  -0.132   3.435  0.00  0.00    -0.680 N 
ATOM     11  H   LIG    1        5.402   0.487   4.103  0.00  0.00    +0.410 HD
ATOM     12  O   LIG    1        5.540  -0.993   1.396  0.00  0.00    -0.570 OA
BRANCH   7  13
ATOM     13  C   LIG    1        3.175   0.165   0.813  0.00  0.00    +0.310 C 
ATOM     14  C   LIG    1        3.706   1.166  -0.215  0.00  0.00    +0.040 C 
BRANCH  13  18
ATOM     15  C   LIG    1       -0.998   0.847   1.443  0.00  0.00    +0.100 A 
ATOM     16  C   LIG    1       -0.579  -0.177   0.608  0.00  0.00    -0.040 A 
ATOM     17  C   LIG    1        0.771  -0.396   0.406  0.00  0.00    +0.070 A 
ATOM     18  C   LIG    1        1.704   0.406   1.035  0.00  0.00    -0.100 A 
ATOM     19  C   LIG    1        1.291   1.429   1.869  0.00  0.00    +0.030 A 
ATOM     20  C   LIG    1       -0.058   1.652   2.075  0.00  0.00    +0.070 A 
ATOM     21  F   LIG    1       -0.462   2.652   2.889  0.00  0.00    -0.130 F 
BRANCH  15  23
ATOM     22  C   LIG    1       -3.234   0.203   0.953  0.00  0.00    +0.250 C 
ATOM     23  O   LIG    1       -2.325   1.066   1.639  0.00  0.00    -0.310 OA
ENDBRANCH  15  23
ENDBRANCH  13  18
ENDBRANCH   7  13
ENDBRANCH   1  10
BRANCH   5  24
ATOM     24  N   LIG    1       10.119  -0.473   5.429  0.00  0.00    -0.680 N 
ATOM     25  H   LIG    1       10.665  -1.039   5.997  0.00  0.00    +0.410 HD
ATOM     26  C   LIG    1       10.358   0.852   5.369  0.00  0.00    +0.700 C 
ATOM     27  N   LIG    1       11.284   1.407   6.175  0.00  0.00    -0.680 N 
ATOM     28  H   LIG    1       11.826   0.845   6.750  0.00  0.00    +0.410 HD
ATOM     29  O   LIG    1        9.738   1.547   4.587  0.00  0.00    -0.550 OA
BRANCH  27  30
ATOM     30  C   LIG    1       11.464   2.795   6.182  0.00  0.00    +0.160 A 
ATOM     31  C   LIG    1       11.339   3.519   5.004  0.00  0.00    +0.020 A 
ATOM     32  C   LIG    1       11.513   4.889   5.016  0.00  0.00    +0.030 A 
ATOM     33  C   LIG    1       11.822   5.539   6.197  0.00  0.00    -0.010 A 
ATOM     34  C   LIG    1       11.953   4.820   7.370  0.00  0.00    +0.030 A 
ATOM     35  C   LIG    1       11.775   3.450   7.367  0.00  0.00    -0.020 A 
ENDBRANCH  27  30
ENDBRANCH   5  24
TORSDOF 6
