REMARK  Name = ZINCah0000002HPr.0
REMARK                            x       y       z     vdW  Elec       q    Type
REMARK                         _______ _______ _______ _____ _____    ______ ____
ROOT
ATOM      1  O   LIG    1       -1.694   3.565   1.689  0.00  0.00    -0.420 OA
ATOM      2  C   LIG    1       -1.331   2.748   0.877  0.00  0.00    +0.490 C 
ATOM      3  O   LIG    1       -0.741   1.579   1.171  0.00  0.00    -0.330 OA
ATOM      4  C   LIG    1       -0.013   1.086   0.008  0.00  0.00    +0.270 C 
ATOM      5  C   LIG    1       -0.808   1.622  -1.204  0.00  0.00    +0.070 C 
ATOM      6  C   LIG    1       -1.470   2.891  -0.623  0.00  0.00    -0.050 C 
ENDROOT
BRANCH   6   7
ATOM      7  C   LIG    1       -2.948   2.948  -1.017  0.00  0.00    +0.470 C 
ATOM      8  F   LIG    1       -3.058   2.974  -2.412  0.00  0.00    -0.170 F 
ATOM      9  F   LIG    1       -3.528   4.103  -0.482  0.00  0.00    -0.170 F 
ATOM     10  F   LIG    1       -3.608   1.820  -0.518  0.00  0.00    -0.170 F 
ENDBRANCH   6   7
TORSDOF 1
