REMARK  Name = ZINCqH0000036LIM.0
REMARK                            x       y       z     vdW  Elec       q    Type
REMARK                         _______ _______ _______ _____ _____    ______ ____
ROOT
ATOM      1  N   LIG    1        0.922   3.998   0.944  0.00  0.00    -0.740 N 
ATOM      2  H   LIG    1       -0.014   3.772   1.063  0.00  0.00    +0.400 HD
ATOM      3  C   LIG    1        1.763   3.108   0.380  0.00  0.00    +0.720 C 
ATOM      4  N   LIG    1        1.304   1.905  -0.017  0.00  0.00    -0.630 N 
ATOM      5  C   LIG    1       -0.105   1.472   0.008  0.00  0.00    +0.240 C 
ATOM      6  C   LIG    1       -0.044  -0.074   0.068  0.00  0.00    +0.040 C 
ATOM      7  C   LIG    1        1.176  -0.374  -0.842  0.00  0.00    +0.030 C 
ATOM      8  C   LIG    1        2.125   0.807  -0.548  0.00  0.00    +0.250 C 
ATOM      9  O   LIG    1        2.936   3.391   0.230  0.00  0.00    -0.580 OA
ENDROOT
BRANCH   1  10
ATOM     10  C   LIG    1        1.421   5.306   1.376  0.00  0.00    +0.340 C 
BRANCH  10  14
ATOM     11  C   LIG    1       -1.787   7.572   3.055  0.00  0.00    -0.110 A 
ATOM     12  C   LIG    1       -1.021   6.753   3.864  0.00  0.00    +0.020 A 
ATOM     13  C   LIG    1        0.017   6.020   3.321  0.00  0.00    +0.040 A 
ATOM     14  C   LIG    1        0.289   6.105   1.968  0.00  0.00    -0.110 A 
ATOM     15  C   LIG    1       -0.473   6.927   1.160  0.00  0.00    +0.040 A 
ATOM     16  C   LIG    1       -1.515   7.656   1.702  0.00  0.00    +0.010 A 
BRANCH  11  18
ATOM     17  C   LIG    1       -2.462   9.815   3.869  0.00  0.00    +0.020 C 
ATOM     18  C   LIG    1       -2.919   8.371   3.647  0.00  0.00    +0.250 C 
BRANCH  18  19
ATOM     19  O   LIG    1       -4.032   8.356   2.752  0.00  0.00    -0.560 OA
ATOM     20  H   LIG    1       -3.843   8.732   1.882  0.00  0.00    +0.370 HD
ENDBRANCH  18  19
ENDBRANCH  11  18
ENDBRANCH  10  14
ENDBRANCH   1  10
BRANCH   8  21
ATOM     21  C   LIG    1        2.817   1.252  -1.838  0.00  0.00    +0.070 C 
BRANCH  21  22
ATOM     22  C   LIG    1        3.720   0.150  -2.329  0.00  0.00    -0.050 A 
ATOM     23  C   LIG    1        5.006   0.038  -1.833  0.00  0.00    +0.010 A 
ATOM     24  C   LIG    1        5.834  -0.976  -2.278  0.00  0.00    +0.040 A 
ATOM     25  C   LIG    1        5.381  -1.872  -3.228  0.00  0.00    -0.030 A 
ATOM     26  C   LIG    1        4.095  -1.757  -3.730  0.00  0.00    +0.100 A 
ATOM     27  F   LIG    1        3.652  -2.631  -4.659  0.00  0.00    -0.140 F 
ATOM     28  C   LIG    1        3.265  -0.745  -3.279  0.00  0.00    -0.020 A 
ENDBRANCH  21  22
ENDBRANCH   8  21
TORSDOF 6
