REMARK  Name = ZINCqH0000002XVw.0
REMARK                            x       y       z     vdW  Elec       q    Type
REMARK                         _______ _______ _______ _____ _____    ______ ____
ROOT
ATOM      1  C   LIG    1       -4.993   3.829  -0.128  0.00  0.00    +0.350 C 
ENDROOT
BRANCH   1   2
ATOM      2  C   LIG    1       -5.731   3.966   1.179  0.00  0.00    -0.140 A 
ATOM      3  C   LIG    1       -6.290   5.180   1.546  0.00  0.00    +0.080 A 
ATOM      4  C   LIG    1       -6.966   5.258   2.754  0.00  0.00    -0.030 A 
ATOM      5  C   LIG    1       -7.049   4.133   3.553  0.00  0.00    +0.250 A 
ATOM      6  N   LIG    1       -6.500   2.995   3.174  0.00  0.00    -0.480 NA
ATOM      7  C   LIG    1       -5.855   2.883   2.029  0.00  0.00    +0.260 A 
ENDBRANCH   1   2
BRANCH   1   8
ATOM      8  C   LIG    1       -5.975   3.526  -1.230  0.00  0.00    -0.130 A 
ATOM      9  C   LIG    1       -6.335   2.218  -1.493  0.00  0.00    +0.050 A 
ATOM     10  C   LIG    1       -7.239   1.938  -2.500  0.00  0.00    -0.070 A 
ATOM     11  C   LIG    1       -7.777   2.970  -3.254  0.00  0.00    +0.130 A 
ATOM     12  C   LIG    1       -7.410   4.282  -2.992  0.00  0.00    -0.020 A 
ATOM     13  C   LIG    1       -6.510   4.557  -1.981  0.00  0.00    +0.060 A 
BRANCH  11  14
ATOM     14  O   LIG    1       -8.662   2.697  -4.248  0.00  0.00    -0.320 OA
ATOM     15  C   LIG    1       -8.994   1.324  -4.462  0.00  0.00    +0.250 C 
ENDBRANCH  11  14
ENDBRANCH   1   8
BRANCH   1  16
ATOM     16  N   LIG    1       -4.020   2.739  -0.027  0.00  0.00    -0.590 N 
ATOM     17  C   LIG    1       -2.715   2.976  -0.268  0.00  0.00    +0.580 C 
ATOM     18  O   LIG    1       -2.328   4.113  -0.452  0.00  0.00    -0.530 OA
BRANCH  17  19
ATOM     19  C   LIG    1       -1.753   1.850  -0.306  0.00  0.00    +0.070 A 
ATOM     20  C   LIG    1       -0.385   2.111  -0.318  0.00  0.00    +0.040 A 
ATOM     21  C   LIG    1        0.504   1.048  -0.355  0.00  0.00    +0.060 A 
ATOM     22  C   LIG    1       -0.008  -0.240  -0.378  0.00  0.00    +0.000 A 
ATOM     23  C   LIG    1       -1.381  -0.426  -0.364  0.00  0.00    +0.260 A 
ATOM     24  N   LIG    1       -2.201   0.601  -0.335  0.00  0.00    -0.440 NA
ENDBRANCH  17  19
BRANCH  16  26
ATOM     25  C   LIG    1       -3.777   0.958   1.631  0.00  0.00    +0.040 C 
ATOM     26  C   LIG    1       -4.465   1.391   0.335  0.00  0.00    +0.290 C 
ENDBRANCH  16  26
ENDBRANCH   1  16
TORSDOF 6
