REMARK  Name = ZINCnE000005sg0s.0
REMARK                            x       y       z     vdW  Elec       q    Type
REMARK                         _______ _______ _______ _____ _____    ______ ____
ROOT
ATOM      1  N   LIG    1       -2.868   4.398   4.649  0.00  0.00    -0.740 N 
ATOM      2  H   LIG    1       -2.437   4.893   3.935  0.00  0.00    +0.390 HD
ATOM      3  C   LIG    1       -3.504   5.058   5.638  0.00  0.00    +0.570 C 
ATOM      4  O   LIG    1       -4.044   4.437   6.533  0.00  0.00    -0.520 OA
ENDROOT
BRANCH   3   5
ATOM      5  C   LIG    1       -3.543   6.533   5.634  0.00  0.00    -0.290 A 
ATOM      6  C   LIG    1       -2.923   7.249   4.608  0.00  0.00    +0.080 A 
ATOM      7  C   LIG    1       -2.964   8.627   4.610  0.00  0.00    -0.240 A 
ATOM      8  C   LIG    1       -3.617   9.306   5.626  0.00  0.00    +0.080 A 
ATOM      9  C   LIG    1       -4.234   8.609   6.647  0.00  0.00    -0.220 A 
ATOM     10 BR   LIG    1       -5.122   9.548   8.028  0.00  0.00    -0.090 Br
ATOM     11  C   LIG    1       -2.294   9.399   3.502  0.00  0.00    +0.070 C 
ATOM     12  C   LIG    1       -4.208   7.222   6.657  0.00  0.00    +0.320 A 
ATOM     13  O   LIG    1       -4.818   6.536   7.657  0.00  0.00    -0.640 OA
ENDBRANCH   3   5
BRANCH   1  14
ATOM     14  C   LIG    1       -2.829   2.934   4.652  0.00  0.00    +0.330 C 
BRANCH  14  19
ATOM     15  C   LIG    1       -0.003   1.810   2.419  0.00  0.00    +0.130 A 
ATOM     16  C   LIG    1       -0.718   1.572   1.248  0.00  0.00    -0.150 A 
ATOM     17  C   LIG    1       -2.080   1.792   1.237  0.00  0.00    +0.270 A 
ATOM     18  N   LIG    1       -2.706   2.212   2.320  0.00  0.00    -0.460 NA
ATOM     19  C   LIG    1       -2.064   2.449   3.448  0.00  0.00    +0.120 A 
ATOM     20  C   LIG    1       -0.013   1.086   0.008  0.00  0.00    +0.110 C 
ATOM     21  C   LIG    1       -0.700   2.259   3.538  0.00  0.00    -0.130 A 
ATOM     22  C   LIG    1        0.025   2.533   4.831  0.00  0.00    +0.110 C 
BRANCH  15  24
ATOM     23  C   LIG    1        2.172   2.722   2.129  0.00  0.00    +0.230 C 
ATOM     24  O   LIG    1        1.339   1.611   2.468  0.00  0.00    -0.330 OA
ENDBRANCH  15  24
ENDBRANCH  14  19
ENDBRANCH   1  14
TORSDOF 4
