REMARK  Name = ZINCrD0000073wjc.0
REMARK                            x       y       z     vdW  Elec       q    Type
REMARK                         _______ _______ _______ _____ _____    ______ ____
ROOT
ATOM      1  S   LIG    1        7.377  -1.620  -2.192  0.00  0.00    +2.700 S 
ATOM      2  O   LIG    1        6.508  -2.690  -1.847  0.00  0.00    -0.940 OA
ATOM      3  O   LIG    1        8.775  -1.785  -2.383  0.00  0.00    -0.940 OA
ENDROOT
BRANCH   1   7
ATOM      4  C   LIG    1        5.762   0.153  -6.033  0.00  0.00    +0.250 A 
ATOM      5  C   LIG    1        7.099   0.316  -5.701  0.00  0.00    -0.070 A 
ATOM      6  C   LIG    1        7.589  -0.226  -4.529  0.00  0.00    +0.230 A 
ATOM      7  C   LIG    1        6.748  -0.930  -3.687  0.00  0.00    -0.720 A 
ATOM      8  C   LIG    1        5.416  -1.099  -4.018  0.00  0.00    +0.260 A 
ATOM      9  C   LIG    1        4.920  -0.554  -5.186  0.00  0.00    -0.100 A 
BRANCH   9  10
ATOM     10  N   LIG    1        3.493  -0.729  -5.537  0.00  0.00    +0.030 N 
ATOM     11  O   LIG    1        3.057  -0.253  -6.570  0.00  0.00    -0.130 OA
ATOM     12  O   LIG    1        2.755  -1.349  -4.793  0.00  0.00    -0.160 OA
ENDBRANCH   9  10
BRANCH   4  14
ATOM     13  C   LIG    1        6.201   1.399  -8.010  0.00  0.00    +0.270 C 
ATOM     14  O   LIG    1        5.277   0.684  -7.186  0.00  0.00    -0.270 OA
ENDBRANCH   4  14
ENDBRANCH   1   7
BRANCH   1  15
ATOM     15  N   LIG    1        7.199  -0.473  -1.010  0.00  0.00    -1.050 N 
ATOM     16  H   LIG    1        7.978  -0.132  -0.544  0.00  0.00    +0.430 HD
BRANCH  15  17
ATOM     17  C   LIG    1        5.923   0.003  -0.684  0.00  0.00    +0.110 A 
ATOM     18  C   LIG    1        4.832  -0.855  -0.717  0.00  0.00    +0.020 A 
ATOM     19  C   LIG    1        3.574  -0.385  -0.395  0.00  0.00    +0.000 A 
ATOM     20  C   LIG    1        3.401   0.946  -0.038  0.00  0.00    +0.110 A 
ATOM     21  C   LIG    1        4.491   1.806  -0.011  0.00  0.00    -0.010 A 
ATOM     22  C   LIG    1        5.750   1.334  -0.328  0.00  0.00    -0.070 A 
ATOM     23  C   LIG    1        6.934   2.266  -0.293  0.00  0.00    +0.100 C 
BRANCH  20  24
ATOM     24  N   LIG    1        2.125   1.423   0.288  0.00  0.00    -0.480 N 
ATOM     25  C   LIG    1        1.242   0.319   0.722  0.00  0.00    +0.190 C 
ATOM     26  C   LIG    1        0.318   0.950   1.793  0.00  0.00    +0.030 C 
ATOM     27  C   LIG    1        1.292   1.919   2.515  0.00  0.00    +0.010 C 
ATOM     28  C   LIG    1        2.195   2.422   1.370  0.00  0.00    +0.190 C 
ENDBRANCH  20  24
ENDBRANCH  15  17
ENDBRANCH   1  15
TORSDOF 6
