REMARK  Name = ZINCrH000004rR4o.1
REMARK                            x       y       z     vdW  Elec       q    Type
REMARK                         _______ _______ _______ _____ _____    ______ ____
ROOT
ATOM      1  C   LIG    1       -3.774   1.418   0.028  0.00  0.00    +0.180 C 
ENDROOT
BRANCH   1   5
ATOM      2  N   LIG    1       -7.310  -0.694  -0.912  0.00  0.00    -0.490 N 
ATOM      3  C   LIG    1       -7.274   0.063   0.347  0.00  0.00    +0.200 C 
ATOM      4  C   LIG    1       -6.164   1.114   0.276  0.00  0.00    +0.200 C 
ATOM      5  N   LIG    1       -4.878   0.448   0.028  0.00  0.00    -0.540 NA
ATOM      6  C   LIG    1       -4.914  -0.308  -1.232  0.00  0.00    +0.190 C 
ATOM      7  C   LIG    1       -6.024  -1.359  -1.160  0.00  0.00    +0.200 C 
BRANCH   2  13
ATOM      8  C   LIG    1       -9.833  -4.231  -3.209  0.00  0.00    +0.090 C 
ATOM      9  C   LIG    1       -9.606  -3.344  -2.013  0.00  0.00    -0.060 A 
ATOM     10  C   LIG    1      -10.438  -3.442  -0.913  0.00  0.00    -0.030 A 
ATOM     11  C   LIG    1      -10.234  -2.629   0.187  0.00  0.00    +0.030 A 
ATOM     12  C   LIG    1       -9.198  -1.717   0.191  0.00  0.00    -0.050 A 
ATOM     13  C   LIG    1       -8.360  -1.615  -0.912  0.00  0.00    +0.110 A 
ATOM     14  C   LIG    1       -8.571  -2.429  -2.018  0.00  0.00    -0.020 A 
ENDBRANCH   2  13
ENDBRANCH   1   5
BRANCH   1  15
ATOM     15  C   LIG    1       -2.439   0.671   0.017  0.00  0.00    +0.020 C 
BRANCH  15  16
ATOM     16  C   LIG    1       -1.290   1.681   0.017  0.00  0.00    +0.260 C 
BRANCH  16  17
ATOM     17  N   LIG    1       -0.011   0.966   0.007  0.00  0.00    -0.720 N 
ATOM     18  H   LIG    1        0.002  -0.004   0.002  0.00  0.00    +0.400 HD
ATOM     19  C   LIG    1        1.147   1.655   0.000  0.00  0.00    +0.560 C 
ATOM     20  O   LIG    1        1.130   2.871   0.007  0.00  0.00    -0.520 OA
BRANCH  19  21
ATOM     21  C   LIG    1        2.436   0.934  -0.016  0.00  0.00    -0.160 A 
ATOM     22  C   LIG    1        2.459  -0.461  -0.018  0.00  0.00    +0.100 A 
ATOM     23  C   LIG    1        3.666  -1.129  -0.038  0.00  0.00    -0.060 A 
ATOM     24  C   LIG    1        4.855  -0.418  -0.046  0.00  0.00    +0.100 A 
ATOM     25  C   LIG    1        4.842   0.964  -0.038  0.00  0.00    +0.010 A 
ATOM     26 CL   LIG    1        3.696  -2.865  -0.047  0.00  0.00    -0.050 Cl
ATOM     27  C   LIG    1        3.639   1.647  -0.024  0.00  0.00    +0.170 A 
ATOM     28  F   LIG    1        3.627   2.998  -0.017  0.00  0.00    -0.110 F 
ENDBRANCH  19  21
ENDBRANCH  16  17
ENDBRANCH  15  16
ENDBRANCH   1  15
TORSDOF 6
