REMARK  Name = ZINCpe00000MJIk4.0
REMARK                            x       y       z     vdW  Elec       q    Type
REMARK                         _______ _______ _______ _____ _____    ______ ____
ROOT
ATOM      1  N   LIG    1        2.609   1.159  -1.623  0.00  0.00    -1.010 NA
ATOM      2  C   LIG    1        2.181   2.564  -1.663  0.00  0.00    +0.290 C 
ATOM      3  C   LIG    1        2.206   3.009  -3.140  0.00  0.00    +0.070 C 
ATOM      4  C   LIG    1        2.102   1.666  -3.909  0.00  0.00    +0.220 C 
ATOM      5  C   LIG    1        2.926   0.722  -2.994  0.00  0.00    +0.350 C 
ENDROOT
BRANCH   4   6
ATOM      6  C   LIG    1        2.731   1.775  -5.274  0.00  0.00    +0.150 A 
ATOM      7  N   LIG    1        2.359   2.578  -6.243  0.00  0.00    -0.460 NA
ATOM      8  C   LIG    1        3.201   2.329  -7.262  0.00  0.00    +0.210 A 
ATOM      9  N   LIG    1        4.026   1.405  -6.869  0.00  0.00    -0.370 NA
ATOM     10  O   LIG    1        3.776   1.077  -5.728  0.00  0.00    +0.090 OA
BRANCH   8  11
ATOM     11  C   LIG    1        3.190   2.998  -8.612  0.00  0.00    +0.050 C 
ATOM     12  C   LIG    1        4.107   2.424  -9.693  0.00  0.00    +0.050 C 
ATOM     13  C   LIG    1        4.448   3.761  -9.033  0.00  0.00    +0.060 C 
ENDBRANCH   8  11
ENDBRANCH   4   6
BRANCH   1  14
ATOM     14  S   LIG    1        2.723   0.223  -0.261  0.00  0.00    +2.720 S 
ATOM     15  O   LIG    1        3.761  -0.717  -0.506  0.00  0.00    -0.940 OA
ATOM     16  O   LIG    1        2.729   1.118   0.842  0.00  0.00    -0.940 OA
BRANCH  14  23
ATOM     17  C   LIG    1        0.019  -0.064   0.098  0.00  0.00    +0.500 A 
ATOM     18  N   LIG    1       -1.104  -0.759   0.195  0.00  0.00    -0.530 NA
ATOM     19  C   LIG    1       -1.120  -2.072   0.061  0.00  0.00    +0.410 A 
ATOM     20  C   LIG    1        0.046  -2.773  -0.177  0.00  0.00    -0.170 A 
ATOM     21  C   LIG    1        1.247  -2.081  -0.280  0.00  0.00    +0.240 A 
ATOM     22 CL   LIG    1        0.012  -4.501  -0.344  0.00  0.00    -0.050 Cl
ATOM     23  C   LIG    1        1.230  -0.706  -0.140  0.00  0.00    -0.790 A 
BRANCH  17  24
ATOM     24  N   LIG    1       -0.012   1.319   0.241  0.00  0.00    -0.840 N 
ATOM     25  H   LIG    1       -0.863   1.781   0.298  0.00  0.00    +0.420 HD
ATOM     26  H   LIG    1        0.817   1.821   0.280  0.00  0.00    +0.410 HD
ENDBRANCH  17  24
ENDBRANCH  14  23
ENDBRANCH   1  14
BRANCH   4  27
ATOM     27  O   LIG    1        0.743   1.235  -4.007  0.00  0.00    -0.520 OA
ATOM     28  H   LIG    1        0.170   1.847  -4.488  0.00  0.00    +0.390 HD
ENDBRANCH   4  27
TORSDOF 6
