REMARK  Name = ZINCrD00000hQ5B3.0
REMARK                            x       y       z     vdW  Elec       q    Type
REMARK                         _______ _______ _______ _____ _____    ______ ____
ROOT
ATOM      1  C   LIG    1        0.049   0.063  -1.966  0.00  0.00    +0.120 A 
ATOM      2  C   LIG    1        1.242  -0.566  -2.294  0.00  0.00    -0.040 A 
ATOM      3  C   LIG    1        1.682  -0.571  -3.603  0.00  0.00    +0.020 A 
ATOM      4  C   LIG    1        0.937   0.062  -4.589  0.00  0.00    +0.120 A 
ATOM      5  C   LIG    1       -0.253   0.695  -4.259  0.00  0.00    +0.040 A 
ATOM      6  C   LIG    1       -0.696   0.695  -2.950  0.00  0.00    +0.020 A 
ENDROOT
BRANCH   4   7
ATOM      7  N   LIG    1        1.387   0.062  -5.914  0.00  0.00    -0.940 N 
ATOM      8  C   LIG    1        0.429   0.220  -7.012  0.00  0.00    +0.330 C 
BRANCH   7   9
ATOM      9  S   LIG    1        3.000  -0.117  -6.242  0.00  0.00    +2.690 S 
ATOM     10  O   LIG    1        3.124  -0.121  -7.657  0.00  0.00    -0.930 OA
ATOM     11  O   LIG    1        3.461  -1.179  -5.418  0.00  0.00    -0.940 OA
BRANCH   9  12
ATOM     12  C   LIG    1        3.812   1.341  -5.675  0.00  0.00    -0.720 A 
ATOM     13  C   LIG    1        4.697   1.271  -4.616  0.00  0.00    +0.160 A 
ATOM     14  C   LIG    1        5.339   2.414  -4.175  0.00  0.00    -0.010 A 
ATOM     15  C   LIG    1        5.087   3.628  -4.785  0.00  0.00    +0.110 A 
ATOM     16  C   LIG    1        4.198   3.701  -5.841  0.00  0.00    -0.020 A 
ATOM     17  C   LIG    1        3.559   2.557  -6.287  0.00  0.00    +0.200 A 
ATOM     18  F   LIG    1        2.690   2.626  -7.319  0.00  0.00    -0.120 F 
ENDBRANCH   9  12
ENDBRANCH   7   9
ENDBRANCH   4   7
BRANCH   1  19
ATOM     19  O   LIG    1       -0.387   0.064  -0.678  0.00  0.00    -0.310 OA
BRANCH  19  20
ATOM     20  C   LIG    1        0.431  -0.606   0.284  0.00  0.00    +0.240 C 
BRANCH  20  23
ATOM     21  N   LIG    1       -1.510  -1.167   1.866  0.00  0.00    -0.440 NA
ATOM     22  C   LIG    1       -1.517   0.299   1.781  0.00  0.00    +0.180 C 
ATOM     23  C   LIG    1       -0.217  -0.500   1.666  0.00  0.00    +0.060 C 
BRANCH  21  24
ATOM     24  C   LIG    1       -1.662  -1.615   3.257  0.00  0.00    +0.150 C 
BRANCH  24  26
ATOM     25  C   LIG    1       -2.669  -3.792   2.558  0.00  0.00    +0.020 C 
ATOM     26  C   LIG    1       -2.893  -2.515   3.372  0.00  0.00    -0.010 C 
ATOM     27  C   LIG    1       -3.124  -2.880   4.840  0.00  0.00    +0.010 C 
ENDBRANCH  24  26
ENDBRANCH  21  24
ENDBRANCH  20  23
ENDBRANCH  19  20
ENDBRANCH   1  19
TORSDOF 8
