REMARK  Name = ZINCrg00000xnEiQ.0
REMARK                            x       y       z     vdW  Elec       q    Type
REMARK                         _______ _______ _______ _____ _____    ______ ____
ROOT
ATOM      1  C   LIG    1        1.461   3.861  -1.907  0.00  0.00    +0.030 C 
ENDROOT
BRANCH   1   2
ATOM      2  C   LIG    1        0.686   3.578  -0.619  0.00  0.00    +0.000 C 
ATOM      3  C   LIG    1        1.149   2.248   0.003  0.00  0.00    +0.250 C 
ATOM      4  N   LIG    1       -0.016   1.344   0.009  0.00  0.00    -0.620 N 
ATOM      5  C   LIG    1       -1.211   2.220   0.019  0.00  0.00    +0.270 C 
ATOM      6  C   LIG    1        0.002  -0.004   0.002  0.00  0.00    +0.530 C 
ATOM      7  O   LIG    1        1.060  -0.596  -0.011  0.00  0.00    -0.540 OA
ATOM      8  C   LIG    1       -0.816   3.375  -0.928  0.00  0.00    -0.010 C 
ATOM      9  C   LIG    1       -1.612   4.641  -0.604  0.00  0.00    +0.040 C 
BRANCH   6  10
ATOM     10  C   LIG    1       -1.293  -0.775   0.010  0.00  0.00    +0.080 C 
BRANCH  10  11
ATOM     11  C   LIG    1       -0.993  -2.276  -0.001  0.00  0.00    +0.070 C 
BRANCH  11  12
ATOM     12  C   LIG    1       -2.287  -3.047   0.007  0.00  0.00    +0.520 C 
ATOM     13  O   LIG    1       -3.346  -2.455   0.021  0.00  0.00    -0.550 OA
ATOM     14  N   LIG    1       -2.269  -4.394   0.000  0.00  0.00    -0.860 N 
ATOM     15  H   LIG    1       -3.103  -4.891   0.005  0.00  0.00    +0.400 HD
ATOM     16  H   LIG    1       -1.423  -4.868  -0.011  0.00  0.00    +0.400 HD
ENDBRANCH  11  12
ENDBRANCH  10  11
ENDBRANCH   6  10
ENDBRANCH   1   2
BRANCH   1  17
ATOM     17  C   LIG    1        2.933   4.110  -1.573  0.00  0.00    +0.260 C 
BRANCH  17  19
ATOM     18  C   LIG    1        4.999   4.630  -2.756  0.00  0.00    +0.600 C 
ATOM     19  N   LIG    1        3.675   4.381  -2.806  0.00  0.00    -0.730 N 
ATOM     20  H   LIG    1        3.214   4.380  -3.660  0.00  0.00    +0.390 HD
ATOM     21  O   LIG    1        5.577   4.630  -1.685  0.00  0.00    -0.520 OA
BRANCH  18  25
ATOM     22  C   LIG    1        6.256   5.220  -6.099  0.00  0.00    +0.250 A 
ATOM     23  N   LIG    1        7.349   5.357  -5.394  0.00  0.00    -0.480 NA
ATOM     24  C   LIG    1        7.076   5.176  -4.102  0.00  0.00    +0.270 A 
ATOM     25  C   LIG    1        5.742   4.901  -3.991  0.00  0.00    -0.100 A 
ATOM     26  N   LIG    1        5.231   4.936  -5.275  0.00  0.00    -0.550 N 
ATOM     27  H   LIG    1        4.309   4.785  -5.532  0.00  0.00    +0.420 HD
BRANCH  22  28
ATOM     28  C   LIG    1        6.159   5.356  -7.597  0.00  0.00    +0.140 C 
BRANCH  28  30
ATOM     29  C   LIG    1        8.210   6.780  -7.705  0.00  0.00    +0.030 C 
ATOM     30  C   LIG    1        6.714   6.718  -8.022  0.00  0.00    -0.020 C 
ATOM     31  C   LIG    1        6.503   6.908  -9.525  0.00  0.00    +0.020 C 
ENDBRANCH  28  30
ENDBRANCH  22  28
ENDBRANCH  18  25
ENDBRANCH  17  19
ENDBRANCH   1  17
TORSDOF 9
