REMARK  Name = ZINCpk00000kNRE8.0
REMARK                            x       y       z     vdW  Elec       q    Type
REMARK                         _______ _______ _______ _____ _____    ______ ____
ROOT
ATOM      1  C   LIG    1       -6.248   0.433  -2.183  0.00  0.00    +0.630 C 
ATOM      2  N   LIG    1       -6.169   0.746  -0.875  0.00  0.00    -0.620 N 
ATOM      3  C   LIG    1       -6.882   0.107   0.257  0.00  0.00    +0.310 C 
ATOM      4  C   LIG    1       -5.837   0.046   1.391  0.00  0.00    -0.040 C 
ATOM      5  C   LIG    1       -5.688   1.248   2.325  0.00  0.00    +0.090 C 
ATOM      6  C   LIG    1       -4.827   1.165   1.063  0.00  0.00    +0.080 C 
ATOM      7  C   LIG    1       -5.351   1.805  -0.241  0.00  0.00    +0.340 C 
ATOM      8  O   LIG    1       -5.593   1.056  -2.998  0.00  0.00    -0.510 OA
ENDROOT
BRANCH   1  13
ATOM      9  C   LIG    1       -9.512  -3.359  -2.171  0.00  0.00    +0.240 C 
ATOM     10  C   LIG    1       -8.539  -2.305  -2.633  0.00  0.00    +0.230 A 
ATOM     11  N   LIG    1       -8.180  -2.097  -3.872  0.00  0.00    -0.490 NA
ATOM     12  C   LIG    1       -7.306  -1.086  -3.907  0.00  0.00    +0.090 A 
ATOM     13  C   LIG    1       -7.123  -0.658  -2.626  0.00  0.00    -0.120 A 
ATOM     14  C   LIG    1       -6.643  -0.524  -5.138  0.00  0.00    +0.180 C 
ATOM     15  O   LIG    1       -7.901  -1.439  -1.840  0.00  0.00    -0.190 OA
ENDBRANCH   1  13
BRANCH   6  16
ATOM     16  N   LIG    1       -3.381   0.962   1.187  0.00  0.00    -0.690 N 
ATOM     17  H   LIG    1       -3.036   0.105   1.482  0.00  0.00    +0.410 HD
ATOM     18  C   LIG    1       -2.532   1.966   0.891  0.00  0.00    +0.490 C 
ATOM     19  O   LIG    1       -2.964   3.037   0.522  0.00  0.00    -0.510 OA
BRANCH  18  20
ATOM     20  C   LIG    1       -1.045   1.756   1.018  0.00  0.00    +0.120 C 
ATOM     21  C   LIG    1       -0.508   1.119  -0.265  0.00  0.00    +0.090 C 
BRANCH  20  22
ATOM     22  O   LIG    1       -0.779   0.894   2.126  0.00  0.00    -0.550 OA
ATOM     23  H   LIG    1       -1.284   1.108   2.922  0.00  0.00    +0.380 HD
ENDBRANCH  20  22
BRANCH  20  24
ATOM     24  C   LIG    1       -0.358   3.105   1.245  0.00  0.00    +0.040 C 
BRANCH  24  25
ATOM     25  C   LIG    1       -0.832   3.702   2.571  0.00  0.00    -0.030 C 
ATOM     26  C   LIG    1       -0.545   5.205   2.585  0.00  0.00    +0.020 C 
ATOM     27  C   LIG    1       -0.088   3.031   3.727  0.00  0.00    +0.020 C 
ENDBRANCH  24  25
ENDBRANCH  20  24
ENDBRANCH  18  20
ENDBRANCH   6  16
TORSDOF 6
