REMARK  Name = ZINCvU00000004r4.0
REMARK                            x       y       z     vdW  Elec       q    Type
REMARK                         _______ _______ _______ _____ _____    ______ ____
ROOT
ATOM      1  N   LIG    1       -5.157   2.982  -2.848  0.00  0.00    -0.460 N 
ATOM      2  C   LIG    1       -5.599   2.449  -4.048  0.00  0.00    +0.050 A 
ATOM      3  C   LIG    1       -6.708   2.673  -4.850  0.00  0.00    +0.020 A 
ATOM      4  C   LIG    1       -6.865   1.958  -6.020  0.00  0.00    +0.020 A 
ATOM      5  C   LIG    1       -5.921   1.016  -6.400  0.00  0.00    +0.010 A 
ATOM      6  C   LIG    1       -4.814   0.781  -5.616  0.00  0.00    +0.060 A 
ATOM      7  C   LIG    1       -4.639   1.496  -4.429  0.00  0.00    +0.070 A 
ATOM      8  N   LIG    1       -3.676   1.494  -3.471  0.00  0.00    -0.470 NA
ATOM      9  C   LIG    1       -3.979   2.361  -2.539  0.00  0.00    +0.510 A 
ENDROOT
BRANCH   1  14
ATOM     10  C   LIG    1       -7.754   6.994   0.212  0.00  0.00    +0.100 C 
ATOM     11  C   LIG    1       -7.064   5.929  -0.600  0.00  0.00    -0.070 A 
ATOM     12  C   LIG    1       -5.831   6.186  -1.170  0.00  0.00    +0.040 A 
ATOM     13  C   LIG    1       -5.197   5.211  -1.915  0.00  0.00    +0.020 A 
ATOM     14  C   LIG    1       -5.798   3.973  -2.092  0.00  0.00    +0.100 A 
ATOM     15  C   LIG    1       -7.039   3.719  -1.523  0.00  0.00    +0.030 A 
ATOM     16  C   LIG    1       -7.666   4.696  -0.774  0.00  0.00    +0.020 A 
ENDBRANCH   1  14
BRANCH   9  17
ATOM     17  N   LIG    1       -3.217   2.615  -1.411  0.00  0.00    -0.640 N 
ATOM     18  H   LIG    1       -3.510   3.280  -0.768  0.00  0.00    +0.420 HD
ATOM     19  C   LIG    1       -2.069   1.941  -1.207  0.00  0.00    +0.510 C 
ATOM     20  O   LIG    1       -1.702   1.111  -2.012  0.00  0.00    -0.450 OA
BRANCH  19  21
ATOM     21  C   LIG    1       -1.240   2.218   0.020  0.00  0.00    +0.090 C 
ATOM     22  C   LIG    1       -2.068   1.924   1.272  0.00  0.00    +0.060 C 
BRANCH  21  23
ATOM     23  C   LIG    1       -0.016   1.338   0.009  0.00  0.00    -0.170 A 
ATOM     24  C   LIG    1        0.002  -0.004   0.002  0.00  0.00    +0.250 A 
ATOM     25  N   LIG    1        1.294  -0.453  -0.013  0.00  0.00    -0.480 N 
ATOM     26  C   LIG    1        2.162   0.616  -0.015  0.00  0.00    +0.100 A 
ATOM     27  C   LIG    1        3.548   0.725  -0.029  0.00  0.00    -0.010 A 
ATOM     28  C   LIG    1        4.137   1.971  -0.029  0.00  0.00    +0.020 A 
ATOM     29  C   LIG    1        3.360   3.121  -0.015  0.00  0.00    -0.020 A 
ATOM     30  C   LIG    1        1.996   3.037  -0.001  0.00  0.00    +0.040 A 
ATOM     31  C   LIG    1        1.696  -1.862  -0.024  0.00  0.00    +0.310 C 
ATOM     32  C   LIG    1        1.379   1.786  -0.002  0.00  0.00    -0.090 A 
ENDBRANCH  21  23
ENDBRANCH  19  21
ENDBRANCH   9  17
TORSDOF 4
