REMARK  Name = ZINCrH000004uRcn.0
REMARK                            x       y       z     vdW  Elec       q    Type
REMARK                         _______ _______ _______ _____ _____    ______ ____
ROOT
ATOM      1  C   LIG    1       -1.221   1.762   0.208  0.00  0.00    -0.120 A 
ATOM      2  C   LIG    1       -1.243   3.148   0.042  0.00  0.00    +0.030 A 
ATOM      3  C   LIG    1       -0.063   3.839  -0.144  0.00  0.00    +0.040 A 
ATOM      4  C   LIG    1        1.143   3.165  -0.163  0.00  0.00    +0.020 A 
ATOM      5  C   LIG    1        1.176   1.785   0.006  0.00  0.00    +0.140 A 
ATOM      6  C   LIG    1       -0.004   1.082   0.194  0.00  0.00    +0.090 A 
ENDROOT
BRANCH   1   8
ATOM      7  O   LIG    1       -2.463  -0.188   0.550  0.00  0.00    -0.520 OA
ATOM      8  C   LIG    1       -2.484   1.018   0.402  0.00  0.00    +0.560 C 
ATOM      9  N   LIG    1       -3.660   1.678   0.415  0.00  0.00    -0.720 N 
ATOM     10  H   LIG    1       -3.677   2.641   0.297  0.00  0.00    +0.400 HD
BRANCH   9  11
ATOM     11  C   LIG    1       -4.911   0.941   0.608  0.00  0.00    +0.290 C 
ATOM     12  C   LIG    1       -6.067   1.728  -0.015  0.00  0.00    +0.010 C 
ATOM     13  C   LIG    1       -7.385   1.097   0.450  0.00  0.00    +0.260 C 
ATOM     14  O   LIG    1       -7.492   1.267   1.864  0.00  0.00    -0.320 OA
ATOM     15  C   LIG    1       -6.423   0.921   2.627  0.00  0.00    +0.140 A 
ATOM     16  C   LIG    1       -6.614   0.735   3.992  0.00  0.00    -0.020 A 
ATOM     17  C   LIG    1       -5.552   0.386   4.802  0.00  0.00    +0.050 A 
ATOM     18  C   LIG    1       -4.293   0.223   4.255  0.00  0.00    -0.040 A 
ATOM     19  C   LIG    1       -4.099   0.406   2.900  0.00  0.00    +0.060 A 
ATOM     20  C   LIG    1       -5.162   0.755   2.083  0.00  0.00    -0.180 A 
ENDBRANCH   9  11
ENDBRANCH   1   8
BRANCH   5  21
ATOM     21  N   LIG    1        2.399   1.107  -0.015  0.00  0.00    -0.670 N 
ATOM     22  H   LIG    1        3.197   1.536   0.331  0.00  0.00    +0.420 HD
ATOM     23  C   LIG    1        2.468  -0.142  -0.515  0.00  0.00    +0.610 C 
ATOM     24  O   LIG    1        1.490  -0.644  -1.037  0.00  0.00    -0.490 OA
BRANCH  23  25
ATOM     25  C   LIG    1        3.723  -0.897  -0.432  0.00  0.00    -0.090 A 
ATOM     26  C   LIG    1        3.928  -2.166  -0.892  0.00  0.00    +0.050 A 
ATOM     27  C   LIG    1        5.264  -2.487  -0.608  0.00  0.00    -0.070 A 
ATOM     28  C   LIG    1        5.807  -1.417   0.013  0.00  0.00    +0.210 A 
ATOM     29  O   LIG    1        4.875  -0.461   0.117  0.00  0.00    -0.170 OA
ENDBRANCH  23  25
ENDBRANCH   5  21
TORSDOF 4
