REMARK  Name = ZINCqH0000001UJT.0
REMARK                            x       y       z     vdW  Elec       q    Type
REMARK                         _______ _______ _______ _____ _____    ______ ____
ROOT
ATOM      1  C   LIG    1       -0.013   1.086   0.008  0.00  0.00    +0.040 C 
ATOM      2  C   LIG    1       -0.729   1.579   1.267  0.00  0.00    -0.030 C 
ATOM      3  C   LIG    1       -2.156   1.037   1.279  0.00  0.00    +0.030 C 
ATOM      4  C   LIG    1       -2.946   1.724   0.160  0.00  0.00    +0.030 C 
ATOM      5  C   LIG    1       -3.156   3.186   0.547  0.00  0.00    -0.020 C 
ATOM      6  C   LIG    1       -1.849   3.824   0.939  0.00  0.00    -0.070 A 
ATOM      7  C   LIG    1       -1.791   5.209   0.960  0.00  0.00    +0.080 A 
ATOM      8  C   LIG    1       -0.615   5.861   1.325  0.00  0.00    -0.140 A 
ATOM      9  C   LIG    1        0.508   5.107   1.670  0.00  0.00    +0.030 A 
ATOM     10  C   LIG    1        0.440   3.733   1.643  0.00  0.00    +0.000 A 
ATOM     11  C   LIG    1       -3.751   3.942  -0.643  0.00  0.00    +0.030 C 
ATOM     12  C   LIG    1       -4.127   3.260   1.728  0.00  0.00    +0.040 C 
ATOM     13  C   LIG    1        0.015   1.070   2.503  0.00  0.00    +0.040 C 
ATOM     14  C   LIG    1       -0.735   3.086   1.277  0.00  0.00    -0.030 A 
ENDROOT
BRANCH   8  15
ATOM     15  C   LIG    1       -0.557   7.338   1.347  0.00  0.00    +0.560 C 
ATOM     16  N   LIG    1        0.583   7.962   1.702  0.00  0.00    -0.730 N 
ATOM     17  H   LIG    1        1.366   7.443   1.942  0.00  0.00    +0.400 HD
ATOM     18  O   LIG    1       -1.538   7.989   1.046  0.00  0.00    -0.540 OA
BRANCH  16  19
ATOM     19  C   LIG    1        0.640   9.426   1.724  0.00  0.00    +0.260 C 
BRANCH  19  20
ATOM     20  C   LIG    1        2.037   9.876   2.157  0.00  0.00    -0.010 C 
BRANCH  20  21
ATOM     21  C   LIG    1        2.097  11.404   2.180  0.00  0.00    +0.300 C 
BRANCH  21  22
ATOM     22  N   LIG    1        3.434  11.835   2.595  0.00  0.00    -0.620 N 
ATOM     23  C   LIG    1        3.831  12.080   3.986  0.00  0.00    +0.250 C 
ATOM     24  C   LIG    1        5.377  12.072   3.980  0.00  0.00    +0.040 C 
ATOM     25  C   LIG    1        5.686  12.481   2.521  0.00  0.00    +0.050 C 
ATOM     26  C   LIG    1        4.455  12.061   1.749  0.00  0.00    +0.520 C 
ATOM     27  O   LIG    1        4.396  11.946   0.543  0.00  0.00    -0.530 OA
ENDBRANCH  21  22
ENDBRANCH  20  21
ENDBRANCH  19  20
ENDBRANCH  16  19
ENDBRANCH   8  15
TORSDOF 5
