REMARK  Name = ZINCqH0000007aeq.0
REMARK                            x       y       z     vdW  Elec       q    Type
REMARK                         _______ _______ _______ _____ _____    ______ ____
ROOT
ATOM      1  N   LIG    1        0.718  -1.830   1.509  0.00  0.00    -0.620 N 
ATOM      2  C   LIG    1        0.598  -0.505   1.292  0.00  0.00    +0.520 C 
ATOM      3  O   LIG    1        0.970   0.283   2.135  0.00  0.00    -0.510 OA
ATOM      4  C   LIG    1        0.269  -2.783   0.490  0.00  0.00    +0.270 C 
ENDROOT
BRANCH   1   5
ATOM      5  C   LIG    1        1.298  -2.318   2.763  0.00  0.00    +0.350 C 
BRANCH   5   9
ATOM      6  C   LIG    1       -1.806  -2.848   5.655  0.00  0.00    +0.100 A 
ATOM      7  C   LIG    1       -1.150  -1.631   5.554  0.00  0.00    -0.040 A 
ATOM      8  C   LIG    1       -0.143  -1.464   4.622  0.00  0.00    +0.080 A 
ATOM      9  C   LIG    1        0.203  -2.506   3.782  0.00  0.00    -0.120 A 
ATOM     10  C   LIG    1       -0.448  -3.722   3.879  0.00  0.00    +0.040 A 
ATOM     11  C   LIG    1       -1.452  -3.896   4.814  0.00  0.00    +0.060 A 
ATOM     12  F   LIG    1       -2.089  -5.084   4.909  0.00  0.00    -0.130 F 
BRANCH   6  14
ATOM     13  C   LIG    1       -3.102  -1.896   7.406  0.00  0.00    +0.250 C 
ATOM     14  O   LIG    1       -2.792  -3.016   6.575  0.00  0.00    -0.310 OA
ENDBRANCH   6  14
ENDBRANCH   5   9
ENDBRANCH   1   5
BRANCH   2  15
ATOM     15  C   LIG    1        0.002  -0.004   0.002  0.00  0.00    +0.210 C 
BRANCH  15  16
ATOM     16  N   LIG    1       -0.018   1.465   0.010  0.00  0.00    -0.510 NA
ATOM     17  C   LIG    1        1.346   2.010   0.000  0.00  0.00    +0.200 C 
BRANCH  16  18
ATOM     18  C   LIG    1       -0.802   1.987  -1.117  0.00  0.00    +0.240 C 
BRANCH  18  19
ATOM     19  C   LIG    1       -1.007   3.470  -0.943  0.00  0.00    -0.110 A 
ATOM     20  C   LIG    1       -0.089   4.362  -1.468  0.00  0.00    +0.120 A 
ATOM     21  C   LIG    1       -0.279   5.725  -1.308  0.00  0.00    -0.010 A 
ATOM     22  C   LIG    1       -1.384   6.192  -0.623  0.00  0.00    +0.060 A 
ATOM     23  C   LIG    1       -2.301   5.301  -0.098  0.00  0.00    +0.020 A 
ATOM     24  F   LIG    1        0.992   3.905  -2.138  0.00  0.00    -0.130 F 
ATOM     25  C   LIG    1       -2.116   3.939  -0.262  0.00  0.00    +0.010 A 
ATOM     26 CL   LIG    1       -3.271   2.821   0.392  0.00  0.00    -0.050 Cl
ENDBRANCH  18  19
ENDBRANCH  16  18
ENDBRANCH  15  16
ENDBRANCH   2  15
TORSDOF 7
