REMARK  Name = ZINCvU00000004Zi.0
REMARK                            x       y       z     vdW  Elec       q    Type
REMARK                         _______ _______ _______ _____ _____    ______ ____
ROOT
ATOM      1  C   LIG    1        1.197  -0.430  -0.219  0.00  0.00    +0.170 A 
ATOM      2  N   LIG    1        0.042  -0.010   0.247  0.00  0.00    -0.290 NA
ATOM      3  N   LIG    1        0.055   1.269   0.371  0.00  0.00    -0.260 NA
ATOM      4  C   LIG    1        1.218   1.744  -0.009  0.00  0.00    +0.220 A 
ATOM      5  N   LIG    1        1.985   0.670  -0.399  0.00  0.00    -0.450 N 
ENDROOT
BRANCH   5   6
ATOM      6  C   LIG    1        3.361   0.702  -0.901  0.00  0.00    +0.240 C 
ATOM      7  C   LIG    1        4.281  -0.020   0.086  0.00  0.00    +0.010 C 
ATOM      8  C   LIG    1        5.718   0.012  -0.439  0.00  0.00    +0.040 C 
ATOM      9  C   LIG    1        5.780  -0.686  -1.799  0.00  0.00    +0.010 C 
ATOM     10  C   LIG    1        4.860   0.035  -2.786  0.00  0.00    +0.040 C 
ATOM     11  C   LIG    1        3.423   0.003  -2.261  0.00  0.00    -0.020 C 
ATOM     12  C   LIG    1        2.503   0.725  -3.248  0.00  0.00    +0.030 C 
ENDBRANCH   5   6
BRANCH   4  13
ATOM     13  C   LIG    1        1.627   3.165  -0.017  0.00  0.00    -0.070 A 
ATOM     14  C   LIG    1        2.963   3.522   0.194  0.00  0.00    +0.070 A 
ATOM     15  C   LIG    1        3.294   4.866   0.177  0.00  0.00    -0.030 A 
ATOM     16  C   LIG    1        2.302   5.804  -0.046  0.00  0.00    +0.270 A 
ATOM     17  N   LIG    1        1.050   5.438  -0.242  0.00  0.00    -0.480 NA
ATOM     18  C   LIG    1        0.687   4.172  -0.241  0.00  0.00    +0.320 A 
ENDBRANCH   4  13
BRANCH   1  19
ATOM     19  S   LIG    1        1.645  -2.102  -0.551  0.00  0.00    +0.020 S 
BRANCH  19  20
ATOM     20  C   LIG    1        0.113  -2.938  -0.072  0.00  0.00    +0.160 C 
BRANCH  20  26
ATOM     21  C   LIG    1       -0.082  -4.995  -1.496  0.00  0.00    +0.180 A 
ATOM     22  C   LIG    1        0.061  -6.364  -1.694  0.00  0.00    -0.080 A 
ATOM     23  C   LIG    1        0.540  -7.160  -0.679  0.00  0.00    +0.120 A 
ATOM     24  C   LIG    1        0.886  -6.585   0.550  0.00  0.00    -0.210 A 
ATOM     25  C   LIG    1        0.743  -5.205   0.738  0.00  0.00    +0.140 A 
ATOM     26  C   LIG    1        0.267  -4.424  -0.277  0.00  0.00    -0.130 A 
BRANCH  24  27
ATOM     27  C   LIG    1        1.399  -7.427   1.639  0.00  0.00    +0.400 C 
ATOM     28  O   LIG    1        1.698  -6.927   2.703  0.00  0.00    -0.460 OA
ATOM     29  C   LIG    1        1.552  -8.912   1.435  0.00  0.00    +0.080 C 
ENDBRANCH  24  27
BRANCH  21  31
ATOM     30  C   LIG    1       -0.898  -4.863  -3.723  0.00  0.00    +0.250 C 
ATOM     31  O   LIG    1       -0.559  -4.213  -2.497  0.00  0.00    -0.300 OA
ENDBRANCH  21  31
ENDBRANCH  20  26
ENDBRANCH  19  20
ENDBRANCH   1  19
TORSDOF 7
