REMARK  Name = ZINCpe000027pGYw.0
REMARK                            x       y       z     vdW  Elec       q    Type
REMARK                         _______ _______ _______ _____ _____    ______ ____
ROOT
ATOM      1  C   LIG    1       -1.193   2.119   0.004  0.00  0.00    +0.590 C 
ATOM      2  N   LIG    1       -0.016   1.462  -0.025  0.00  0.00    -0.700 N 
ATOM      3  H   LIG    1        0.817   1.958  -0.038  0.00  0.00    +0.420 HD
ATOM      4  O   LIG    1       -2.237   1.496   0.016  0.00  0.00    -0.550 OA
ENDROOT
BRANCH   1  10
ATOM      5  C   LIG    1       -3.721   6.447  -0.145  0.00  0.00    +0.100 C 
ATOM      6  C   LIG    1       -2.432   5.672  -0.052  0.00  0.00    -0.140 A 
ATOM      7  C   LIG    1       -1.219   6.326   0.053  0.00  0.00    +0.050 A 
ATOM      8  C   LIG    1       -0.048   5.584   0.137  0.00  0.00    +0.200 A 
ATOM      9  N   LIG    1       -0.074   4.271   0.124  0.00  0.00    -0.420 NA
ATOM     10  C   LIG    1       -1.213   3.596   0.020  0.00  0.00    -0.030 A 
ATOM     11  C   LIG    1       -2.435   4.276  -0.069  0.00  0.00    +0.240 A 
BRANCH  11  12
ATOM     12  N   LIG    1       -3.628   3.574  -0.172  0.00  0.00    -0.850 N 
ATOM     13  H   LIG    1       -4.461   4.051  -0.312  0.00  0.00    +0.390 HD
ATOM     14  H   LIG    1       -3.629   2.606  -0.105  0.00  0.00    +0.420 HD
ENDBRANCH  11  12
ENDBRANCH   1  10
BRANCH   2  15
ATOM     15  C   LIG    1        0.004  -0.003  -0.040  0.00  0.00    +0.240 C 
ATOM     16  C   LIG    1        0.405  -0.599  -1.400  0.00  0.00    +0.050 C 
ATOM     17  C   LIG    1        1.217  -1.643  -0.615  0.00  0.00    +0.080 C 
ATOM     18  C   LIG    1        1.303  -0.607   0.519  0.00  0.00    +0.050 C 
BRANCH  17  19
ATOM     19  C   LIG    1        2.550  -1.966  -1.240  0.00  0.00    +0.190 A 
ATOM     20  N   LIG    1        3.352  -1.123  -1.837  0.00  0.00    -0.290 NA
ATOM     21  N   LIG    1        4.407  -1.740  -2.242  0.00  0.00    -0.280 NA
ATOM     22  C   LIG    1        4.328  -2.997  -1.916  0.00  0.00    +0.170 A 
ATOM     23  C   LIG    1        5.350  -4.079  -2.149  0.00  0.00    +0.140 C 
ATOM     24  C   LIG    1        4.640  -5.326  -2.671  0.00  0.00    +0.230 C 
ATOM     25  O   LIG    1        4.186  -6.115  -1.574  0.00  0.00    -0.370 OA
ATOM     26  C   LIG    1        3.790  -5.370  -0.422  0.00  0.00    +0.230 C 
ATOM     27  C   LIG    1        2.620  -4.447  -0.778  0.00  0.00    +0.270 C 
ATOM     28  N   LIG    1        3.142  -3.178  -1.282  0.00  0.00    -0.470 N 
ENDBRANCH  17  19
ENDBRANCH   2  15
TORSDOF 4
