REMARK  Name = ZINCrH000004q5iu.0
REMARK                            x       y       z     vdW  Elec       q    Type
REMARK                         _______ _______ _______ _____ _____    ______ ____
ROOT
ATOM      1  C   LIG    1       -1.345   3.311   0.053  0.00  0.00    +0.370 C 
ENDROOT
BRANCH   1   7
ATOM      2  C   LIG    1       -2.859   4.348   2.569  0.00  0.00    +0.160 C 
ATOM      3  C   LIG    1       -3.321   4.410   1.137  0.00  0.00    +0.010 A 
ATOM      4  C   LIG    1       -4.494   4.934   0.674  0.00  0.00    +0.010 A 
ATOM      5  N   LIG    1       -4.477   4.771  -0.661  0.00  0.00    -0.240 NA
ATOM      6  N   LIG    1       -3.375   4.196  -0.994  0.00  0.00    -0.070 NA
ATOM      7  N   LIG    1       -2.659   3.957   0.048  0.00  0.00    -0.280 N 
BRANCH   4   8
ATOM      8  C   LIG    1       -5.571   5.558   1.482  0.00  0.00    +0.000 A 
ATOM      9  C   LIG    1       -5.250   6.407   2.539  0.00  0.00    +0.040 A 
ATOM     10  C   LIG    1       -6.255   6.988   3.284  0.00  0.00    +0.030 A 
ATOM     11  C   LIG    1       -7.581   6.720   2.990  0.00  0.00    -0.030 A 
ATOM     12  C   LIG    1       -7.905   5.873   1.945  0.00  0.00    +0.030 A 
ATOM     13 CL   LIG    1       -8.841   7.450   3.935  0.00  0.00    -0.070 Cl
ATOM     14  C   LIG    1       -6.907   5.291   1.190  0.00  0.00    +0.060 A 
ENDBRANCH   4   8
ENDBRANCH   1   7
BRANCH   1  15
ATOM     15  C   LIG    1       -1.518   1.821   0.202  0.00  0.00    +0.500 C 
ATOM     16  N   LIG    1       -0.437   1.016   0.232  0.00  0.00    -0.720 N 
ATOM     17  H   LIG    1        0.452   1.395   0.154  0.00  0.00    +0.410 HD
ATOM     18  O   LIG    1       -2.630   1.346   0.294  0.00  0.00    -0.510 OA
BRANCH  16  19
ATOM     19  C   LIG    1       -0.606  -0.432   0.376  0.00  0.00    +0.260 C 
BRANCH  19  20
ATOM     20  C   LIG    1        0.766  -1.108   0.375  0.00  0.00    +0.030 C 
BRANCH  20  21
ATOM     21  C   LIG    1        0.590  -2.620   0.526  0.00  0.00    +0.170 C 
BRANCH  21  22
ATOM     22  O   LIG    1        1.872  -3.252   0.524  0.00  0.00    -0.380 OA
BRANCH  22  23
ATOM     23  C   LIG    1        1.820  -4.673   0.661  0.00  0.00    +0.150 C 
ATOM     24  C   LIG    1        1.869  -5.045   2.144  0.00  0.00    -0.010 C 
ATOM     25  C   LIG    1        1.813  -6.567   2.290  0.00  0.00    +0.010 C 
ATOM     26  C   LIG    1        3.007  -7.193   1.567  0.00  0.00    +0.000 C 
ATOM     27  C   LIG    1        2.958  -6.821   0.084  0.00  0.00    +0.010 C 
ATOM     28  C   LIG    1        3.014  -5.299  -0.062  0.00  0.00    +0.020 C 
ENDBRANCH  22  23
ENDBRANCH  21  22
ENDBRANCH  20  21
ENDBRANCH  19  20
ENDBRANCH  16  19
ENDBRANCH   1  15
TORSDOF 8
