REMARK  Name = ZINCrD00000F5LjO.0
REMARK                            x       y       z     vdW  Elec       q    Type
REMARK                         _______ _______ _______ _____ _____    ______ ____
ROOT
ATOM      1  C   LIG    1       10.670   6.114   0.104  0.00  0.00    +0.200 C 
ATOM      2  C   LIG    1       10.010   5.369   1.236  0.00  0.00    +0.180 A 
ATOM      3  N   LIG    1       10.615   4.768   2.228  0.00  0.00    -0.290 NA
ATOM      4  N   LIG    1        9.741   4.233   3.010  0.00  0.00    -0.290 NA
ATOM      5  C   LIG    1        8.547   4.468   2.553  0.00  0.00    +0.180 A 
ATOM      6  C   LIG    1        7.228   4.032   3.140  0.00  0.00    +0.180 C 
ATOM      7  C   LIG    1        6.111   4.879   2.515  0.00  0.00    +0.070 C 
ATOM      8  C   LIG    1        6.310   4.938   1.003  0.00  0.00    -0.110 C 
ATOM      9  C   LIG    1        7.580   5.681   0.590  0.00  0.00    +0.320 C 
ATOM     10  C   LIG    1        6.114   3.599   0.293  0.00  0.00    +0.320 C 
ATOM     11  N   LIG    1        4.684   3.929   0.183  0.00  0.00    -0.660 N 
ATOM     12  C   LIG    1        3.533   3.235   0.088  0.00  0.00    +0.740 C 
ATOM     13  N   LIG    1        2.358   3.889   0.000  0.00  0.00    -0.680 N 
ATOM     14  H   LIG    1        2.344   4.856  -0.072  0.00  0.00    +0.410 HD
ATOM     15  O   LIG    1        3.555   2.019   0.082  0.00  0.00    -0.560 OA
ATOM     16  C   LIG    1        5.064   5.351   0.215  0.00  0.00    +0.300 C 
ATOM     17  N   LIG    1        8.687   5.197   1.418  0.00  0.00    -0.470 N 
ENDROOT
BRANCH  13  18
ATOM     18  C   LIG    1        1.155   3.171   0.014  0.00  0.00    +0.160 A 
ATOM     19  C   LIG    1        1.050   2.004   0.760  0.00  0.00    +0.080 A 
ATOM     20  C   LIG    1       -0.137   1.298   0.772  0.00  0.00    +0.020 A 
ATOM     21  C   LIG    1       -1.220   1.750   0.038  0.00  0.00    +0.120 A 
ATOM     22  C   LIG    1       -1.119   2.917  -0.702  0.00  0.00    -0.170 A 
ATOM     23  F   LIG    1       -2.379   1.055   0.047  0.00  0.00    -0.120 F 
ATOM     24  C   LIG    1        0.066   3.625  -0.717  0.00  0.00    +0.060 A 
BRANCH  22  25
ATOM     25  C   LIG    1       -2.302   3.409  -1.496  0.00  0.00    +0.340 C 
ATOM     26  F   LIG    1       -1.961   3.469  -2.851  0.00  0.00    -0.190 F 
ATOM     27  F   LIG    1       -2.665   4.684  -1.049  0.00  0.00    -0.190 F 
ATOM     28  C   LIG    1       -3.478   2.449  -1.308  0.00  0.00    +0.080 C 
ENDBRANCH  22  25
ENDBRANCH  13  18
TORSDOF 2
