REMARK  Name = ZINCpe000027pGR2.0
REMARK                            x       y       z     vdW  Elec       q    Type
REMARK                         _______ _______ _______ _____ _____    ______ ____
ROOT
ATOM      1  C   LIG    1        0.034   1.665   0.018  0.00  0.00    +0.440 A 
ATOM      2  C   LIG    1        0.268   0.281  -0.041  0.00  0.00    -0.070 A 
ATOM      3  N   LIG    1       -0.521  -0.817  -0.132  0.00  0.00    -0.460 NA
ATOM      4  C   LIG    1        0.223  -1.885  -0.152  0.00  0.00    +0.480 A 
ATOM      5  N   LIG    1        1.539  -1.537  -0.076  0.00  0.00    -0.470 N 
ATOM      6  C   LIG    1        1.599  -0.169  -0.004  0.00  0.00    +0.300 A 
ATOM      7  N   LIG    1        2.580   0.724   0.085  0.00  0.00    -0.540 NA
ATOM      8  C   LIG    1        2.312   2.012   0.137  0.00  0.00    +0.540 A 
ATOM      9  N   LIG    1        1.079   2.481   0.106  0.00  0.00    -0.560 NA
ENDROOT
BRANCH   1  10
ATOM     10  N   LIG    1       -1.256   2.167  -0.020  0.00  0.00    -0.460 N 
BRANCH  10  11
ATOM     11  C   LIG    1       -1.252   3.634   0.056  0.00  0.00    +0.190 C 
ATOM     12  C   LIG    1       -2.701   4.179   0.079  0.00  0.00    +0.020 C 
ATOM     13  C   LIG    1       -2.531   5.626  -0.446  0.00  0.00    +0.010 C 
ATOM     14  C   LIG    1       -1.454   5.505  -1.544  0.00  0.00    -0.030 C 
ATOM     15  C   LIG    1       -0.543   6.734  -1.522  0.00  0.00    +0.020 C 
ATOM     16  C   LIG    1       -0.641   4.239  -1.225  0.00  0.00    +0.030 C 
ENDBRANCH  10  11
BRANCH  10  17
ATOM     17  C   LIG    1       -2.078   1.586   1.050  0.00  0.00    +0.270 C 
BRANCH  17  18
ATOM     18  C   LIG    1       -1.376   1.781   2.395  0.00  0.00    +0.130 C 
BRANCH  18  20
ATOM     19  C   LIG    1       -0.693   3.466   3.957  0.00  0.00    +0.200 C 
ATOM     20  O   LIG    1       -1.332   3.174   2.712  0.00  0.00    -0.380 OA
ENDBRANCH  18  20
ENDBRANCH  17  18
ENDBRANCH  10  17
ENDBRANCH   1  10
BRANCH   5  21
ATOM     21  C   LIG    1        2.679  -2.457  -0.070  0.00  0.00    +0.290 C 
BRANCH  21  22
ATOM     22  C   LIG    1        3.090  -2.752   1.374  0.00  0.00    +0.200 C 
BRANCH  22  23
ATOM     23  O   LIG    1        3.568  -1.553   1.987  0.00  0.00    -0.540 OA
ATOM     24  H   LIG    1        4.336  -1.165   1.545  0.00  0.00    +0.380 HD
ENDBRANCH  22  23
BRANCH  22  25
ATOM     25  C   LIG    1        4.198  -3.807   1.383  0.00  0.00    +0.160 C 
BRANCH  25  26
ATOM     26  O   LIG    1        4.501  -4.167   2.733  0.00  0.00    -0.560 OA
ATOM     27  H   LIG    1        5.196  -4.833   2.815  0.00  0.00    +0.380 HD
ENDBRANCH  25  26
ENDBRANCH  22  25
ENDBRANCH  21  22
ENDBRANCH   5  21
TORSDOF 10
