REMARK  Name = ZINCfA000000yxk0.0
REMARK                            x       y       z     vdW  Elec       q    Type
REMARK                         _______ _______ _______ _____ _____    ______ ____
ROOT
ATOM      1  N   LIG    1       -4.645   1.300   3.124  0.00  0.00    -0.390 N 
ATOM      2  C   LIG    1       -4.633   0.284   2.063  0.00  0.00    +0.330 C 
ATOM      3  H   LIG    1       -4.168   0.941   3.938  0.00  0.00    +0.420 HD
ENDROOT
BRANCH   1   4
ATOM      4  C   LIG    1       -3.963   2.511   2.651  0.00  0.00    +0.400 C 
BRANCH   4   9
ATOM      5  C   LIG    1       -0.013   1.086   0.008  0.00  0.00    +0.150 C 
ATOM      6  C   LIG    1       -0.718   1.572   1.248  0.00  0.00    +0.070 A 
ATOM      7  C   LIG    1       -0.078   1.816   2.395  0.00  0.00    -0.030 A 
ATOM      8  S   LIG    1       -1.268   2.361   3.575  0.00  0.00    +0.190 S 
ATOM      9  C   LIG    1       -2.508   2.207   2.408  0.00  0.00    -0.060 A 
ATOM     10  N   LIG    1       -2.016   1.796   1.288  0.00  0.00    -0.430 NA
ENDBRANCH   4   9
ENDBRANCH   1   4
BRANCH   1  11
ATOM     11  C   LIG    1       -6.034   1.625   3.475  0.00  0.00    +0.250 C 
BRANCH  11  12
ATOM     12  C   LIG    1       -6.708   0.393   4.084  0.00  0.00    +0.030 C 
BRANCH  12  13
ATOM     13  C   LIG    1       -8.155   0.732   4.449  0.00  0.00    +0.040 C 
BRANCH  13  14
ATOM     14  C   LIG    1       -8.828  -0.499   5.059  0.00  0.00    +0.000 C 
BRANCH  14  15
ATOM     15  C   LIG    1      -10.275  -0.161   5.424  0.00  0.00    +0.220 C 
ATOM     16  F   LIG    1      -10.891  -1.287   5.981  0.00  0.00    -0.210 F 
ENDBRANCH  14  15
ENDBRANCH  13  14
ENDBRANCH  12  13
ENDBRANCH  11  12
ENDBRANCH   1  11
TORSDOF 7
