REMARK  Name = ZINCrg00000SjSC5.0
REMARK                            x       y       z     vdW  Elec       q    Type
REMARK                         _______ _______ _______ _____ _____    ______ ____
ROOT
ATOM      1  N   LIG    1       -3.488   3.179   0.936  0.00  0.00    -0.720 N 
ATOM      2  H   LIG    1       -3.378   2.232   1.116  0.00  0.00    +0.400 HD
ATOM      3  C   LIG    1       -4.500   3.860   1.508  0.00  0.00    +0.500 C 
ATOM      4  O   LIG    1       -4.638   5.044   1.284  0.00  0.00    -0.520 OA
ENDROOT
BRANCH   1   6
ATOM      5  C   LIG    1       -3.132   3.906  -1.371  0.00  0.00    +0.040 C 
ATOM      6  C   LIG    1       -2.553   3.869   0.044  0.00  0.00    +0.290 C 
BRANCH   6   7
ATOM      7  C   LIG    1       -1.238   3.133   0.029  0.00  0.00    -0.030 A 
ATOM      8  C   LIG    1       -1.219   1.751   0.017  0.00  0.00    -0.010 A 
ATOM      9  C   LIG    1       -0.013   1.076   0.008  0.00  0.00    +0.140 A 
ATOM     10  C   LIG    1        1.175   1.783   0.000  0.00  0.00    -0.680 A 
ATOM     11  C   LIG    1        1.156   3.165   0.008  0.00  0.00    +0.140 A 
ATOM     12  C   LIG    1       -0.050   3.840   0.022  0.00  0.00    +0.010 A 
BRANCH  10  13
ATOM     13  S   LIG    1        2.713   0.923  -0.018  0.00  0.00    +2.700 S 
ATOM     14  O   LIG    1        2.458  -0.366   0.522  0.00  0.00    -0.960 OA
ATOM     15  O   LIG    1        3.678   1.815   0.522  0.00  0.00    -0.960 OA
BRANCH  13  16
ATOM     16  N   LIG    1        3.126   0.692  -1.605  0.00  0.00    -1.250 NA
ATOM     17  H   LIG    1        3.949   0.231  -1.830  0.00  0.00    +0.420 HD
ATOM     18  H   LIG    1        2.544   1.017  -2.310  0.00  0.00    +0.420 HD
ENDBRANCH  13  16
ENDBRANCH  10  13
ENDBRANCH   6   7
ENDBRANCH   1   6
BRANCH   3  19
ATOM     19  C   LIG    1       -5.462   3.151   2.426  0.00  0.00    +0.420 C 
BRANCH  19  20
ATOM     20  N   LIG    1       -6.463   4.103   2.914  0.00  0.00    -0.440 N 
ATOM     21  N   LIG    1       -6.373   4.889   4.073  0.00  0.00    -0.250 NA
ATOM     22  C   LIG    1       -7.463   5.601   4.155  0.00  0.00    +0.330 A 
ATOM     23  O   LIG    1       -8.258   5.312   3.101  0.00  0.00    -0.260 OA
ATOM     24  C   LIG    1       -7.646   4.395   2.333  0.00  0.00    +0.620 A 
ATOM     25  O   LIG    1       -8.079   3.915   1.302  0.00  0.00    -0.470 OA
BRANCH  22  26
ATOM     26  C   LIG    1       -7.777   6.563   5.223  0.00  0.00    -0.170 A 
ATOM     27  C   LIG    1       -8.908   7.298   5.304  0.00  0.00    +0.090 A 
ATOM     28  C   LIG    1       -8.975   8.131   6.400  0.00  0.00    +0.010 A 
ATOM     29  C   LIG    1       -7.915   8.086   7.213  0.00  0.00    -0.010 A 
ATOM     30  S   LIG    1       -6.742   6.929   6.597  0.00  0.00    +0.210 S 
ENDBRANCH  22  26
ENDBRANCH  19  20
ENDBRANCH   3  19
TORSDOF 7
