REMARK  Name = ZINCqH00000h2LZ9.0
REMARK                            x       y       z     vdW  Elec       q    Type
REMARK                         _______ _______ _______ _____ _____    ______ ____
ROOT
ATOM      1  C   LIG    1        3.533   2.135   1.062  0.00  0.00    +0.050 C 
ATOM      2  C   LIG    1        2.218   1.353   1.040  0.00  0.00    +0.180 C 
ATOM      3  C   LIG    1        1.317   1.891  -0.079  0.00  0.00    +0.040 C 
ATOM      4  C   LIG    1       -0.054   1.227   0.059  0.00  0.00    +0.040 C 
ATOM      5  C   LIG    1        0.118  -0.259   0.246  0.00  0.00    -0.110 A 
ATOM      6  C   LIG    1       -0.987  -1.074   0.062  0.00  0.00    +0.010 A 
ATOM      7  C   LIG    1       -0.886  -2.441   0.227  0.00  0.00    -0.010 A 
ATOM      8  C   LIG    1        0.327  -3.004   0.579  0.00  0.00    +0.010 A 
ATOM      9  C   LIG    1        1.432  -2.201   0.762  0.00  0.00    +0.020 A 
ATOM     10  C   LIG    1        1.336  -0.818   0.594  0.00  0.00    +0.140 A 
ATOM     11  N   LIG    1        2.492  -0.062   0.780  0.00  0.00    -0.490 N 
ENDROOT
BRANCH   4  12
ATOM     12  C   LIG    1       -0.773   1.803   1.252  0.00  0.00    +0.530 C 
ATOM     13  O   LIG    1       -0.239   2.658   1.927  0.00  0.00    -0.540 OA
ATOM     14  N   LIG    1       -2.009   1.369   1.568  0.00  0.00    -0.850 N 
ATOM     15  H   LIG    1       -2.472   1.740   2.336  0.00  0.00    +0.400 HD
ATOM     16  H   LIG    1       -2.436   0.685   1.028  0.00  0.00    +0.400 HD
ENDBRANCH   4  12
BRANCH  11  17
ATOM     17  C   LIG    1        3.412  -0.220  -0.354  0.00  0.00    +0.260 C 
BRANCH  17  18
ATOM     18  C   LIG    1        3.970  -1.620  -0.357  0.00  0.00    -0.030 A 
ATOM     19  C   LIG    1        5.112  -1.901   0.326  0.00  0.00    +0.020 A 
ATOM     20  C   LIG    1        5.646  -3.191   0.336  0.00  0.00    +0.110 A 
ATOM     21  C   LIG    1        5.034  -4.205  -0.340  0.00  0.00    +0.000 A 
ATOM     22  C   LIG    1        3.853  -3.950  -1.055  0.00  0.00    -0.080 A 
ATOM     23  C   LIG    1        3.192  -4.969  -1.765  0.00  0.00    +0.080 A 
ATOM     24  C   LIG    1        2.047  -4.647  -2.438  0.00  0.00    -0.020 A 
ATOM     25  C   LIG    1        1.567  -3.339  -2.407  0.00  0.00    +0.290 A 
ATOM     26  N   LIG    1        2.186  -2.393  -1.745  0.00  0.00    -0.450 NA
ATOM     27  F   LIG    1        6.782  -3.438   1.024  0.00  0.00    -0.130 F 
ATOM     28  C   LIG    1        3.308  -2.642  -1.061  0.00  0.00    +0.130 A 
ENDBRANCH  17  18
ENDBRANCH  11  17
TORSDOF 3
