REMARK  Name = ZINCb80000001CMf.0
REMARK                            x       y       z     vdW  Elec       q    Type
REMARK                         _______ _______ _______ _____ _____    ______ ____
ROOT
ATOM      1  O   LIG    1       -1.165  -0.701   0.010  0.00  0.00    -0.670 OA
ENDROOT
BRANCH   1   2
ATOM      2  C   LIG    1        0.002  -0.004   0.002  0.00  0.00    +0.060 A 
ATOM      3  C   LIG    1       -0.017   1.383   0.010  0.00  0.00    +0.050 A 
ATOM      4  C   LIG    1        1.171   2.089   0.002  0.00  0.00    +0.040 A 
ATOM      5  C   LIG    1        2.377   1.414  -0.013  0.00  0.00    +0.040 A 
ATOM      6  C   LIG    1        2.399   0.031  -0.021  0.00  0.00    +0.040 A 
ATOM      7  C   LIG    1        1.214  -0.679  -0.013  0.00  0.00    +0.010 A 
ENDBRANCH   1   2
BRANCH   1   8
ATOM      8  S   LIG    1       -1.710  -1.010  -1.377  0.00  0.00    +2.780 S 
ATOM      9  O   LIG    1       -1.457   0.139  -2.174  0.00  0.00    -0.970 OA
ATOM     10  O   LIG    1       -3.010  -1.553  -1.185  0.00  0.00    -0.950 OA
BRANCH   8  11
ATOM     11  N   LIG    1       -0.783  -2.230  -2.007  0.00  0.00    -1.270 NA
ATOM     12  H   LIG    1       -0.973  -2.574  -2.894  0.00  0.00    +0.430 HD
ATOM     13  H   LIG    1       -0.051  -2.599  -1.489  0.00  0.00    +0.410 HD
ENDBRANCH   8  11
ENDBRANCH   1   8
TORSDOF 3
