REMARK  Name = ZINC650000002ryy.0
REMARK                            x       y       z     vdW  Elec       q    Type
REMARK                         _______ _______ _______ _____ _____    ______ ____
ROOT
ATOM      1  C   LIG    1       -0.735   2.019   1.269  0.00  0.00    +0.110 C 
ATOM      2  C   LIG    1       -0.019   1.526   0.010  0.00  0.00    +0.180 C 
ENDROOT
BRANCH   2   3
ATOM      3  N   LIG    1        1.359   2.034   0.000  0.00  0.00    -0.630 N 
ATOM      4  H   LIG    1        1.847   1.700   0.817  0.00  0.00    +0.440 HD
ATOM      5  H   LIG    1        1.346   3.043   0.005  0.00  0.00    +0.460 HD
ATOM      6  H   LIG    1        1.832   1.709  -0.830  0.00  0.00    +0.450 HD
ENDBRANCH   2   3
BRANCH   2   7
ATOM      7  C   LIG    1        0.002  -0.004   0.002  0.00  0.00    +0.180 C 
ATOM      8  C   LIG    1        0.848  -0.509   1.173  0.00  0.00    +0.110 C 
BRANCH   7   9
ATOM      9  N   LIG    1       -1.370  -0.513   0.133  0.00  0.00    -0.630 N 
ATOM     10  H   LIG    1       -1.768  -0.187   1.001  0.00  0.00    +0.440 HD
ATOM     11  H   LIG    1       -1.356  -1.522   0.128  0.00  0.00    +0.460 HD
ATOM     12  H   LIG    1       -1.927  -0.180  -0.639  0.00  0.00    +0.450 HD
ENDBRANCH   7   9
ENDBRANCH   2   7
TORSDOF 3
