REMARK  Name = ZINC650000002ryy.1
REMARK                            x       y       z     vdW  Elec       q    Type
REMARK                         _______ _______ _______ _____ _____    ______ ____
ROOT
ATOM      1  C   LIG    1       -0.729   1.579   1.267  0.00  0.00    +0.180 C 
ATOM      2  C   LIG    1       -0.013   1.086   0.008  0.00  0.00    +0.090 C 
ENDROOT
BRANCH   1   3
ATOM      3  N   LIG    1       -0.018   1.093   2.457  0.00  0.00    -0.640 N 
ATOM      4  H   LIG    1        0.928   1.442   2.450  0.00  0.00    +0.430 HD
ATOM      5  H   LIG    1       -0.005   0.084   2.451  0.00  0.00    +0.440 HD
ATOM      6  H   LIG    1       -0.491   1.418   3.287  0.00  0.00    +0.430 HD
ENDBRANCH   1   3
BRANCH   1   8
ATOM      7  C   LIG    1       -1.466   3.603   2.534  0.00  0.00    +0.010 C 
ATOM      8  C   LIG    1       -0.750   3.109   1.275  0.00  0.00    +0.190 C 
BRANCH   8   9
ATOM      9  N   LIG    1        0.629   3.618   1.265  0.00  0.00    -0.840 NA
ATOM     10  H   LIG    1        1.139   3.296   2.074  0.00  0.00    +0.330 HD
ATOM     11  H   LIG    1        0.642   4.625   1.205  0.00  0.00    +0.370 HD
ENDBRANCH   8   9
ENDBRANCH   1   8
TORSDOF 3
