REMARK  Name = ZINCnE000001KM4P.0
REMARK                            x       y       z     vdW  Elec       q    Type
REMARK                         _______ _______ _______ _____ _____    ______ ____
ROOT
ATOM      1  C   LIG    1        1.173   2.090   0.002  0.00  0.00    +0.080 A 
ATOM      2  C   LIG    1       -0.017   1.377   0.010  0.00  0.00    -0.090 A 
ATOM      3  C   LIG    1        0.002  -0.004   0.002  0.00  0.00    +0.120 A 
ATOM      4  C   LIG    1        1.225  -0.687  -0.013  0.00  0.00    -0.160 A 
ATOM      5  C   LIG    1        2.425   0.035  -0.021  0.00  0.00    +0.040 A 
ATOM      6  F   LIG    1       -1.158  -0.696   0.009  0.00  0.00    -0.120 F 
ATOM      7  C   LIG    1        2.396   1.416  -0.013  0.00  0.00    +0.160 A 
ENDROOT
BRANCH   4   8
ATOM      8  C   LIG    1        1.249  -2.157  -0.021  0.00  0.00    +0.520 C 
ATOM      9  O   LIG    1        0.200  -2.786  -0.014  0.00  0.00    -0.670 OA
ATOM     10  O   LIG    1        2.318  -2.752  -0.034  0.00  0.00    -0.690 OA
ENDBRANCH   4   8
BRANCH   1  12
ATOM     11  C   LIG    1       -0.137   4.073   0.025  0.00  0.00    +0.220 C 
ATOM     12  O   LIG    1        1.148   3.447   0.010  0.00  0.00    -0.320 OA
ENDBRANCH   1  12
BRANCH   7  13
ATOM     13  N   LIG    1        3.595   2.141  -0.021  0.00  0.00    -0.750 N 
ATOM     14  H   LIG    1        3.575   3.111  -0.015  0.00  0.00    +0.400 HD
BRANCH  13  15
ATOM     15  C   LIG    1        4.879   1.435  -0.037  0.00  0.00    +0.400 C 
BRANCH  15  16
ATOM     16  C   LIG    1        6.004   2.437  -0.042  0.00  0.00    -0.060 A 
ATOM     17  C   LIG    1        6.610   2.962   1.036  0.00  0.00    +0.170 A 
ATOM     18  N   LIG    1        7.556   3.811   0.598  0.00  0.00    -0.480 NA
ATOM     19  C   LIG    1        7.543   3.818  -0.704  0.00  0.00    +0.200 A 
ATOM     20  O   LIG    1        6.595   2.971  -1.129  0.00  0.00    -0.190 OA
BRANCH  19  21
ATOM     21  C   LIG    1        8.448   4.636  -1.588  0.00  0.00    +0.030 C 
ATOM     22  C   LIG    1        8.243   6.123  -1.289  0.00  0.00    +0.060 C 
ATOM     23  C   LIG    1        8.115   4.360  -3.055  0.00  0.00    +0.040 C 
ATOM     24  C   LIG    1        9.905   4.258  -1.315  0.00  0.00    +0.060 C 
ENDBRANCH  19  21
ENDBRANCH  15  16
ENDBRANCH  13  15
ENDBRANCH   7  13
TORSDOF 6
