REMARK  Name = ZINCrD00000dTlyM.0
REMARK                            x       y       z     vdW  Elec       q    Type
REMARK                         _______ _______ _______ _____ _____    ______ ____
ROOT
ATOM      1  N   LIG    1        2.060  -1.840  -2.405  0.00  0.00    -0.450 N 
ATOM      2  C   LIG    1        2.189  -2.084  -3.753  0.00  0.00    +0.270 A 
ATOM      3  N   LIG    1        3.405  -2.540  -3.946  0.00  0.00    -0.280 NA
ATOM      4  N   LIG    1        4.037  -2.592  -2.829  0.00  0.00    -0.290 NA
ATOM      5  C   LIG    1        3.265  -2.173  -1.854  0.00  0.00    +0.340 A 
ENDROOT
BRANCH   5   6
ATOM      6  N   LIG    1        3.606  -2.090  -0.513  0.00  0.00    -0.450 N 
ATOM      7  C   LIG    1        4.515  -0.959  -0.270  0.00  0.00    +0.250 C 
ATOM      8  C   LIG    1        5.691  -1.063  -1.242  0.00  0.00    +0.050 C 
ATOM      9  C   LIG    1        6.280  -2.450  -1.190  0.00  0.00    -0.030 A 
ATOM     10  C   LIG    1        7.545  -2.649  -1.717  0.00  0.00    -0.020 A 
ATOM     11  C   LIG    1        8.123  -3.908  -1.693  0.00  0.00    +0.110 A 
ATOM     12  C   LIG    1        7.427  -4.973  -1.139  0.00  0.00    -0.020 A 
ATOM     13  C   LIG    1        6.167  -4.771  -0.616  0.00  0.00    +0.040 A 
ATOM     14  C   LIG    1        5.590  -3.509  -0.638  0.00  0.00    -0.110 A 
ATOM     15  C   LIG    1        4.215  -3.340  -0.048  0.00  0.00    +0.250 C 
ATOM     16  C   LIG    1        3.335  -4.518  -0.471  0.00  0.00    +0.040 C 
BRANCH  11  17
ATOM     17  O   LIG    1        9.363  -4.101  -2.215  0.00  0.00    -0.500 OA
ATOM     18  H   LIG    1       10.081  -3.977  -1.579  0.00  0.00    +0.390 HD
ENDBRANCH  11  17
ENDBRANCH   5   6
BRANCH   2  19
ATOM     19  C   LIG    1        1.153  -1.878  -4.787  0.00  0.00    +0.060 A 
ATOM     20  C   LIG    1        1.285  -2.127  -6.118  0.00  0.00    +0.200 A 
ATOM     21  N   LIG    1        0.093  -1.797  -6.699  0.00  0.00    -0.560 N 
ATOM     22  H   LIG    1       -0.124  -1.865  -7.642  0.00  0.00    +0.430 HD
ATOM     23  C   LIG    1       -0.729  -1.360  -5.719  0.00  0.00    +0.250 A 
ATOM     24  N   LIG    1       -0.098  -1.413  -4.580  0.00  0.00    -0.470 NA
BRANCH  23  25
ATOM     25  C   LIG    1       -2.148  -0.892  -5.912  0.00  0.00    +0.060 C 
ATOM     26  C   LIG    1       -2.591  -0.546  -7.335  0.00  0.00    +0.030 C 
ATOM     27  C   LIG    1       -2.362   0.569  -6.312  0.00  0.00    +0.060 C 
ENDBRANCH  23  25
ENDBRANCH   2  19
BRANCH   1  29
ATOM     28  C   LIG    1        0.867   0.201  -1.779  0.00  0.00    +0.040 C 
ATOM     29  C   LIG    1        0.878  -1.328  -1.708  0.00  0.00    +0.320 C 
ENDBRANCH   1  29
TORSDOF 5
