REMARK  Name = ZINCrH000004m1eF.0
REMARK                            x       y       z     vdW  Elec       q    Type
REMARK                         _______ _______ _______ _____ _____    ______ ____
ROOT
ATOM      1  N   LIG    1        0.563   1.189   3.188  0.00  0.00    -1.050 N 
ATOM      2  H   LIG    1        0.794   1.199   2.246  0.00  0.00    +0.430 HD
ENDROOT
BRANCH   1   3
ATOM      3  C   LIG    1       -0.775   1.262   3.580  0.00  0.00    +0.190 A 
ATOM      4  C   LIG    1       -1.185   0.667   4.765  0.00  0.00    -0.060 A 
ATOM      5  C   LIG    1       -2.516   0.742   5.151  0.00  0.00    +0.180 A 
ATOM      6  C   LIG    1       -3.433   1.413   4.351  0.00  0.00    +0.010 A 
ATOM      7  C   LIG    1       -3.020   2.009   3.175  0.00  0.00    +0.060 A 
ATOM      8  C   LIG    1       -1.698   1.932   2.785  0.00  0.00    -0.120 A 
ATOM      9  C   LIG    1       -1.253   2.579   1.499  0.00  0.00    +0.090 C 
BRANCH   5  10
ATOM     10  N   LIG    1       -2.934   0.143   6.344  0.00  0.00    -0.670 N 
ATOM     11  H   LIG    1       -2.535  -0.693   6.633  0.00  0.00    +0.410 HD
ATOM     12  C   LIG    1       -3.891   0.727   7.092  0.00  0.00    +0.540 C 
ATOM     13  O   LIG    1       -4.447   1.727   6.692  0.00  0.00    -0.510 OA
BRANCH  12  14
ATOM     14  C   LIG    1       -4.269   0.136   8.426  0.00  0.00    -0.070 C 
ATOM     15  C   LIG    1       -5.658  -0.495   8.551  0.00  0.00    +0.060 C 
ATOM     16  C   LIG    1       -5.362   0.845   9.228  0.00  0.00    +0.080 C 
ENDBRANCH  12  14
ENDBRANCH   5  10
ENDBRANCH   1   3
BRANCH   1  17
ATOM     17  S   LIG    1        1.757   1.084   4.331  0.00  0.00    +2.690 S 
ATOM     18  O   LIG    1        1.451   2.057   5.321  0.00  0.00    -0.940 OA
ATOM     19  O   LIG    1        2.989   1.056   3.624  0.00  0.00    -0.950 OA
BRANCH  17  23
ATOM     20  C   LIG    1        1.342  -2.955   6.336  0.00  0.00    +0.200 A 
ATOM     21  C   LIG    1        1.715  -2.877   5.002  0.00  0.00    -0.040 A 
ATOM     22  C   LIG    1        1.841  -1.643   4.393  0.00  0.00    +0.070 A 
ATOM     23  C   LIG    1        1.595  -0.488   5.111  0.00  0.00    -0.730 A 
ATOM     24  C   LIG    1        1.229  -0.563   6.442  0.00  0.00    +0.060 A 
ATOM     25  C   LIG    1        0.968   0.699   7.224  0.00  0.00    +0.120 C 
ATOM     26  C   LIG    1        2.245  -1.557   2.944  0.00  0.00    +0.110 C 
ATOM     27  C   LIG    1        1.096  -1.794   7.055  0.00  0.00    -0.100 A 
BRANCH  20  29
ATOM     28  C   LIG    1        0.829  -4.172   8.313  0.00  0.00    +0.250 C 
ATOM     29  O   LIG    1        1.217  -4.167   6.938  0.00  0.00    -0.310 OA
ENDBRANCH  20  29
ENDBRANCH  17  23
ENDBRANCH   1  17
TORSDOF 6
