REMARK  Name = ZINCrg000000oURx.0
REMARK                            x       y       z     vdW  Elec       q    Type
REMARK                         _______ _______ _______ _____ _____    ______ ____
ROOT
ATOM      1  C   LIG    1        0.305   8.285  -0.320  0.00  0.00    +0.510 C 
ATOM      2  N   LIG    1        1.456   7.596  -0.189  0.00  0.00    -0.680 N 
ATOM      3  H   LIG    1        2.300   8.070  -0.124  0.00  0.00    +0.410 HD
ATOM      4  O   LIG    1       -0.757   7.700  -0.305  0.00  0.00    -0.490 OA
ENDROOT
BRANCH   2   5
ATOM      5  C   LIG    1        1.433   6.196  -0.147  0.00  0.00    +0.120 A 
ATOM      6  C   LIG    1        0.483   5.495  -0.879  0.00  0.00    +0.050 A 
ATOM      7  C   LIG    1        0.460   4.115  -0.837  0.00  0.00    +0.010 A 
ATOM      8  C   LIG    1        1.387   3.428  -0.064  0.00  0.00    +0.090 A 
ATOM      9  C   LIG    1        2.333   4.129   0.672  0.00  0.00    -0.020 A 
ATOM     10  C   LIG    1        2.360   5.509   0.626  0.00  0.00    +0.010 A 
BRANCH   8  11
ATOM     11  N   LIG    1        1.364   2.030  -0.021  0.00  0.00    -0.490 N 
ATOM     12  C   LIG    1        2.426   1.511   0.853  0.00  0.00    +0.160 C 
ATOM     13  C   LIG    1        2.327  -0.015   0.917  0.00  0.00    +0.220 C 
ATOM     14  O   LIG    1        2.407  -0.549  -0.407  0.00  0.00    -0.380 OA
ATOM     15  C   LIG    1        1.387  -0.066  -1.285  0.00  0.00    +0.220 C 
ATOM     16  C   LIG    1        1.477   1.460  -1.372  0.00  0.00    +0.160 C 
ENDBRANCH   8  11
ENDBRANCH   2   5
BRANCH   1  17
ATOM     17  C   LIG    1        0.338   9.783  -0.484  0.00  0.00    +0.220 C 
BRANCH  17  19
ATOM     18  C   LIG    1       -1.782  10.095   0.643  0.00  0.00    +0.210 C 
ATOM     19  N   LIG    1       -1.034  10.293  -0.606  0.00  0.00    -0.510 NA
BRANCH  19  20
ATOM     20  C   LIG    1       -1.037  11.707  -1.003  0.00  0.00    +0.220 C 
BRANCH  20  21
ATOM     21  C   LIG    1       -2.441  12.127  -1.355  0.00  0.00    +0.520 C 
ATOM     22  N   LIG    1       -2.687  13.392  -1.751  0.00  0.00    -0.730 N 
ATOM     23  H   LIG    1       -1.960  14.032  -1.809  0.00  0.00    +0.410 HD
ATOM     24  O   LIG    1       -3.350  11.327  -1.283  0.00  0.00    -0.500 OA
BRANCH  22  25
ATOM     25  C   LIG    1       -4.052  13.800  -2.093  0.00  0.00    +0.320 C 
BRANCH  25  26
ATOM     26  C   LIG    1       -4.055  15.273  -2.507  0.00  0.00    +0.450 C 
ATOM     27  F   LIG    1       -3.586  16.056  -1.446  0.00  0.00    -0.180 F 
ATOM     28  F   LIG    1       -5.358  15.663  -2.834  0.00  0.00    -0.170 F 
ATOM     29  F   LIG    1       -3.223  15.447  -3.618  0.00  0.00    -0.180 F 
ENDBRANCH  25  26
ENDBRANCH  22  25
ENDBRANCH  20  21
ENDBRANCH  19  20
ENDBRANCH  17  19
ENDBRANCH   1  17
TORSDOF 8
