REMARK  Name = ZINCkj000018RAuv.1
REMARK                            x       y       z     vdW  Elec       q    Type
REMARK                         _______ _______ _______ _____ _____    ______ ____
ROOT
ATOM      1  C   LIG    1       -0.050   3.842   0.022  0.00  0.00    +0.140 A 
ATOM      2  C   LIG    1       -1.242   3.131   0.030  0.00  0.00    +0.060 A 
ATOM      3  C   LIG    1       -1.220   1.749   0.017  0.00  0.00    +0.060 A 
ATOM      4  C   LIG    1       -0.013   1.076   0.008  0.00  0.00    +0.050 A 
ATOM      5  C   LIG    1        1.176   1.782   0.000  0.00  0.00    -0.140 A 
ATOM      6  C   LIG    1        1.161   3.163   0.007  0.00  0.00    +0.060 A 
ENDROOT
BRANCH   1   9
ATOM      7  C   LIG    1       -0.739   7.308   0.048  0.00  0.00    -0.010 A 
ATOM      8  C   LIG    1       -1.182   6.029   0.039  0.00  0.00    +0.180 A 
ATOM      9  N   LIG    1       -0.069   5.245   0.030  0.00  0.00    -0.260 N 
ATOM     10  N   LIG    1        0.963   6.014   0.024  0.00  0.00    -0.080 NA
ATOM     11  N   LIG    1        0.598   7.247   0.034  0.00  0.00    -0.240 NA
BRANCH   7  12
ATOM     12  C   LIG    1       -1.585   8.555   0.062  0.00  0.00    +0.320 C 
BRANCH  12  13
ATOM     13  O   LIG    1       -2.967   8.192   0.073  0.00  0.00    -0.570 OA
ATOM     14  H   LIG    1       -3.571   8.947   0.082  0.00  0.00    +0.400 HD
ENDBRANCH  12  13
ENDBRANCH   7  12
ENDBRANCH   1   9
BRANCH   5  15
ATOM     15  C   LIG    1        2.490   1.044  -0.016  0.00  0.00    +0.340 C 
BRANCH  15  16
ATOM     16  N   LIG    1        2.904   0.812  -1.406  0.00  0.00    -0.400 N 
ATOM     17  C   LIG    1        4.143   0.004  -1.442  0.00  0.00    +0.270 C 
ATOM     18  C   LIG    1        4.980   0.514  -2.630  0.00  0.00    +0.070 C 
ATOM     19  C   LIG    1        4.156   1.672  -3.238  0.00  0.00    +0.210 C 
ATOM     20  F   LIG    1        3.392   1.221  -4.319  0.00  0.00    -0.190 F 
ATOM     21  C   LIG    1        3.240   2.101  -2.063  0.00  0.00    +0.260 C 
ATOM     22  H   LIG    1        2.169   0.344  -1.915  0.00  0.00    +0.430 HD
ENDBRANCH  15  16
ENDBRANCH   5  15
TORSDOF 5
