REMARK  Name = ZINCkj000018RAuv.2
REMARK                            x       y       z     vdW  Elec       q    Type
REMARK                         _______ _______ _______ _____ _____    ______ ____
ROOT
ATOM      1  C   LIG    1       -1.122  -0.843   0.008  0.00  0.00    +0.140 A 
ATOM      2  C   LIG    1       -2.397  -0.296   0.029  0.00  0.00    +0.060 A 
ATOM      3  C   LIG    1       -3.503  -1.124   0.029  0.00  0.00    +0.060 A 
ATOM      4  C   LIG    1       -3.340  -2.497   0.020  0.00  0.00    +0.050 A 
ATOM      5  C   LIG    1       -2.070  -3.045   0.005  0.00  0.00    -0.140 A 
ATOM      6  C   LIG    1       -0.961  -2.222  -0.001  0.00  0.00    +0.070 A 
ENDROOT
BRANCH   1   9
ATOM      7  C   LIG    1        1.279   1.749  -0.001  0.00  0.00    -0.010 A 
ATOM      8  C   LIG    1       -0.016   1.357   0.009  0.00  0.00    +0.180 A 
ATOM      9  N   LIG    1        0.002  -0.004   0.002  0.00  0.00    -0.260 N 
ATOM     10  N   LIG    1        1.231  -0.388  -0.012  0.00  0.00    -0.080 NA
ATOM     11  N   LIG    1        2.015   0.632  -0.014  0.00  0.00    -0.240 NA
BRANCH   7  12
ATOM     12  C   LIG    1        1.792   3.166   0.001  0.00  0.00    +0.320 C 
BRANCH  12  13
ATOM     13  O   LIG    1        0.688   4.072   0.016  0.00  0.00    -0.570 OA
ATOM     14  H   LIG    1        0.944   5.005   0.018  0.00  0.00    +0.400 HD
ENDBRANCH  12  13
ENDBRANCH   7  12
ENDBRANCH   1   9
BRANCH   5  15
ATOM     15  C   LIG    1       -1.896  -4.542  -0.004  0.00  0.00    +0.330 C 
BRANCH  15  16
ATOM     16  N   LIG    1       -1.827  -5.036   1.377  0.00  0.00    -0.390 N 
ATOM     17  C   LIG    1       -3.146  -4.883   2.043  0.00  0.00    +0.270 C 
ATOM     18  C   LIG    1       -3.080  -5.910   3.201  0.00  0.00    +0.080 C 
ATOM     19  C   LIG    1       -2.313  -7.095   2.569  0.00  0.00    +0.210 C 
ATOM     20  F   LIG    1       -3.212  -8.065   2.111  0.00  0.00    -0.180 F 
ATOM     21  C   LIG    1       -1.536  -6.486   1.387  0.00  0.00    +0.260 C 
ATOM     22  H   LIG    1       -1.117  -4.535   1.891  0.00  0.00    +0.430 HD
ENDBRANCH  15  16
ENDBRANCH   5  15
TORSDOF 5
