REMARK  Name = ZINCtV00000tRTEm.0
REMARK                            x       y       z     vdW  Elec       q    Type
REMARK                         _______ _______ _______ _____ _____    ______ ____
ROOT
ATOM      1  O   LIG    1       -4.149  -0.433   0.918  0.00  0.00    -0.550 OA
ATOM      2  C   LIG    1       -4.907   0.252   1.577  0.00  0.00    +0.700 C 
ATOM      3  N   LIG    1       -4.490   0.792   2.739  0.00  0.00    -0.620 N 
ATOM      4  C   LIG    1       -5.404   1.593   3.564  0.00  0.00    +0.260 C 
ATOM      5  C   LIG    1       -5.417   1.021   4.985  0.00  0.00    +0.020 C 
ATOM      6  C   LIG    1       -3.983   0.957   5.517  0.00  0.00    +0.010 C 
ATOM      7  C   LIG    1       -3.149   0.030   4.630  0.00  0.00    +0.020 C 
ATOM      8  C   LIG    1       -3.111   0.591   3.205  0.00  0.00    +0.240 C 
ATOM      9  N   LIG    1       -6.165   0.471   1.145  0.00  0.00    -0.690 N 
ATOM     10  H   LIG    1       -6.726   1.121   1.597  0.00  0.00    +0.400 HD
ENDROOT
BRANCH   8  11
ATOM     11  C   LIG    1       -2.397  -0.399   2.283  0.00  0.00    +0.030 C 
ATOM     12  C   LIG    1       -3.013  -1.791   2.450  0.00  0.00    -0.000 C 
ATOM     13  C   LIG    1       -2.242  -2.789   1.583  0.00  0.00    +0.200 C 
ATOM     14  O   LIG    1       -0.863  -2.777   1.957  0.00  0.00    -0.390 OA
ATOM     15  C   LIG    1       -0.221  -1.513   1.777  0.00  0.00    +0.210 C 
ATOM     16  C   LIG    1       -0.911  -0.463   2.652  0.00  0.00    -0.020 C 
ENDBRANCH   8  11
BRANCH   9  17
ATOM     17  C   LIG    1       -6.661  -0.239   0.046  0.00  0.00    +0.170 A 
ATOM     18  C   LIG    1       -5.805  -0.617  -0.980  0.00  0.00    +0.030 A 
ATOM     19  C   LIG    1       -6.292  -1.319  -2.067  0.00  0.00    +0.030 A 
ATOM     20  C   LIG    1       -7.631  -1.647  -2.139  0.00  0.00    +0.010 A 
ATOM     21  C   LIG    1       -8.497  -1.271  -1.114  0.00  0.00    -0.030 A 
ATOM     22  C   LIG    1       -8.007  -0.569  -0.016  0.00  0.00    -0.010 A 
BRANCH  21  23
ATOM     23  C   LIG    1       -9.936  -1.623  -1.189  0.00  0.00    -0.020 A 
ATOM     24  C   LIG    1      -10.426  -2.331  -2.284  0.00  0.00    +0.050 A 
ATOM     25  C   LIG    1      -11.766  -2.657  -2.350  0.00  0.00    +0.060 A 
ATOM     26  C   LIG    1      -12.623  -2.282  -1.331  0.00  0.00    -0.030 A 
ATOM     27  C   LIG    1      -12.141  -1.578  -0.239  0.00  0.00    -0.030 A 
ATOM     28 CL   LIG    1      -13.222  -1.111   1.037  0.00  0.00    -0.040 Cl
ATOM     29 CL   LIG    1      -14.307  -2.695  -1.420  0.00  0.00    -0.050 Cl
ATOM     30  C   LIG    1      -10.802  -1.252  -0.161  0.00  0.00    +0.050 A 
ENDBRANCH  21  23
ENDBRANCH   9  17
TORSDOF 3
