REMARK  Name = ZINCvU0000000CIw.0
REMARK                            x       y       z     vdW  Elec       q    Type
REMARK                         _______ _______ _______ _____ _____    ______ ____
ROOT
ATOM      1  C   LIG    1       -0.525  -2.400  -0.212  0.00  0.00    +0.290 A 
ATOM      2  N   LIG    1        0.775  -2.388  -0.172  0.00  0.00    -0.480 NA
ATOM      3  C   LIG    1        1.213  -1.124   0.064  0.00  0.00    +0.050 A 
ATOM      4  C   LIG    1        2.480  -0.553   0.203  0.00  0.00    +0.060 A 
ATOM      5  C   LIG    1        2.601   0.787   0.443  0.00  0.00    +0.000 A 
ATOM      6  C   LIG    1        1.475   1.591   0.550  0.00  0.00    +0.030 A 
ATOM      7  C   LIG    1        0.214   1.049   0.417  0.00  0.00    +0.010 A 
ATOM      8  C   LIG    1        0.072  -0.310   0.173  0.00  0.00    +0.060 A 
ATOM      9  N   LIG    1       -1.011  -1.147  -0.006  0.00  0.00    -0.480 N 
ENDROOT
BRANCH   1  10
ATOM     10  C   LIG    1       -1.369  -3.625  -0.453  0.00  0.00    +0.160 C 
BRANCH  10  11
ATOM     11  C   LIG    1       -1.613  -3.790  -1.955  0.00  0.00    +0.020 C 
BRANCH  11  12
ATOM     12  C   LIG    1       -2.470  -5.033  -2.199  0.00  0.00    +0.260 C 
BRANCH  12  15
ATOM     13  O   LIG    1       -3.906  -7.025  -3.310  0.00  0.00    -0.530 OA
ATOM     14  C   LIG    1       -3.438  -6.225  -4.091  0.00  0.00    +0.510 C 
ATOM     15  N   LIG    1       -2.703  -5.190  -3.637  0.00  0.00    -0.730 N 
ATOM     16  H   LIG    1       -2.328  -4.550  -4.262  0.00  0.00    +0.400 HD
BRANCH  14  17
ATOM     17  C   LIG    1       -3.677  -6.386  -5.571  0.00  0.00    +0.100 C 
BRANCH  17  18
ATOM     18  C   LIG    1       -4.522  -7.611  -5.812  0.00  0.00    -0.070 A 
ATOM     19  C   LIG    1       -3.918  -8.838  -6.015  0.00  0.00    +0.010 A 
ATOM     20  C   LIG    1       -4.692  -9.962  -6.232  0.00  0.00    +0.000 A 
ATOM     21  C   LIG    1       -6.070  -9.858  -6.255  0.00  0.00    +0.000 A 
ATOM     22  C   LIG    1       -6.674  -8.631  -6.056  0.00  0.00    +0.000 A 
ATOM     23  C   LIG    1       -5.900  -7.507  -5.834  0.00  0.00    +0.010 A 
ENDBRANCH  17  18
ENDBRANCH  14  17
ENDBRANCH  12  15
ENDBRANCH  11  12
ENDBRANCH  10  11
ENDBRANCH   1  10
BRANCH   9  24
ATOM     24  C   LIG    1       -2.423  -0.757   0.020  0.00  0.00    +0.370 C 
BRANCH  24  25
ATOM     25  C   LIG    1       -2.914  -0.551  -1.390  0.00  0.00    -0.110 A 
ATOM     26  C   LIG    1       -3.604  -1.560  -2.035  0.00  0.00    +0.070 A 
ATOM     27  C   LIG    1       -4.054  -1.372  -3.328  0.00  0.00    +0.030 A 
ATOM     28  C   LIG    1       -3.816  -0.174  -3.977  0.00  0.00    -0.010 A 
ATOM     29  C   LIG    1       -3.125   0.837  -3.331  0.00  0.00    +0.050 A 
ATOM     30 CL   LIG    1       -4.383   0.063  -5.601  0.00  0.00    -0.050 Cl
ATOM     31  C   LIG    1       -2.679   0.650  -2.036  0.00  0.00    -0.010 A 
ATOM     32 CL   LIG    1       -1.819   1.919  -1.222  0.00  0.00    -0.040 Cl
ENDBRANCH  24  25
ENDBRANCH   9  24
TORSDOF 8
