REMARK  Name = ZINCrD0000073nkx.0
REMARK                            x       y       z     vdW  Elec       q    Type
REMARK                         _______ _______ _______ _____ _____    ______ ____
ROOT
ATOM      1  C   LIG    1        0.030  -0.400   2.519  0.00  0.00    +0.430 C 
ATOM      2  O   LIG    1        0.016   0.781   2.799  0.00  0.00    -0.450 OA
ENDROOT
BRANCH   1   3
ATOM      3  C   LIG    1        0.023  -0.821   1.117  0.00  0.00    -0.280 A 
ATOM      4  C   LIG    1        0.002  -0.004   0.002  0.00  0.00    +0.140 A 
ATOM      5  N   LIG    1       -0.003  -0.787  -1.091  0.00  0.00    -0.430 N 
ATOM      6  C   LIG    1        0.024  -2.104  -0.735  0.00  0.00    +0.010 A 
ATOM      7  C   LIG    1        0.030  -3.268  -1.691  0.00  0.00    +0.120 C 
ATOM      8  C   LIG    1       -0.018   1.503   0.010  0.00  0.00    +0.150 C 
ATOM      9  C   LIG    1        0.037  -2.198   0.606  0.00  0.00    +0.000 A 
BRANCH   5  10
ATOM     10  C   LIG    1       -0.030  -0.296  -2.471  0.00  0.00    +0.310 C 
BRANCH  10  11
ATOM     11  C   LIG    1        1.403  -0.105  -2.972  0.00  0.00    +0.140 C 
ATOM     12  C   LIG    1        1.400   0.328  -4.460  0.00  0.00    +0.020 C 
ATOM     13  C   LIG    1        2.766   1.063  -4.555  0.00  0.00    +0.020 C 
ATOM     14  C   LIG    1        2.894   1.702  -3.156  0.00  0.00    +0.190 C 
ATOM     15  O   LIG    1        2.039   0.973  -2.267  0.00  0.00    -0.370 OA
ENDBRANCH  10  11
ENDBRANCH   5  10
ENDBRANCH   1   3
BRANCH   1  16
ATOM     16  C   LIG    1        0.054  -1.433   3.616  0.00  0.00    +0.230 C 
BRANCH  16  17
ATOM     17  O   LIG    1        0.056  -0.769   4.907  0.00  0.00    -0.340 OA
BRANCH  17  18
ATOM     18  C   LIG    1        0.077  -1.556   6.000  0.00  0.00    +0.510 C 
ATOM     19  O   LIG    1        0.092  -2.765   5.878  0.00  0.00    -0.510 OA
BRANCH  18  23
ATOM     20  C   LIG    1        0.086   0.186   9.872  0.00  0.00    +0.170 A 
ATOM     21  C   LIG    1        0.104  -1.197   9.734  0.00  0.00    -0.030 A 
ATOM     22  C   LIG    1        0.101  -1.766   8.481  0.00  0.00    +0.140 A 
ATOM     23  C   LIG    1        0.080  -0.951   7.345  0.00  0.00    -0.170 A 
ATOM     24  C   LIG    1        0.068   0.440   7.488  0.00  0.00    +0.120 A 
ATOM     25  C   LIG    1        0.065   1.001   8.745  0.00  0.00    -0.080 A 
BRANCH  20  27
ATOM     26  C   LIG    1        0.070   2.171  11.178  0.00  0.00    +0.240 C 
ATOM     27  O   LIG    1        0.089   0.744  11.109  0.00  0.00    -0.310 OA
ENDBRANCH  20  27
ENDBRANCH  18  23
ENDBRANCH  17  18
ENDBRANCH  16  17
ENDBRANCH   1  16
TORSDOF 8
