REMARK  Name = ZINCrH000004tYzy.0
REMARK                            x       y       z     vdW  Elec       q    Type
REMARK                         _______ _______ _______ _____ _____    ______ ____
ROOT
ATOM      1  C   LIG    1       -1.295   2.113   0.020  0.00  0.00    +0.150 C 
ENDROOT
BRANCH   1   2
ATOM      2  C   LIG    1       -0.016   1.316   0.009  0.00  0.00    +0.110 A 
ATOM      3  C   LIG    1        1.190   1.887   0.001  0.00  0.00    -0.130 A 
ATOM      4  S   LIG    1        2.401   0.608  -0.018  0.00  0.00    +0.250 S 
ATOM      5  C   LIG    1        1.166  -0.575  -0.012  0.00  0.00    +0.240 A 
ATOM      6  N   LIG    1        0.002  -0.004   0.002  0.00  0.00    -0.480 NA
BRANCH   5   7
ATOM      7  N   LIG    1        1.379  -1.947  -0.022  0.00  0.00    -0.610 N 
ATOM      8  H   LIG    1        0.623  -2.555  -0.018  0.00  0.00    +0.430 HD
ATOM      9  C   LIG    1        2.635  -2.434  -0.036  0.00  0.00    +0.610 C 
ATOM     10  O   LIG    1        3.584  -1.671  -0.041  0.00  0.00    -0.490 OA
BRANCH   9  11
ATOM     11  C   LIG    1        2.860  -3.883  -0.046  0.00  0.00    -0.090 A 
ATOM     12  C   LIG    1        4.075  -4.507  -0.061  0.00  0.00    +0.070 A 
ATOM     13  C   LIG    1        3.820  -5.887  -0.065  0.00  0.00    -0.070 A 
ATOM     14  C   LIG    1        2.478  -6.043  -0.053  0.00  0.00    +0.230 A 
ATOM     15  O   LIG    1        1.903  -4.834  -0.036  0.00  0.00    -0.160 OA
ENDBRANCH   9  11
ENDBRANCH   5   7
ENDBRANCH   1   2
BRANCH   1  17
ATOM     16  O   LIG    1       -1.773   0.831  -1.903  0.00  0.00    -0.510 OA
ATOM     17  C   LIG    1       -2.158   1.693  -1.142  0.00  0.00    +0.520 C 
ATOM     18  N   LIG    1       -3.358   2.275  -1.335  0.00  0.00    -0.730 N 
ATOM     19  H   LIG    1       -3.666   2.964  -0.726  0.00  0.00    +0.400 HD
BRANCH  18  20
ATOM     20  C   LIG    1       -4.197   1.867  -2.464  0.00  0.00    +0.290 C 
ATOM     21  C   LIG    1       -5.662   2.138  -2.127  0.00  0.00    +0.020 C 
ATOM     22  C   LIG    1       -6.500   1.909  -3.390  0.00  0.00    +0.030 C 
ATOM     23  C   LIG    1       -6.187   3.027  -4.384  0.00  0.00    +0.080 C 
ATOM     24  C   LIG    1       -4.699   3.162  -4.578  0.00  0.00    -0.070 A 
ATOM     25  C   LIG    1       -4.253   3.854  -5.696  0.00  0.00    -0.010 A 
ATOM     26  C   LIG    1       -2.903   4.023  -5.923  0.00  0.00    +0.010 A 
ATOM     27  C   LIG    1       -1.986   3.499  -5.032  0.00  0.00    -0.010 A 
ATOM     28  C   LIG    1       -2.427   2.808  -3.922  0.00  0.00    +0.030 A 
ATOM     29  C   LIG    1       -3.786   2.635  -3.692  0.00  0.00    -0.100 A 
ENDBRANCH  18  20
ENDBRANCH   1  17
TORSDOF 5
