REMARK  Name = ZINCpe000000Sz5R.0
REMARK                            x       y       z     vdW  Elec       q    Type
REMARK                         _______ _______ _______ _____ _____    ______ ____
ROOT
ATOM      1  C   LIG    1        7.723   3.999  -1.243  0.00  0.00    +0.120 C 
ATOM      2  C   LIG    1        6.328   3.432  -1.195  0.00  0.00    +0.510 C 
ATOM      3  N   LIG    1        5.698   3.289  -0.012  0.00  0.00    -0.560 N 
ATOM      4  C   LIG    1        6.407   3.555   1.248  0.00  0.00    +0.280 C 
ATOM      5  C   LIG    1        6.071   2.419   2.223  0.00  0.00    +0.030 C 
ATOM      6  C   LIG    1        4.570   2.446   2.514  0.00  0.00    +0.090 C 
ATOM      7  C   LIG    1        3.784   2.470   1.230  0.00  0.00    -0.140 A 
ATOM      8  C   LIG    1        2.457   2.075   1.249  0.00  0.00    +0.150 A 
ATOM      9  C   LIG    1        1.710   2.086   0.087  0.00  0.00    -0.710 A 
ATOM     10  C   LIG    1        2.280   2.501  -1.102  0.00  0.00    +0.140 A 
ATOM     11  C   LIG    1        3.602   2.900  -1.129  0.00  0.00    +0.010 A 
ATOM     12  C   LIG    1        4.357   2.885   0.038  0.00  0.00    +0.220 A 
ATOM     13  O   LIG    1        5.771   3.104  -2.221  0.00  0.00    -0.510 OA
ENDROOT
BRANCH   9  14
ATOM     14  S   LIG    1        0.024   1.575   0.122  0.00  0.00    +2.690 S 
ATOM     15  O   LIG    1       -0.420   1.746   1.461  0.00  0.00    -0.950 OA
ATOM     16  O   LIG    1       -0.606   2.196  -0.990  0.00  0.00    -0.950 OA
BRANCH  14  17
ATOM     17  N   LIG    1       -0.002  -0.053  -0.175  0.00  0.00    -1.110 NA
ATOM     18  H   LIG    1       -0.420  -0.393  -0.982  0.00  0.00    +0.420 HD
BRANCH  17  19
ATOM     19  C   LIG    1        0.607  -0.982   0.781  0.00  0.00    +0.200 C 
ATOM     20  C   LIG    1        2.090  -0.636   0.932  0.00  0.00    +0.050 C 
ATOM     21  C   LIG    1        2.869  -1.929   1.284  0.00  0.00    -0.280 C 
ATOM     22  S   LIG    1        2.075  -3.140   0.152  0.00  0.00    +2.380 S 
ATOM     23  O   LIG    1        2.572  -2.957  -1.166  0.00  0.00    -0.920 OA
ATOM     24  O   LIG    1        2.088  -4.430   0.749  0.00  0.00    -0.930 OA
ATOM     25  C   LIG    1       -0.081  -0.820   2.137  0.00  0.00    +0.070 C 
ATOM     26  C   LIG    1        0.395  -2.420   0.283  0.00  0.00    -0.290 C 
ENDBRANCH  17  19
ENDBRANCH  14  17
ENDBRANCH   9  14
TORSDOF 3
