REMARK  Name = ZINCpe00000gMBfY.0
REMARK                            x       y       z     vdW  Elec       q    Type
REMARK                         _______ _______ _______ _____ _____    ______ ____
ROOT
ATOM      1  C   LIG    1       -1.008  -7.269  -0.025  0.00  0.00    +0.270 C 
ENDROOT
BRANCH   1   4
ATOM      2  N   LIG    1       -1.597  -9.672  -0.031  0.00  0.00    -0.720 N 
ATOM      3  H   LIG    1       -2.531  -9.411  -0.021  0.00  0.00    +0.400 HD
ATOM      4  C   LIG    1       -0.633  -8.729  -0.035  0.00  0.00    +0.520 C 
ATOM      5  O   LIG    1        0.534  -9.056  -0.048  0.00  0.00    -0.510 OA
BRANCH   2   6
ATOM      6  C   LIG    1       -1.233 -11.091  -0.041  0.00  0.00    +0.340 C 
BRANCH   6  12
ATOM      7  C   LIG    1       -3.191 -12.133  -1.210  0.00  0.00    +0.150 A 
ATOM      8  C   LIG    1       -4.340 -12.912  -1.201  0.00  0.00    -0.080 A 
ATOM      9  C   LIG    1       -4.783 -13.473  -0.019  0.00  0.00    +0.060 A 
ATOM     10  C   LIG    1       -4.080 -13.264   1.153  0.00  0.00    -0.030 A 
ATOM     11  C   LIG    1       -2.932 -12.494   1.145  0.00  0.00    +0.070 A 
ATOM     12  C   LIG    1       -2.484 -11.930  -0.034  0.00  0.00    -0.150 A 
BRANCH   7  14
ATOM     13  C   LIG    1       -3.534 -11.827  -3.543  0.00  0.00    +0.250 C 
ATOM     14  O   LIG    1       -2.756 -11.576  -2.371  0.00  0.00    -0.310 OA
ENDBRANCH   7  14
ENDBRANCH   6  12
ENDBRANCH   2   6
ENDBRANCH   1   4
BRANCH   1  15
ATOM     15  O   LIG    1        0.198  -6.460  -0.032  0.00  0.00    -0.320 OA
BRANCH  15  16
ATOM     16  C   LIG    1        0.038  -5.128  -0.024  0.00  0.00    +0.460 C 
ATOM     17  O   LIG    1       -1.073  -4.653  -0.011  0.00  0.00    -0.500 OA
BRANCH  16  18
ATOM     18  C   LIG    1        1.244  -4.224  -0.031  0.00  0.00    +0.370 C 
BRANCH  18  19
ATOM     19  N   LIG    1        0.806  -2.826  -0.020  0.00  0.00    -0.720 N 
ATOM     20  H   LIG    1       -0.140  -2.614  -0.010  0.00  0.00    +0.420 HD
ATOM     21  C   LIG    1        1.719  -1.834  -0.024  0.00  0.00    +0.610 C 
ATOM     22  O   LIG    1        2.906  -2.100  -0.036  0.00  0.00    -0.510 OA
BRANCH  21  23
ATOM     23  C   LIG    1        1.281  -0.434  -0.013  0.00  0.00    -0.090 A 
ATOM     24  C   LIG    1        2.095   0.661  -0.014  0.00  0.00    +0.050 A 
ATOM     25  C   LIG    1        1.257   1.787  -0.000  0.00  0.00    -0.070 A 
ATOM     26  C   LIG    1       -0.016   1.335   0.009  0.00  0.00    +0.210 A 
ATOM     27  O   LIG    1        0.002  -0.004   0.002  0.00  0.00    -0.160 OA
ENDBRANCH  21  23
ENDBRANCH  18  19
ENDBRANCH  16  18
ENDBRANCH  15  16
ENDBRANCH   1  15
TORSDOF 9
