REMARK  Name = ZINCtV000002q3tl.0
REMARK                            x       y       z     vdW  Elec       q    Type
REMARK                         _______ _______ _______ _____ _____    ______ ____
ROOT
ATOM      1  C   LIG    1        9.784   1.804   0.913  0.00  0.00    +0.270 A 
ATOM      2  N   LIG    1        8.572   2.251   1.012  0.00  0.00    -0.460 NA
ATOM      3  C   LIG    1        8.034   2.764  -0.079  0.00  0.00    +0.100 A 
ATOM      4  C   LIG    1        8.833   2.757  -1.147  0.00  0.00    -0.070 A 
ATOM      5  S   LIG    1       10.367   2.030  -0.678  0.00  0.00    +0.160 S 
ENDROOT
BRANCH   1   8
ATOM      6  C   LIG    1       10.823   0.683   4.345  0.00  0.00    +0.120 C 
ATOM      7  C   LIG    1        9.995   1.203   3.199  0.00  0.00    +0.510 C 
ATOM      8  N   LIG    1       10.509   1.229   1.953  0.00  0.00    -0.480 N 
ATOM      9  O   LIG    1        8.865   1.597   3.397  0.00  0.00    -0.460 OA
BRANCH   8  10
ATOM     10  C   LIG    1       11.772   0.678   1.705  0.00  0.00    +0.100 A 
ATOM     11  C   LIG    1       11.888  -0.494   0.969  0.00  0.00    +0.020 A 
ATOM     12  C   LIG    1       13.136  -1.032   0.722  0.00  0.00    +0.030 A 
ATOM     13  C   LIG    1       14.268  -0.411   1.216  0.00  0.00    -0.070 A 
ATOM     14  C   LIG    1       14.156   0.753   1.954  0.00  0.00    -0.070 A 
ATOM     15  C   LIG    1       15.393   1.426   2.491  0.00  0.00    +0.110 C 
ATOM     16  C   LIG    1       15.628  -1.004   0.949  0.00  0.00    +0.110 C 
ATOM     17  C   LIG    1       12.912   1.299   2.200  0.00  0.00    +0.030 A 
ENDBRANCH   8  10
ENDBRANCH   1   8
BRANCH   3  18
ATOM     18  C   LIG    1        6.633   3.317  -0.113  0.00  0.00    +0.170 C 
BRANCH  18  19
ATOM     19  S   LIG    1        5.474   2.001  -0.563  0.00  0.00    -0.040 S 
BRANCH  19  20
ATOM     20  C   LIG    1        3.960   2.901  -0.528  0.00  0.00    -0.040 A 
ATOM     21  C   LIG    1        3.937   4.251  -0.209  0.00  0.00    -0.060 A 
ATOM     22  C   LIG    1        2.728   4.931  -0.191  0.00  0.00    +0.310 A 
ATOM     23  N   LIG    1        1.591   4.335  -0.467  0.00  0.00    -0.480 NA
ATOM     24  C   LIG    1        1.538   3.035  -0.783  0.00  0.00    +0.140 A 
ATOM     25  C   LIG    1        0.314   2.411  -1.076  0.00  0.00    +0.050 A 
ATOM     26  C   LIG    1        0.289   1.087  -1.393  0.00  0.00    +0.030 A 
ATOM     27  C   LIG    1        1.461   0.336  -1.433  0.00  0.00    +0.020 A 
ATOM     28  C   LIG    1        2.666   0.909  -1.155  0.00  0.00    +0.040 A 
ATOM     29  C   LIG    1        2.728   2.269  -0.824  0.00  0.00    -0.090 A 
ENDBRANCH  19  20
ENDBRANCH  18  19
ENDBRANCH   3  18
TORSDOF 5
