REMARK  Name = ZINCrg000000rwkN.0
REMARK                            x       y       z     vdW  Elec       q    Type
REMARK                         _______ _______ _______ _____ _____    ______ ____
ROOT
ATOM      1  C   LIG    1       -0.019   1.526   0.010  0.00  0.00    +0.100 C 
ATOM      2  C   LIG    1        0.002  -0.004   0.002  0.00  0.00    +0.170 C 
ATOM      3  N   LIG    1        0.792  -0.505  -1.136  0.00  0.00    -0.720 N 
ATOM      4  H   LIG    1        0.609  -0.359  -2.077  0.00  0.00    +0.440 HD
ATOM      5  C   LIG    1        1.815  -1.206  -0.615  0.00  0.00    +0.710 C 
ATOM      6  N   LIG    1        1.793  -1.225   0.722  0.00  0.00    -0.560 N 
ATOM      7  O   LIG    1        2.665  -1.760  -1.285  0.00  0.00    -0.530 OA
ATOM      8  C   LIG    1        0.745  -0.534   1.212  0.00  0.00    +0.540 C 
ATOM      9  O   LIG    1        0.457  -0.370   2.378  0.00  0.00    -0.430 OA
ENDROOT
BRANCH   2  10
ATOM     10  C   LIG    1       -1.401  -0.551  -0.040  0.00  0.00    -0.090 A 
ATOM     11  C   LIG    1       -1.803  -1.342  -1.100  0.00  0.00    +0.070 A 
ATOM     12  C   LIG    1       -3.090  -1.845  -1.139  0.00  0.00    +0.050 A 
ATOM     13  C   LIG    1       -3.977  -1.557  -0.117  0.00  0.00    -0.010 A 
ATOM     14  C   LIG    1       -3.575  -0.765   0.944  0.00  0.00    +0.050 A 
ATOM     15 CL   LIG    1       -5.593  -2.188  -0.166  0.00  0.00    -0.050 Cl
ATOM     16  C   LIG    1       -2.286  -0.267   0.986  0.00  0.00    -0.010 A 
ATOM     17 CL   LIG    1       -1.779   0.720   2.321  0.00  0.00    -0.020 Cl
ENDBRANCH   2  10
BRANCH   6  18
ATOM     18  C   LIG    1        2.786  -1.913   1.552  0.00  0.00    +0.360 C 
BRANCH  18  19
ATOM     19  C   LIG    1        2.335  -3.328   1.807  0.00  0.00    +0.500 C 
ATOM     20  N   LIG    1        3.096  -4.153   2.552  0.00  0.00    -0.710 N 
ATOM     21  H   LIG    1        3.934  -3.837   2.925  0.00  0.00    +0.410 HD
ATOM     22  O   LIG    1        1.287  -3.723   1.342  0.00  0.00    -0.520 OA
BRANCH  20  23
ATOM     23  C   LIG    1        2.657  -5.529   2.801  0.00  0.00    +0.270 C 
ATOM     24  C   LIG    1        3.873  -6.425   3.095  0.00  0.00    +0.070 C 
ATOM     25  C   LIG    1        3.373  -7.761   3.680  0.00  0.00    -0.300 C 
ATOM     26  S   LIG    1        1.793  -7.356   4.508  0.00  0.00    +2.400 S 
ATOM     27  O   LIG    1        1.951  -7.487   5.914  0.00  0.00    -0.930 OA
ATOM     28  O   LIG    1        0.730  -8.031   3.850  0.00  0.00    -0.930 OA
ATOM     29  C   LIG    1        1.754  -5.579   4.060  0.00  0.00    -0.330 C 
ENDBRANCH  20  23
ENDBRANCH  18  19
ENDBRANCH   6  18
TORSDOF 4
