REMARK  Name = ZINCrg00001JduZy.0
REMARK                            x       y       z     vdW  Elec       q    Type
REMARK                         _______ _______ _______ _____ _____    ______ ____
ROOT
ATOM      1  C   LIG    1        2.717   8.078  -2.026  0.00  0.00    +0.250 C 
ATOM      2  C   LIG    1        3.086   7.808  -0.562  0.00  0.00    +0.310 C 
ATOM      3  N   LIG    1        1.883   7.978   0.265  0.00  0.00    -0.600 N 
ATOM      4  C   LIG    1        0.680   7.202  -0.067  0.00  0.00    +0.220 C 
ATOM      5  C   LIG    1        0.309   7.476  -1.535  0.00  0.00    +0.290 C 
ATOM      6  C   LIG    1       -0.475   7.631   0.840  0.00  0.00    +0.070 C 
ATOM      7  C   LIG    1        1.882   8.832   1.308  0.00  0.00    +0.570 C 
ATOM      8  O   LIG    1        0.854   9.041   1.922  0.00  0.00    -0.510 OA
ATOM      9  N   LIG    1        1.514   7.302  -2.358  0.00  0.00    -0.600 N 
ATOM     10  C   LIG    1        1.514   6.449  -3.402  0.00  0.00    +0.570 C 
ATOM     11  O   LIG    1        2.535   6.263  -4.034  0.00  0.00    -0.500 OA
ENDROOT
BRANCH   7  12
ATOM     12  C   LIG    1        3.132   9.513   1.706  0.00  0.00    -0.190 A 
ATOM     13  C   LIG    1        3.135  10.881   2.000  0.00  0.00    +0.120 A 
ATOM     14  C   LIG    1        4.331  11.471   2.369  0.00  0.00    -0.020 A 
ATOM     15  C   LIG    1        5.476  10.697   2.434  0.00  0.00    +0.280 A 
ATOM     16  N   LIG    1        5.444   9.408   2.151  0.00  0.00    -0.480 NA
ATOM     17  C   LIG    1        4.329   8.801   1.801  0.00  0.00    +0.290 A 
ENDBRANCH   7  12
BRANCH  10  18
ATOM     18  C   LIG    1        0.272   5.741  -3.778  0.00  0.00    -0.180 A 
ATOM     19  C   LIG    1        0.307   4.392  -4.150  0.00  0.00    +0.130 A 
ATOM     20  C   LIG    1       -0.883   3.775  -4.493  0.00  0.00    -0.020 A 
ATOM     21  C   LIG    1       -2.057   4.505  -4.463  0.00  0.00    +0.290 A 
ATOM     22  N   LIG    1       -2.061   5.775  -4.103  0.00  0.00    -0.480 NA
ATOM     23  C   LIG    1       -0.955   6.406  -3.768  0.00  0.00    +0.290 A 
ENDBRANCH  10  18
BRANCH   1  24
ATOM     24  C   LIG    1        3.854   7.655  -2.920  0.00  0.00    +0.480 C 
ATOM     25  O   LIG    1        4.472   6.646  -2.676  0.00  0.00    -0.490 OA
BRANCH  24  27
ATOM     26  C   LIG    1        5.287   7.933  -4.804  0.00  0.00    +0.270 C 
ATOM     27  O   LIG    1        4.181   8.400  -3.987  0.00  0.00    -0.360 OA
ENDBRANCH  24  27
ENDBRANCH   1  24
TORSDOF 4
