REMARK  Name = ZINCrD00000F5LFZ.1
REMARK                            x       y       z     vdW  Elec       q    Type
REMARK                         _______ _______ _______ _____ _____    ______ ____
ROOT
ATOM      1  C   LIG    1        0.974  -0.602  -1.411  0.00  0.00    -0.040 C 
ATOM      2  C   LIG    1        2.009  -1.415  -1.212  0.00  0.00    +0.040 C 
ENDROOT
BRANCH   2   3
ATOM      3  C   LIG    1        2.796  -1.897  -2.357  0.00  0.00    +0.510 C 
ATOM      4  N   LIG    1        3.844  -2.720  -2.156  0.00  0.00    -0.610 N 
ATOM      5  H   LIG    1        4.119  -2.943  -1.253  0.00  0.00    +0.410 HD
ATOM      6  O   LIG    1        2.501  -1.552  -3.486  0.00  0.00    -0.530 OA
BRANCH   4   7
ATOM      7  C   LIG    1        4.536  -3.253  -3.250  0.00  0.00    -0.010 A 
ATOM      8  C   LIG    1        4.695  -2.501  -4.405  0.00  0.00    +0.050 A 
ATOM      9  C   LIG    1        5.380  -3.030  -5.486  0.00  0.00    -0.040 A 
ATOM     10  C   LIG    1        5.906  -4.308  -5.416  0.00  0.00    +0.050 A 
ATOM     11  C   LIG    1        5.750  -5.063  -4.267  0.00  0.00    -0.200 A 
ATOM     12 BR   LIG    1        6.471  -6.809  -4.177  0.00  0.00    -0.070 Br
ATOM     13  F   LIG    1        5.535  -2.297  -6.610  0.00  0.00    -0.160 F 
ATOM     14  C   LIG    1        5.070  -4.537  -3.180  0.00  0.00    +0.280 A 
ATOM     15  O   LIG    1        4.921  -5.276  -2.047  0.00  0.00    -0.680 OA
ENDBRANCH   4   7
ENDBRANCH   2   3
BRANCH   1  16
ATOM     16  C   LIG    1        0.168  -0.108  -0.238  0.00  0.00    +0.310 C 
BRANCH  16  20
ATOM     17  C   LIG    1       -0.718   3.999  -0.274  0.00  0.00    -0.130 C 
ATOM     18  C   LIG    1       -0.821   3.300  -1.390  0.00  0.00    -0.090 C 
ATOM     19  C   LIG    1       -0.608   1.815  -1.444  0.00  0.00    +0.330 C 
ATOM     20  N   LIG    1        0.125   1.360  -0.256  0.00  0.00    -0.390 N 
ATOM     21  C   LIG    1       -0.563   1.848   0.949  0.00  0.00    +0.290 C 
ATOM     22  H   LIG    1        1.065   1.725  -0.279  0.00  0.00    +0.430 HD
ATOM     23  C   LIG    1       -1.168   4.025  -2.665  0.00  0.00    +0.130 C 
ATOM     24  C   LIG    1       -0.369   3.363   1.044  0.00  0.00    +0.140 C 
BRANCH  17  25
ATOM     25  C   LIG    1       -0.951   5.450  -0.321  0.00  0.00    +0.510 C 
ATOM     26  O   LIG    1       -0.012   6.218  -0.262  0.00  0.00    -0.480 OA
BRANCH  25  27
ATOM     27  O   LIG    1       -2.207   5.927  -0.431  0.00  0.00    -0.350 OA
BRANCH  27  29
ATOM     28  C   LIG    1       -3.847   7.720  -0.597  0.00  0.00    +0.080 C 
ATOM     29  C   LIG    1       -2.362   7.370  -0.472  0.00  0.00    +0.220 C 
ENDBRANCH  27  29
ENDBRANCH  25  27
ENDBRANCH  17  25
ENDBRANCH  16  20
ENDBRANCH   1  16
TORSDOF 7
