REMARK  Name = ZINCrD00000F5LFz.0
REMARK                            x       y       z     vdW  Elec       q    Type
REMARK                         _______ _______ _______ _____ _____    ______ ____
ROOT
ATOM      1  C   LIG    1       -6.564   6.943   1.567  0.00  0.00    -0.120 A 
ATOM      2  C   LIG    1       -6.334   5.856   0.721  0.00  0.00    +0.040 A 
ATOM      3  C   LIG    1       -5.152   5.153   0.807  0.00  0.00    +0.050 A 
ATOM      4  C   LIG    1       -4.191   5.516   1.744  0.00  0.00    +0.160 A 
ATOM      5  C   LIG    1       -4.416   6.602   2.592  0.00  0.00    +0.090 A 
ATOM      6  C   LIG    1       -5.596   7.313   2.505  0.00  0.00    +0.020 A 
ENDROOT
BRANCH   1  10
ATOM      7  N   LIG    1       -8.760   7.342   0.565  0.00  0.00    -0.850 N 
ATOM      8  H   LIG    1       -9.590   7.840   0.501  0.00  0.00    +0.410 HD
ATOM      9  H   LIG    1       -8.601   6.588  -0.023  0.00  0.00    +0.400 HD
ATOM     10  C   LIG    1       -7.827   7.700   1.470  0.00  0.00    +0.570 C 
ATOM     11  O   LIG    1       -8.027   8.646   2.207  0.00  0.00    -0.540 OA
ENDBRANCH   1  10
BRANCH   4  12
ATOM     12  N   LIG    1       -2.998   4.799   1.832  0.00  0.00    -0.660 N 
ATOM     13  H   LIG    1       -2.203   5.222   2.192  0.00  0.00    +0.420 HD
ATOM     14  C   LIG    1       -2.951   3.517   1.419  0.00  0.00    +0.550 C 
ATOM     15  O   LIG    1       -3.970   2.954   1.062  0.00  0.00    -0.520 OA
BRANCH  14  16
ATOM     16  C   LIG    1       -1.676   2.802   1.398  0.00  0.00    -0.050 C 
ATOM     17  C   LIG    1       -1.628   1.518   0.983  0.00  0.00    +0.130 C 
BRANCH  17  18
ATOM     18  C   LIG    1       -0.346   0.800   0.963  0.00  0.00    -0.150 A 
ATOM     19  C   LIG    1        0.774   1.374   0.347  0.00  0.00    +0.140 A 
ATOM     20  C   LIG    1        1.973   0.689   0.327  0.00  0.00    -0.010 A 
ATOM     21  C   LIG    1        2.070  -0.561   0.913  0.00  0.00    +0.100 A 
ATOM     22  C   LIG    1        0.970  -1.136   1.524  0.00  0.00    -0.010 A 
ATOM     23  F   LIG    1        0.681   2.594  -0.226  0.00  0.00    -0.120 F 
ATOM     24  C   LIG    1       -0.238  -0.466   1.553  0.00  0.00    +0.150 A 
ATOM     25  F   LIG    1       -1.311  -1.030   2.150  0.00  0.00    -0.120 F 
ENDBRANCH  17  18
ENDBRANCH  14  16
ENDBRANCH   4  12
BRANCH   5  26
ATOM     26  O   LIG    1       -3.472   6.960   3.504  0.00  0.00    -0.300 OA
BRANCH  26  27
ATOM     27  C   LIG    1       -3.769   8.080   4.340  0.00  0.00    +0.200 C 
BRANCH  27  28
ATOM     28  C   LIG    1       -2.599   8.329   5.293  0.00  0.00    +0.410 C 
ATOM     29  F   LIG    1       -1.442   8.594   4.553  0.00  0.00    -0.200 F 
ATOM     30  F   LIG    1       -2.396   7.196   6.088  0.00  0.00    -0.200 F 
ENDBRANCH  27  28
ENDBRANCH  26  27
ENDBRANCH   5  26
TORSDOF 7
