REMARK  Name = ZINCrD00000F5LFZ.2
REMARK                            x       y       z     vdW  Elec       q    Type
REMARK                         _______ _______ _______ _____ _____    ______ ____
ROOT
ATOM      1  C   LIG    1        4.544  -5.070  -5.480  0.00  0.00    -0.030 C 
ATOM      2  C   LIG    1        4.347  -6.313  -5.909  0.00  0.00    +0.040 C 
ENDROOT
BRANCH   2   3
ATOM      3  C   LIG    1        5.303  -7.373  -5.556  0.00  0.00    +0.510 C 
ATOM      4  N   LIG    1        5.103  -8.633  -5.991  0.00  0.00    -0.610 N 
ATOM      5  H   LIG    1        4.364  -8.828  -6.589  0.00  0.00    +0.410 HD
ATOM      6  O   LIG    1        6.274  -7.113  -4.872  0.00  0.00    -0.530 OA
BRANCH   4   7
ATOM      7  C   LIG    1        5.961  -9.661  -5.580  0.00  0.00    -0.010 A 
ATOM      8  C   LIG    1        7.308  -9.401  -5.377  0.00  0.00    +0.050 A 
ATOM      9  C   LIG    1        8.153 -10.417  -4.964  0.00  0.00    -0.040 A 
ATOM     10  C   LIG    1        7.659 -11.694  -4.765  0.00  0.00    +0.050 A 
ATOM     11  C   LIG    1        6.317 -11.960  -4.971  0.00  0.00    -0.200 A 
ATOM     12 BR   LIG    1        5.646 -13.707  -4.698  0.00  0.00    -0.070 Br
ATOM     13  F   LIG    1        9.465 -10.162  -4.761  0.00  0.00    -0.160 F 
ATOM     14  C   LIG    1        5.464 -10.946  -5.379  0.00  0.00    +0.280 A 
ATOM     15  O   LIG    1        4.144 -11.207  -5.582  0.00  0.00    -0.690 OA
ENDBRANCH   4   7
ENDBRANCH   2   3
BRANCH   1  16
ATOM     16  C   LIG    1        3.564  -3.983  -5.841  0.00  0.00    +0.320 C 
BRANCH  16  20
ATOM     17  C   LIG    1        1.485  -2.298  -2.602  0.00  0.00    -0.130 C 
ATOM     18  C   LIG    1        1.660  -3.606  -2.655  0.00  0.00    -0.090 C 
ATOM     19  C   LIG    1        2.315  -4.295  -3.817  0.00  0.00    +0.330 C 
ATOM     20  N   LIG    1        3.082  -3.332  -4.616  0.00  0.00    -0.390 N 
ATOM     21  C   LIG    1        2.210  -2.201  -4.971  0.00  0.00    +0.290 C 
ATOM     22  H   LIG    1        3.867  -2.997  -4.079  0.00  0.00    +0.430 HD
ATOM     23  C   LIG    1        1.183  -4.444  -1.496  0.00  0.00    +0.130 C 
ATOM     24  C   LIG    1        1.928  -1.383  -3.710  0.00  0.00    +0.140 C 
BRANCH  17  25
ATOM     25  C   LIG    1        0.828  -1.717  -1.422  0.00  0.00    +0.510 C 
ATOM     26  O   LIG    1       -0.323  -1.335  -1.494  0.00  0.00    -0.480 OA
BRANCH  25  27
ATOM     27  O   LIG    1        1.503  -1.609  -0.260  0.00  0.00    -0.350 OA
BRANCH  27  29
ATOM     28  C   LIG    1        1.713  -0.986   2.084  0.00  0.00    +0.070 C 
ATOM     29  C   LIG    1        0.792  -1.026   0.863  0.00  0.00    +0.220 C 
ENDBRANCH  27  29
ENDBRANCH  25  27
ENDBRANCH  17  25
ENDBRANCH  16  20
ENDBRANCH   1  16
TORSDOF 7
