REMARK  Name = ZINCfA000000blSF.0
REMARK                            x       y       z     vdW  Elec       q    Type
REMARK                         _______ _______ _______ _____ _____    ______ ____
ROOT
ATOM      1  N   LIG    1       -0.004  -0.486  -1.386  0.00  0.00    -0.510 N 
ATOM      2  H   LIG    1        0.811  -0.136  -1.867  0.00  0.00    +0.430 HD
ATOM      3  H   LIG    1       -0.837  -0.159  -1.852  0.00  0.00    +0.430 HD
ENDROOT
BRANCH   1   4
ATOM      4  C   LIG    1        0.016  -1.955  -1.394  0.00  0.00    +0.270 C 
BRANCH   4   6
ATOM      5  C   LIG    1        1.305  -2.031  -3.533  0.00  0.00    +0.040 C 
ATOM      6  C   LIG    1        0.010  -2.457  -2.839  0.00  0.00    -0.010 C 
BRANCH   6   7
ATOM      7  C   LIG    1       -0.095  -3.984  -2.848  0.00  0.00    +0.020 C 
BRANCH   7   8
ATOM      8  C   LIG    1       -0.227  -4.477  -4.290  0.00  0.00    +0.200 C 
ATOM      9  C   LIG    1       -0.207  -6.007  -4.309  0.00  0.00    +0.010 C 
BRANCH   8  10
ATOM     10  O   LIG    1       -1.459  -4.010  -4.843  0.00  0.00    -0.560 OA
ATOM     11  H   LIG    1       -2.244  -4.312  -4.365  0.00  0.00    +0.380 HD
ENDBRANCH   8  10
ENDBRANCH   7   8
ENDBRANCH   6   7
ENDBRANCH   4   6
ENDBRANCH   1   4
BRANCH   1  12
ATOM     12  C   LIG    1        0.002  -0.004   0.002  0.00  0.00    +0.380 C 
BRANCH  12  13
ATOM     13  C   LIG    1       -0.018   1.503   0.010  0.00  0.00    -0.280 A 
ATOM     14  C   LIG    1       -1.119   2.257   0.019  0.00  0.00    -0.050 A 
ATOM     15  C   LIG    1       -0.890   3.623   0.029  0.00  0.00    +0.040 A 
ATOM     16  C   LIG    1        0.396   3.977   0.018  0.00  0.00    +0.030 A 
ATOM     17 BR   LIG    1       -2.859   1.517   0.023  0.00  0.00    -0.000 Br
ATOM     18  S   LIG    1        1.405   2.536   0.002  0.00  0.00    +0.210 S 
ENDBRANCH  12  13
ENDBRANCH   1  12
TORSDOF 7
