REMARK  Name = ZINCrH00000tj0mA.0
REMARK                            x       y       z     vdW  Elec       q    Type
REMARK                         _______ _______ _______ _____ _____    ______ ____
ROOT
ATOM      1  C   LIG    1       -3.611   2.504  -2.255  0.00  0.00    +0.550 C 
ATOM      2  N   LIG    1       -3.660   2.979  -0.994  0.00  0.00    -0.470 N 
ATOM      3  N   LIG    1       -4.670   2.721  -0.070  0.00  0.00    -0.250 NA
ATOM      4  C   LIG    1       -4.494   3.289   1.074  0.00  0.00    +0.150 C 
ATOM      5  C   LIG    1       -3.207   4.081   1.052  0.00  0.00    +0.090 C 
ATOM      6  C   LIG    1       -2.655   3.854  -0.370  0.00  0.00    +0.260 C 
ATOM      7  O   LIG    1       -2.680   2.794  -2.977  0.00  0.00    -0.510 OA
ENDROOT
BRANCH   6   8
ATOM      8  C   LIG    1       -1.315   3.168  -0.316  0.00  0.00    -0.080 A 
ATOM      9  C   LIG    1       -1.245   1.801  -0.129  0.00  0.00    +0.020 A 
ATOM     10  C   LIG    1       -0.015   1.171  -0.074  0.00  0.00    +0.030 A 
ATOM     11  C   LIG    1        1.145   1.908  -0.216  0.00  0.00    +0.040 A 
ATOM     12  C   LIG    1        1.076   3.277  -0.409  0.00  0.00    -0.030 A 
ATOM     13 CL   LIG    1        2.533   4.203  -0.587  0.00  0.00    -0.060 Cl
ATOM     14  C   LIG    1       -0.155   3.906  -0.459  0.00  0.00    +0.050 A 
ENDBRANCH   6   8
BRANCH   4  15
ATOM     15  C   LIG    1       -5.407   3.181   2.225  0.00  0.00    -0.070 A 
ATOM     16  C   LIG    1       -5.109   3.838   3.421  0.00  0.00    +0.080 A 
ATOM     17  C   LIG    1       -5.970   3.737   4.494  0.00  0.00    -0.010 A 
ATOM     18  C   LIG    1       -7.124   2.979   4.396  0.00  0.00    +0.080 A 
ATOM     19  C   LIG    1       -7.429   2.320   3.220  0.00  0.00    -0.010 A 
ATOM     20  C   LIG    1       -6.578   2.414   2.129  0.00  0.00    +0.200 A 
BRANCH  20  21
ATOM     21  N   LIG    1       -6.884   1.749   0.943  0.00  0.00    -1.050 N 
ATOM     22  H   LIG    1       -6.174   1.368   0.404  0.00  0.00    +0.430 HD
BRANCH  21  23
ATOM     23  S   LIG    1       -8.460   1.610   0.455  0.00  0.00    +2.600 S 
ATOM     24  O   LIG    1       -9.112   0.983   1.551  0.00  0.00    -0.950 OA
ATOM     25  O   LIG    1       -8.380   0.973  -0.812  0.00  0.00    -0.940 OA
ATOM     26  C   LIG    1       -9.030   3.323   0.271  0.00  0.00    -0.270 C 
ENDBRANCH  21  23
ENDBRANCH  20  21
ENDBRANCH   4  15
BRANCH   1  28
ATOM     27  C   LIG    1       -4.417   1.217  -4.215  0.00  0.00    +0.050 C 
ATOM     28  C   LIG    1       -4.713   1.613  -2.768  0.00  0.00    +0.070 C 
ENDBRANCH   1  28
TORSDOF 5
