REMARK  Name = ZINCpk00000xZj5j.0
REMARK                            x       y       z     vdW  Elec       q    Type
REMARK                         _______ _______ _______ _____ _____    ______ ____
ROOT
ATOM      1  O   LIG    1       -0.527   3.814   1.791  0.00  0.00    -0.560 OA
ATOM      2  C   LIG    1       -0.184   4.977   1.692  0.00  0.00    +0.710 C 
ATOM      3  N   LIG    1        0.795   5.320   0.832  0.00  0.00    -0.630 N 
ATOM      4  C   LIG    1        1.286   6.705   0.756  0.00  0.00    +0.250 C 
ATOM      5  C   LIG    1        1.276   7.142  -0.713  0.00  0.00    +0.210 C 
ATOM      6  O   LIG    1        1.979   6.175  -1.497  0.00  0.00    -0.370 OA
ATOM      7  C   LIG    1        1.388   4.873  -1.489  0.00  0.00    +0.240 C 
ATOM      8  C   LIG    1        1.404   4.320  -0.060  0.00  0.00    +0.330 C 
ATOM      9  N   LIG    1       -0.784   5.922   2.442  0.00  0.00    -0.750 N 
ATOM     10  H   LIG    1       -0.560   6.857   2.314  0.00  0.00    +0.390 HD
ENDROOT
BRANCH   8  11
ATOM     11  C   LIG    1        0.613   3.039  -0.002  0.00  0.00    +0.250 A 
ATOM     12  N   LIG    1        1.091   1.865   0.315  0.00  0.00    -0.310 NA
ATOM     13  N   LIG    1        0.020   0.958   0.245  0.00  0.00    -0.480 N 
ATOM     14  H   LIG    1        0.052   0.005   0.424  0.00  0.00    +0.440 HD
ATOM     15  C   LIG    1       -1.057   1.673  -0.126  0.00  0.00    +0.480 A 
ATOM     16  N   LIG    1       -0.688   2.920  -0.266  0.00  0.00    -0.510 NA
ENDBRANCH   8  11
BRANCH   9  17
ATOM     17  C   LIG    1       -1.773   5.538   3.452  0.00  0.00    +0.290 C 
BRANCH  17  18
ATOM     18  C   LIG    1       -2.202   6.776   4.243  0.00  0.00    +0.040 C 
ATOM     19  C   LIG    1       -0.991   7.357   4.976  0.00  0.00    +0.000 C 
ATOM     20  C   LIG    1       -1.492   8.401   5.982  0.00  0.00    +0.240 C 
ATOM     21  O   LIG    1       -2.283   7.734   6.966  0.00  0.00    -0.320 OA
ATOM     22  C   LIG    1       -3.251   6.885   6.534  0.00  0.00    +0.140 A 
ATOM     23  C   LIG    1       -4.251   6.509   7.426  0.00  0.00    -0.020 A 
ATOM     24  C   LIG    1       -5.250   5.644   7.025  0.00  0.00    +0.050 A 
ATOM     25  C   LIG    1       -5.258   5.150   5.734  0.00  0.00    -0.020 A 
ATOM     26  C   LIG    1       -4.267   5.522   4.846  0.00  0.00    +0.050 A 
ATOM     27  C   LIG    1       -3.263   6.390   5.242  0.00  0.00    -0.160 A 
ENDBRANCH  17  18
ENDBRANCH   9  17
TORSDOF 3
