REMARK  Name = ZINCpk00000xZj5j.1
REMARK                            x       y       z     vdW  Elec       q    Type
REMARK                         _______ _______ _______ _____ _____    ______ ____
ROOT
ATOM      1  O   LIG    1       -4.951   2.021   5.036  0.00  0.00    -0.550 OA
ATOM      2  C   LIG    1       -5.087   0.929   4.519  0.00  0.00    +0.710 C 
ATOM      3  N   LIG    1       -6.292   0.553   4.045  0.00  0.00    -0.630 N 
ATOM      4  C   LIG    1       -6.454  -0.706   3.302  0.00  0.00    +0.250 C 
ATOM      5  C   LIG    1       -7.199  -0.411   2.000  0.00  0.00    +0.210 C 
ATOM      6  O   LIG    1       -8.397   0.311   2.294  0.00  0.00    -0.370 OA
ATOM      7  C   LIG    1       -8.177   1.588   2.899  0.00  0.00    +0.250 C 
ATOM      8  C   LIG    1       -7.482   1.393   4.252  0.00  0.00    +0.320 C 
ATOM      9  N   LIG    1       -4.033   0.095   4.418  0.00  0.00    -0.740 N 
ATOM     10  H   LIG    1       -4.124  -0.746   3.943  0.00  0.00    +0.390 HD
ENDROOT
BRANCH   8  11
ATOM     11  C   LIG    1       -7.069   2.731   4.808  0.00  0.00    +0.200 A 
ATOM     12  N   LIG    1       -6.347   3.632   4.199  0.00  0.00    -0.250 NA
ATOM     13  N   LIG    1       -6.189   4.652   4.968  0.00  0.00    -0.290 NA
ATOM     14  C   LIG    1       -6.803   4.447   6.101  0.00  0.00    +0.370 A 
ATOM     15  N   LIG    1       -7.383   3.224   6.030  0.00  0.00    -0.580 N 
ATOM     16  H   LIG    1       -7.914   2.790   6.716  0.00  0.00    +0.420 HD
ENDBRANCH   8  11
BRANCH   9  17
ATOM     17  C   LIG    1       -2.752   0.457   5.028  0.00  0.00    +0.300 C 
BRANCH  17  18
ATOM     18  C   LIG    1       -1.700  -0.593   4.667  0.00  0.00    +0.040 C 
ATOM     19  C   LIG    1       -2.092  -1.939   5.283  0.00  0.00    +0.000 C 
ATOM     20  C   LIG    1       -0.894  -2.890   5.162  0.00  0.00    +0.240 C 
ATOM     21  O   LIG    1        0.175  -2.373   5.956  0.00  0.00    -0.310 OA
ATOM     22  C   LIG    1        0.503  -1.064   5.803  0.00  0.00    +0.140 A 
ATOM     23  C   LIG    1        1.738  -0.630   6.273  0.00  0.00    -0.020 A 
ATOM     24  C   LIG    1        2.105   0.694   6.140  0.00  0.00    +0.050 A 
ATOM     25  C   LIG    1        1.244   1.593   5.539  0.00  0.00    -0.020 A 
ATOM     26  C   LIG    1        0.017   1.165   5.070  0.00  0.00    +0.050 A 
ATOM     27  C   LIG    1       -0.356  -0.163   5.199  0.00  0.00    -0.160 A 
ENDBRANCH  17  18
ENDBRANCH   9  17
TORSDOF 3
