REMARK  Name = ZINCkj00000GbInb.1
REMARK                            x       y       z     vdW  Elec       q    Type
REMARK                         _______ _______ _______ _____ _____    ______ ____
ROOT
ATOM      1  C   LIG    1        1.283   4.730  -1.414  0.00  0.00    +0.140 C 
ATOM      2  C   LIG    1        1.328   3.180  -1.400  0.00  0.00    +0.070 C 
ATOM      3  C   LIG    1        1.290   2.880   0.120  0.00  0.00    +0.250 C 
ATOM      4  N   LIG    1        0.381   3.900   0.683  0.00  0.00    -0.490 NA
ATOM      5  C   LIG    1        0.359   5.063  -0.223  0.00  0.00    +0.170 C 
ENDROOT
BRANCH   3   6
ATOM      6  C   LIG    1        0.746   1.497   0.368  0.00  0.00    +0.200 A 
ATOM      7  N   LIG    1       -0.511   1.196   0.554  0.00  0.00    -0.450 NA
ATOM      8  C   LIG    1       -0.625  -0.127   0.745  0.00  0.00    +0.140 A 
ATOM      9  C   LIG    1        0.607  -0.666   0.674  0.00  0.00    +0.140 A 
ATOM     10  N   LIG    1        1.477   0.364   0.436  0.00  0.00    -0.570 N 
ATOM     11  H   LIG    1        2.439   0.292   0.334  0.00  0.00    +0.420 HD
ENDBRANCH   3   6
BRANCH   1  13
ATOM     12  C   LIG    1        1.140   6.532  -2.989  0.00  0.00    +0.210 C 
ATOM     13  O   LIG    1        0.722   5.212  -2.638  0.00  0.00    -0.370 OA
ENDBRANCH   1  13
BRANCH   4  14
ATOM     14  C   LIG    1        0.803   4.294   2.034  0.00  0.00    +0.170 C 
BRANCH  14  15
ATOM     15  C   LIG    1       -0.083   5.437   2.533  0.00  0.00    +0.350 C 
BRANCH  15  16
ATOM     16  N   LIG    1        0.254   5.743   3.926  0.00  0.00    -0.400 N 
ATOM     17  C   LIG    1       -0.378   5.259   5.039  0.00  0.00    +0.260 C 
ATOM     18  C   LIG    1        0.251   5.790   6.105  0.00  0.00    +0.230 C 
ATOM     19  N   LIG    1        1.233   6.584   5.655  0.00  0.00    -0.480 N 
ATOM     20  H   LIG    1        1.842   7.096   6.211  0.00  0.00    +0.460 HD
ATOM     21  C   LIG    1        1.240   6.561   4.350  0.00  0.00    +0.310 C 
ATOM     22  C   LIG    1        2.192   7.323   3.463  0.00  0.00    +0.230 C 
ENDBRANCH  15  16
ENDBRANCH  14  15
ENDBRANCH   4  14
TORSDOF 5
