REMARK  Name = ZINCrD00000hQ7f0.0
REMARK                            x       y       z     vdW  Elec       q    Type
REMARK                         _______ _______ _______ _____ _____    ______ ____
ROOT
ATOM      1  C   LIG    1       -1.401   4.137   1.285  0.00  0.00    +0.530 C 
ATOM      2  N   LIG    1       -1.804   2.851   1.253  0.00  0.00    -0.730 N 
ATOM      3  H   LIG    1       -1.315   2.177   1.750  0.00  0.00    +0.400 HD
ATOM      4  O   LIG    1       -1.962   4.965   0.599  0.00  0.00    -0.530 OA
ENDROOT
BRANCH   1   5
ATOM      5  C   LIG    1       -0.254   4.545   2.173  0.00  0.00    -0.040 C 
ATOM      6  C   LIG    1       -0.564   4.181   3.635  0.00  0.00    +0.030 C 
ATOM      7  C   LIG    1       -0.559   5.503   4.429  0.00  0.00    +0.020 C 
ATOM      8  C   LIG    1       -0.855   6.588   3.364  0.00  0.00    +0.010 C 
ATOM      9  C   LIG    1       -0.071   6.076   2.129  0.00  0.00    +0.060 C 
BRANCH   5  16
ATOM     10  C   LIG    1        2.155   4.794   3.749  0.00  0.00    +0.090 C 
ATOM     11  C   LIG    1        2.165   3.980   2.481  0.00  0.00    -0.070 A 
ATOM     12  C   LIG    1        3.325   3.348   2.074  0.00  0.00    +0.000 A 
ATOM     13  C   LIG    1        3.336   2.606   0.908  0.00  0.00    +0.010 A 
ATOM     14  C   LIG    1        2.185   2.492   0.151  0.00  0.00    +0.000 A 
ATOM     15  C   LIG    1        1.023   3.119   0.560  0.00  0.00    +0.000 A 
ATOM     16  C   LIG    1        1.012   3.861   1.726  0.00  0.00    -0.070 A 
ENDBRANCH   5  16
ENDBRANCH   1   5
BRANCH   2  17
ATOM     17  C   LIG    1       -2.981   2.472   0.467  0.00  0.00    +0.240 C 
BRANCH  17  18
ATOM     18  C   LIG    1       -3.295   0.993   0.701  0.00  0.00    +0.170 C 
ATOM     19  C   LIG    1       -3.736   0.775   2.164  0.00  0.00    +0.020 C 
ATOM     20  C   LIG    1       -4.863  -0.283   2.036  0.00  0.00    +0.030 C 
ATOM     21  C   LIG    1       -5.534   0.135   0.704  0.00  0.00    +0.200 C 
ATOM     22  N   LIG    1       -4.417   0.576  -0.159  0.00  0.00    -0.460 N 
BRANCH  22  23
ATOM     23  C   LIG    1       -4.814   1.612  -0.997  0.00  0.00    +0.240 A 
ATOM     24  C   LIG    1       -4.292   1.709  -2.287  0.00  0.00    +0.050 A 
ATOM     25  C   LIG    1       -4.725   2.757  -3.084  0.00  0.00    +0.040 A 
ATOM     26  C   LIG    1       -5.645   3.647  -2.550  0.00  0.00    +0.200 A 
ATOM     27  N   LIG    1       -6.082   3.483  -1.317  0.00  0.00    -0.230 NA
ATOM     28  N   LIG    1       -5.686   2.515  -0.573  0.00  0.00    -0.270 NA
ENDBRANCH  22  23
ENDBRANCH  17  18
ENDBRANCH   2  17
TORSDOF 5
