REMARK  Name = ZINCkj00000dDsYW.0
REMARK                            x       y       z     vdW  Elec       q    Type
REMARK                         _______ _______ _______ _____ _____    ______ ____
ROOT
ATOM      1  C   LIG    1       -0.014   1.209   0.009  0.00  0.00    +0.510 C 
ATOM      2  N   LIG    1       -1.191   1.867   0.018  0.00  0.00    -0.580 N 
ATOM      3  C   LIG    1       -1.245   3.338   0.026  0.00  0.00    +0.290 C 
ATOM      4  C   LIG    1       -1.898   3.791  -1.279  0.00  0.00    +0.100 C 
ATOM      5  C   LIG    1       -3.153   3.004  -1.552  0.00  0.00    -0.120 A 
ATOM      6  C   LIG    1       -4.075   3.549  -2.441  0.00  0.00    +0.140 A 
ATOM      7  C   LIG    1       -5.242   2.875  -2.743  0.00  0.00    -0.020 A 
ATOM      8  C   LIG    1       -5.499   1.648  -2.157  0.00  0.00    +0.150 A 
ATOM      9  C   LIG    1       -4.585   1.108  -1.271  0.00  0.00    +0.000 A 
ATOM     10  F   LIG    1       -6.637   0.981  -2.449  0.00  0.00    -0.120 F 
ATOM     11  F   LIG    1       -3.825   4.746  -3.015  0.00  0.00    -0.120 F 
ATOM     12  C   LIG    1       -3.414   1.786  -0.965  0.00  0.00    -0.040 A 
ATOM     13  C   LIG    1       -2.468   1.146   0.014  0.00  0.00    +0.300 C 
ATOM     14  C   LIG    1       -3.083   1.192   1.414  0.00  0.00    +0.070 C 
ATOM     15  O   LIG    1        0.002  -0.004   0.002  0.00  0.00    -0.510 OA
ENDROOT
BRANCH   1  16
ATOM     16  C   LIG    1        1.280   1.980   0.001  0.00  0.00    +0.180 C 
BRANCH  16  17
ATOM     17  N   LIG    1        2.372   1.110   0.459  0.00  0.00    -0.620 N 
ATOM     18  H   LIG    1        2.450   0.315  -0.157  0.00  0.00    +0.440 HD
ATOM     19  H   LIG    1        2.176   0.791   1.396  0.00  0.00    +0.440 HD
ATOM     20  H   LIG    1        3.238   1.626   0.454  0.00  0.00    +0.450 HD
ENDBRANCH  16  17
BRANCH  16  21
ATOM     21  C   LIG    1        1.577   2.464  -1.420  0.00  0.00    +0.220 C 
BRANCH  21  23
ATOM     22  C   LIG    1        3.107   3.799  -2.693  0.00  0.00    +0.260 C 
ATOM     23  O   LIG    1        2.741   3.292  -1.408  0.00  0.00    -0.400 OA
ENDBRANCH  21  23
ENDBRANCH  16  21
ENDBRANCH   1  16
TORSDOF 4
