REMARK  Name = ZINC670000003Wr8.0
REMARK                            x       y       z     vdW  Elec       q    Type
REMARK                         _______ _______ _______ _____ _____    ______ ____
ROOT
ATOM      1  C   LIG    1       -1.187   1.624   0.017  0.00  0.00    +0.280 C 
ATOM      2  S   LIG    1       -2.561   0.805   0.019  0.00  0.00    -0.420 S 
ENDROOT
BRANCH   1   3
ATOM      3  N   LIG    1       -0.011   0.966   0.007  0.00  0.00    -0.770 N 
ATOM      4  H   LIG    1        0.822   1.462   0.002  0.00  0.00    +0.400 HD
ATOM      5  H   LIG    1        0.002  -0.004   0.002  0.00  0.00    +0.420 HD
ENDBRANCH   1   3
BRANCH   1   6
ATOM      6  C   LIG    1       -1.208   3.131   0.025  0.00  0.00    +0.270 C 
BRANCH   6   8
ATOM      7  N   LIG    1       -3.678   3.966   0.041  0.00  0.00    -0.390 NA
ATOM      8  C   LIG    1       -2.602   3.602   0.034  0.00  0.00    +0.210 C 
ENDBRANCH   6   8
ENDBRANCH   1   6
TORSDOF 3
