REMARK  Name = ZINCrH000004sSem.0
REMARK                            x       y       z     vdW  Elec       q    Type
REMARK                         _______ _______ _______ _____ _____    ______ ____
ROOT
ATOM      1  C   LIG    1        1.029   3.520   0.011  0.00  0.00    +0.310 C 
ENDROOT
BRANCH   1   8
ATOM      2  C   LIG    1       -1.169  -3.477  -0.005  0.00  0.00    +0.180 C 
ATOM      3  C   LIG    1       -0.396  -2.184  -0.006  0.00  0.00    +0.020 A 
ATOM      4  C   LIG    1        0.942  -2.089  -0.018  0.00  0.00    -0.140 A 
ATOM      5  C   LIG    1        1.246  -0.657  -0.013  0.00  0.00    -0.290 A 
ATOM      6  C   LIG    1        2.416   0.117  -0.019  0.00  0.00    +0.500 A 
ATOM      7  N   LIG    1        2.295   1.442  -0.011  0.00  0.00    -0.570 NA
ATOM      8  C   LIG    1        1.106   2.014   0.002  0.00  0.00    +0.400 A 
ATOM      9  N   LIG    1       -0.016   1.326   0.009  0.00  0.00    -0.540 NA
ATOM     10  C   LIG    1        0.002  -0.004   0.002  0.00  0.00    +0.330 A 
ATOM     11  C   LIG    1        1.931  -3.225  -0.034  0.00  0.00    +0.140 C 
ATOM     12  O   LIG    1       -0.946  -0.956   0.006  0.00  0.00    -0.170 OA
BRANCH   6  13
ATOM     13  N   LIG    1        3.662  -0.483  -0.035  0.00  0.00    -0.830 N 
ATOM     14  H   LIG    1        4.463   0.065  -0.039  0.00  0.00    +0.410 HD
ATOM     15  H   LIG    1        3.736  -1.450  -0.042  0.00  0.00    +0.410 HD
ENDBRANCH   6  13
ENDBRANCH   1   8
BRANCH   1  16
ATOM     16  N   LIG    1        1.018   4.001   1.399  0.00  0.00    -0.530 NA
ATOM     17  C   LIG    1       -0.206   3.580   2.092  0.00  0.00    +0.170 C 
ATOM     18  C   LIG    1       -0.119   3.972   3.569  0.00  0.00    +0.030 C 
ATOM     19  C   LIG    1        0.056   5.489   3.679  0.00  0.00    -0.010 C 
ATOM     20  C   LIG    1        1.312   5.907   2.909  0.00  0.00    +0.040 C 
ATOM     21  C   LIG    1        1.183   5.459   1.451  0.00  0.00    +0.180 C 
BRANCH  19  22
ATOM     22  C   LIG    1        0.206   5.880   5.151  0.00  0.00    +0.190 C 
BRANCH  22  23
ATOM     23  O   LIG    1       -1.010   5.596   5.845  0.00  0.00    -0.310 OA
BRANCH  23  24
ATOM     24  C   LIG    1       -1.046   5.886   7.172  0.00  0.00    +0.130 A 
ATOM     25  C   LIG    1        0.069   6.429   7.795  0.00  0.00    -0.080 A 
ATOM     26  C   LIG    1        0.028   6.729   9.143  0.00  0.00    +0.040 A 
ATOM     27  C   LIG    1       -1.118   6.479   9.874  0.00  0.00    -0.040 A 
ATOM     28  C   LIG    1       -2.228   5.932   9.257  0.00  0.00    +0.050 A 
ATOM     29  C   LIG    1       -2.195   5.636   7.908  0.00  0.00    -0.020 A 
ENDBRANCH  23  24
ENDBRANCH  22  23
ENDBRANCH  19  22
ENDBRANCH   1  16
TORSDOF 6
