REMARK  Name = ZINCrD00000l0XxK.0
REMARK                            x       y       z     vdW  Elec       q    Type
REMARK                         _______ _______ _______ _____ _____    ______ ____
ROOT
ATOM      1  C   LIG    1       -2.145  -0.254  -1.538  0.00  0.00    +0.050 C 
ATOM      2  C   LIG    1       -1.369  -0.816  -0.345  0.00  0.00    +0.180 C 
ATOM      3  C   LIG    1       -1.978  -0.287   0.960  0.00  0.00    +0.030 C 
ATOM      4  C   LIG    1       -1.311  -1.023   2.124  0.00  0.00    +0.040 C 
ATOM      5  C   LIG    1        0.185  -1.027   1.930  0.00  0.00    -0.110 A 
ATOM      6  C   LIG    1        0.983  -1.349   3.016  0.00  0.00    +0.010 A 
ATOM      7  C   LIG    1        2.358  -1.375   2.891  0.00  0.00    -0.010 A 
ATOM      8  C   LIG    1        2.946  -1.077   1.675  0.00  0.00    +0.010 A 
ATOM      9  C   LIG    1        2.158  -0.753   0.592  0.00  0.00    +0.040 A 
ATOM     10  C   LIG    1        0.768  -0.723   0.712  0.00  0.00    +0.120 A 
ATOM     11  N   LIG    1        0.027  -0.382  -0.419  0.00  0.00    -0.490 N 
ENDROOT
BRANCH   4  12
ATOM     12  C   LIG    1       -1.647  -0.327   3.417  0.00  0.00    +0.530 C 
ATOM     13  O   LIG    1       -1.870   0.865   3.424  0.00  0.00    -0.530 OA
ATOM     14  N   LIG    1       -1.701  -1.029   4.566  0.00  0.00    -0.860 N 
ATOM     15  H   LIG    1       -1.843  -0.570   5.409  0.00  0.00    +0.400 HD
ATOM     16  H   LIG    1       -1.596  -1.993   4.551  0.00  0.00    +0.400 HD
ENDBRANCH   4  12
BRANCH  11  17
ATOM     17  C   LIG    1        0.118   1.058  -0.693  0.00  0.00    +0.300 C 
BRANCH  17  18
ATOM     18  C   LIG    1        1.444   1.365  -1.340  0.00  0.00    +0.090 A 
ATOM     19  N   LIG    1        2.571   1.585  -0.713  0.00  0.00    -0.270 NA
ATOM     20  N   LIG    1        3.564   1.830  -1.670  0.00  0.00    -0.330 N 
ATOM     21  C   LIG    1        2.992   1.749  -2.892  0.00  0.00    +0.230 A 
ATOM     22  C   LIG    1        1.683   1.457  -2.716  0.00  0.00    -0.080 A 
BRANCH  20  23
ATOM     23  C   LIG    1        4.912   2.110  -1.406  0.00  0.00    +0.200 A 
ATOM     24  C   LIG    1        5.368   2.163  -0.096  0.00  0.00    +0.010 A 
ATOM     25  C   LIG    1        6.697   2.439   0.162  0.00  0.00    +0.080 A 
ATOM     26  C   LIG    1        7.574   2.662  -0.883  0.00  0.00    -0.020 A 
ATOM     27  C   LIG    1        7.123   2.610  -2.192  0.00  0.00    +0.130 A 
ATOM     28  F   LIG    1        7.982   2.828  -3.212  0.00  0.00    -0.130 F 
ATOM     29  C   LIG    1        5.795   2.329  -2.455  0.00  0.00    -0.040 A 
ENDBRANCH  20  23
ENDBRANCH  17  18
ENDBRANCH  11  17
TORSDOF 4
