REMARK  Name = ZINCkj000005fS0I.1
REMARK                            x       y       z     vdW  Elec       q    Type
REMARK                         _______ _______ _______ _____ _____    ______ ____
ROOT
ATOM      1  C   LIG    1       -0.753   1.593  -1.232  0.00  0.00    +0.190 C 
ENDROOT
BRANCH   1   2
ATOM      2  O   LIG    1       -0.672   3.018  -1.285  0.00  0.00    -0.540 OA
ATOM      3  H   LIG    1        0.232   3.360  -1.333  0.00  0.00    +0.390 HD
ENDBRANCH   1   2
BRANCH   1   4
ATOM      4  C   LIG    1       -0.111   0.998  -2.487  0.00  0.00    +0.300 C 
BRANCH   4   9
ATOM      5  C   LIG    1       -0.769   2.536  -4.363  0.00  0.00    +0.230 A 
ATOM      6  N   LIG    1       -1.631   2.524  -5.343  0.00  0.00    -0.480 NA
ATOM      7  C   LIG    1       -2.328   1.379  -5.305  0.00  0.00    +0.160 A 
ATOM      8  C   LIG    1       -1.876   0.650  -4.266  0.00  0.00    +0.110 A 
ATOM      9  N   LIG    1       -0.891   1.387  -3.665  0.00  0.00    -0.460 N 
BRANCH   5  10
ATOM     10  C   LIG    1        0.202   3.649  -4.061  0.00  0.00    +0.140 C 
BRANCH  10  12
ATOM     11  C   LIG    1        2.496   4.531  -4.506  0.00  0.00    +0.020 C 
ATOM     12  C   LIG    1        1.511   3.401  -4.813  0.00  0.00    +0.020 C 
ENDBRANCH  10  12
ENDBRANCH   5  10
ENDBRANCH   4   9
ENDBRANCH   1   4
BRANCH   1  13
ATOM     13  C   LIG    1       -0.013   1.086   0.008  0.00  0.00    +0.250 C 
BRANCH  13  14
ATOM     14  N   LIG    1       -0.702   1.561   1.219  0.00  0.00    -0.380 N 
ATOM     15  C   LIG    1       -2.026   0.934   1.296  0.00  0.00    +0.230 C 
ATOM     16  C   LIG    1       -2.774   1.413   2.536  0.00  0.00    +0.220 C 
ATOM     17  O   LIG    1       -1.982   1.375   3.702  0.00  0.00    -0.350 OA
ATOM     18  C   LIG    1       -0.602   1.661   3.675  0.00  0.00    +0.220 C 
ATOM     19  C   LIG    1       -0.339   3.157   3.870  0.00  0.00    +0.030 C 
ATOM     20  C   LIG    1       -3.346   2.813   2.296  0.00  0.00    +0.030 C 
ATOM     21  C   LIG    1        0.078   1.173   2.400  0.00  0.00    +0.240 C 
ATOM     22  H   LIG    1       -0.790   2.562   1.171  0.00  0.00    +0.430 HD
ENDBRANCH  13  14
ENDBRANCH   1  13
TORSDOF 7
