REMARK  Name = ZINCkj000005fS0I.0
REMARK                            x       y       z     vdW  Elec       q    Type
REMARK                         _______ _______ _______ _____ _____    ______ ____
ROOT
ATOM      1  C   LIG    1       -1.978   4.822  -1.305  0.00  0.00    +0.190 C 
ENDROOT
BRANCH   1   2
ATOM      2  O   LIG    1       -0.815   5.393  -1.910  0.00  0.00    -0.540 OA
ATOM      3  H   LIG    1       -0.422   6.115  -1.401  0.00  0.00    +0.390 HD
ENDBRANCH   1   2
BRANCH   1   4
ATOM      4  C   LIG    1       -1.633   4.333   0.102  0.00  0.00    +0.300 C 
BRANCH   4   9
ATOM      5  C   LIG    1       -0.919   1.938  -0.164  0.00  0.00    +0.210 A 
ATOM      6  N   LIG    1        0.208   1.280  -0.189  0.00  0.00    -0.480 NA
ATOM      7  C   LIG    1        1.225   2.140  -0.026  0.00  0.00    +0.150 A 
ATOM      8  C   LIG    1        0.709   3.376   0.109  0.00  0.00    +0.130 A 
ATOM      9  N   LIG    1       -0.651   3.249   0.016  0.00  0.00    -0.460 N 
BRANCH   5  10
ATOM     10  C   LIG    1       -2.291   1.334  -0.312  0.00  0.00    +0.140 C 
BRANCH  10  12
ATOM     11  C   LIG    1       -4.172   0.224   0.902  0.00  0.00    +0.020 C 
ATOM     12  C   LIG    1       -2.807   0.896   1.060  0.00  0.00    +0.020 C 
ENDBRANCH  10  12
ENDBRANCH   5  10
ENDBRANCH   4   9
ENDBRANCH   1   4
BRANCH   1  13
ATOM     13  C   LIG    1       -3.080   5.880  -1.222  0.00  0.00    +0.240 C 
BRANCH  13  14
ATOM     14  N   LIG    1       -3.495   6.263  -2.578  0.00  0.00    -0.380 N 
ATOM     15  C   LIG    1       -4.467   7.363  -2.501  0.00  0.00    +0.240 C 
ATOM     16  C   LIG    1       -4.897   7.760  -3.915  0.00  0.00    +0.160 C 
ATOM     17  O   LIG    1       -5.447   6.619  -4.579  0.00  0.00    -0.350 OA
ATOM     18  C   LIG    1       -4.546   5.511  -4.658  0.00  0.00    +0.160 C 
ATOM     19  C   LIG    1       -5.246   4.330  -5.333  0.00  0.00    +0.110 C 
ATOM     20  C   LIG    1       -5.953   8.865  -3.836  0.00  0.00    +0.110 C 
ATOM     21  C   LIG    1       -4.115   5.110  -3.245  0.00  0.00    +0.230 C 
ATOM     22  H   LIG    1       -2.689   6.563  -3.105  0.00  0.00    +0.430 HD
ENDBRANCH  13  14
ENDBRANCH   1  13
TORSDOF 7
