REMARK  Name = ZINCrg00000IX4o6.0
REMARK                            x       y       z     vdW  Elec       q    Type
REMARK                         _______ _______ _______ _____ _____    ______ ____
ROOT
ATOM      1  C   LIG    1        3.757  -0.967  -0.116  0.00  0.00    +0.280 C 
ENDROOT
BRANCH   1   2
ATOM      2  C   LIG    1        3.863  -2.283  -0.842  0.00  0.00    +0.520 C 
ATOM      3  N   LIG    1        5.062  -2.883  -0.979  0.00  0.00    -0.670 N 
ATOM      4  H   LIG    1        5.867  -2.431  -0.681  0.00  0.00    +0.410 HD
ATOM      5  O   LIG    1        2.869  -2.804  -1.302  0.00  0.00    -0.490 OA
BRANCH   3   6
ATOM      6  C   LIG    1        5.146  -4.157  -1.552  0.00  0.00    +0.140 A 
ATOM      7  C   LIG    1        4.051  -5.009  -1.516  0.00  0.00    +0.060 A 
ATOM      8  C   LIG    1        4.135  -6.266  -2.083  0.00  0.00    +0.010 A 
ATOM      9  C   LIG    1        5.312  -6.677  -2.686  0.00  0.00    +0.080 A 
ATOM     10  C   LIG    1        6.406  -5.829  -2.723  0.00  0.00    +0.040 A 
ATOM     11  F   LIG    1        5.393  -7.907  -3.239  0.00  0.00    -0.140 F 
ATOM     12  C   LIG    1        6.324  -4.569  -2.162  0.00  0.00    -0.100 A 
BRANCH  12  13
ATOM     13  C   LIG    1        7.513  -3.644  -2.208  0.00  0.00    +0.240 C 
BRANCH  13  14
ATOM     14  O   LIG    1        8.594  -4.291  -2.882  0.00  0.00    -0.560 OA
ATOM     15  H   LIG    1        9.394  -3.753  -2.949  0.00  0.00    +0.390 HD
ENDBRANCH  13  14
ENDBRANCH  12  13
ENDBRANCH   3   6
ENDBRANCH   1   2
BRANCH   1  16
ATOM     16  N   LIG    1        2.359  -0.528  -0.102  0.00  0.00    -0.700 N 
ATOM     17  H   LIG    1        1.645  -1.184  -0.110  0.00  0.00    +0.420 HD
ATOM     18  C   LIG    1        2.066   0.787  -0.078  0.00  0.00    +0.560 C 
ATOM     19  O   LIG    1        2.958   1.607   0.025  0.00  0.00    -0.530 OA
BRANCH  18  20
ATOM     20  C   LIG    1        0.662   1.233  -0.177  0.00  0.00    -0.180 A 
ATOM     21  C   LIG    1       -0.365   0.295  -0.295  0.00  0.00    +0.090 A 
ATOM     22  C   LIG    1       -1.674   0.718  -0.391  0.00  0.00    +0.000 A 
ATOM     23  C   LIG    1       -1.974   2.069  -0.361  0.00  0.00    +0.080 A 
ATOM     24  C   LIG    1       -0.964   3.006  -0.244  0.00  0.00    -0.030 A 
ATOM     25  C   LIG    1        0.354   2.597  -0.152  0.00  0.00    +0.160 A 
ATOM     26  F   LIG    1        1.341   3.513  -0.038  0.00  0.00    -0.110 F 
ENDBRANCH  18  20
ENDBRANCH   1  16
BRANCH   1  27
ATOM     27  C   LIG    1        4.252  -1.136   1.322  0.00  0.00    +0.070 C 
BRANCH  27  31
ATOM     28  N   LIG    1        3.590  -2.398   3.343  0.00  0.00    -0.850 N 
ATOM     29  H   LIG    1        3.037  -3.051   3.801  0.00  0.00    +0.410 HD
ATOM     30  H   LIG    1        4.283  -1.925   3.829  0.00  0.00    +0.400 HD
ATOM     31  C   LIG    1        3.394  -2.150   2.033  0.00  0.00    +0.510 C 
ATOM     32  O   LIG    1        2.527  -2.743   1.427  0.00  0.00    -0.530 OA
ENDBRANCH  27  31
ENDBRANCH   1  27
TORSDOF 8
