REMARK  Name = ZINCvU0000000BHH.0
REMARK                            x       y       z     vdW  Elec       q    Type
REMARK                         _______ _______ _______ _____ _____    ______ ____
ROOT
ATOM      1  C   LIG    1        2.562  -0.235   3.724  0.00  0.00    +0.140 A 
ATOM      2  N   LIG    1        3.457  -0.855   4.458  0.00  0.00    -0.290 NA
ATOM      3  N   LIG    1        4.311  -1.443   3.700  0.00  0.00    -0.280 NA
ATOM      4  C   LIG    1        4.013  -1.241   2.447  0.00  0.00    +0.190 A 
ATOM      5  N   LIG    1        2.886  -0.467   2.418  0.00  0.00    -0.450 N 
ENDROOT
BRANCH   5   6
ATOM      6  C   LIG    1        2.178   0.019   1.231  0.00  0.00    +0.240 C 
ATOM      7  C   LIG    1        0.742  -0.511   1.242  0.00  0.00    +0.010 C 
ATOM      8  C   LIG    1        0.002  -0.004   0.002  0.00  0.00    +0.030 C 
ATOM      9  C   LIG    1       -0.019   1.526   0.010  0.00  0.00    +0.010 C 
ATOM     10  C   LIG    1        1.417   2.055  -0.000  0.00  0.00    +0.030 C 
ATOM     11  C   LIG    1        2.157   1.548   1.239  0.00  0.00    +0.010 C 
ENDBRANCH   5   6
BRANCH   1  12
ATOM     12  S   LIG    1        1.198   0.713   4.312  0.00  0.00    +0.070 S 
BRANCH  12  13
ATOM     13  C   LIG    1        1.448   0.549   6.097  0.00  0.00    +0.080 C 
BRANCH  13  15
ATOM     14  O   LIG    1       -0.490   1.893   6.202  0.00  0.00    -0.440 OA
ATOM     15  C   LIG    1        0.367   1.303   6.827  0.00  0.00    +0.440 C 
BRANCH  15  16
ATOM     16  C   LIG    1        0.350   1.322   8.241  0.00  0.00    -0.100 A 
ATOM     17  C   LIG    1       -0.577   1.968   9.040  0.00  0.00    +0.070 A 
ATOM     18  C   LIG    1       -0.212   1.723  10.365  0.00  0.00    -0.070 A 
ATOM     19  C   LIG    1        0.902   0.950  10.355  0.00  0.00    +0.230 A 
ATOM     20  N   LIG    1        1.250   0.695   9.077  0.00  0.00    -0.530 N 
ATOM     21  H   LIG    1        2.008   0.161   8.792  0.00  0.00    +0.420 HD
ENDBRANCH  15  16
ENDBRANCH  13  15
ENDBRANCH  12  13
ENDBRANCH   1  12
BRANCH   4  22
ATOM     22  C   LIG    1        4.770  -1.762   1.253  0.00  0.00    +0.210 C 
BRANCH  22  23
ATOM     23  C   LIG    1        5.827  -0.765   0.854  0.00  0.00    -0.070 A 
ATOM     24  C   LIG    1        5.570   0.151  -0.119  0.00  0.00    +0.010 A 
ATOM     25  C   LIG    1        6.535   1.081  -0.503  0.00  0.00    +0.010 A 
ATOM     26  C   LIG    1        7.762   1.100   0.085  0.00  0.00    +0.030 A 
ATOM     27  C   LIG    1        8.065   0.169   1.094  0.00  0.00    -0.050 A 
ATOM     28  C   LIG    1        9.320   0.158   1.724  0.00  0.00    +0.020 A 
ATOM     29  C   LIG    1        9.572  -0.747   2.709  0.00  0.00    +0.010 A 
ATOM     30  C   LIG    1        8.607  -1.677   3.092  0.00  0.00    +0.010 A 
ATOM     31  C   LIG    1        7.381  -1.699   2.500  0.00  0.00    +0.030 A 
ATOM     32  C   LIG    1        7.081  -0.773   1.488  0.00  0.00    -0.040 A 
ENDBRANCH  22  23
ENDBRANCH   4  22
TORSDOF 7
