REMARK  Name = ZINCrD00000s1ZQ3.0
REMARK                            x       y       z     vdW  Elec       q    Type
REMARK                         _______ _______ _______ _____ _____    ______ ____
ROOT
ATOM      1  C   LIG    1       -1.294   2.677   2.305  0.00  0.00    +0.080 C 
ATOM      2  C   LIG    1        0.150   2.583   1.809  0.00  0.00    +0.160 C 
ATOM      3  O   LIG    1        0.914   1.781   2.713  0.00  0.00    -0.360 OA
ATOM      4  C   LIG    1        2.299   1.673   2.373  0.00  0.00    +0.230 C 
ATOM      5  C   LIG    1        2.431   0.980   1.012  0.00  0.00    +0.270 C 
ATOM      6  N   LIG    1        1.574   1.686   0.046  0.00  0.00    -0.620 N 
ATOM      7  C   LIG    1        2.058   2.092  -1.144  0.00  0.00    +0.720 C 
ATOM      8  N   LIG    1        3.320   1.778  -1.501  0.00  0.00    -0.670 N 
ATOM      9  H   LIG    1        3.856   1.203  -0.933  0.00  0.00    +0.420 HD
ATOM     10  O   LIG    1        1.357   2.741  -1.897  0.00  0.00    -0.550 OA
ATOM     11  C   LIG    1        0.173   1.937   0.419  0.00  0.00    +0.360 C 
ENDROOT
BRANCH   8  12
ATOM     12  C   LIG    1        3.857   2.283  -2.692  0.00  0.00    +0.190 A 
ATOM     13  C   LIG    1        3.021   2.587  -3.757  0.00  0.00    +0.030 A 
ATOM     14  C   LIG    1        3.552   3.090  -4.932  0.00  0.00    +0.150 A 
ATOM     15  C   LIG    1        4.918   3.279  -5.050  0.00  0.00    -0.020 A 
ATOM     16  C   LIG    1        5.756   2.972  -3.991  0.00  0.00    +0.130 A 
ATOM     17  F   LIG    1        7.089   3.158  -4.108  0.00  0.00    -0.110 F 
ATOM     18  F   LIG    1        2.737   3.391  -5.967  0.00  0.00    -0.120 F 
ATOM     19  C   LIG    1        5.228   2.474  -2.812  0.00  0.00    +0.020 A 
ATOM     20  F   LIG    1        6.045   2.174  -1.778  0.00  0.00    -0.120 F 
ENDBRANCH   8  12
BRANCH  11  21
ATOM     21  C   LIG    1       -0.461   2.866  -0.584  0.00  0.00    +0.200 A 
ATOM     22  N   LIG    1       -1.453   2.582  -1.394  0.00  0.00    -0.470 NA
ATOM     23  C   LIG    1       -1.680   3.706  -2.096  0.00  0.00    +0.200 A 
ATOM     24  N   LIG    1       -0.825   4.597  -1.691  0.00  0.00    -0.370 NA
ATOM     25  O   LIG    1       -0.116   4.135  -0.822  0.00  0.00    +0.100 OA
BRANCH  23  26
ATOM     26  C   LIG    1       -2.728   3.896  -3.162  0.00  0.00    +0.050 C 
ATOM     27  C   LIG    1       -2.679   5.188  -3.980  0.00  0.00    +0.050 C 
ATOM     28  C   LIG    1       -3.777   4.986  -2.934  0.00  0.00    +0.050 C 
ENDBRANCH  23  26
ENDBRANCH  11  21
TORSDOF 3
