REMARK  Name = ZINC9l0000002rgw.0
REMARK                            x       y       z     vdW  Elec       q    Type
REMARK                         _______ _______ _______ _____ _____    ______ ____
ROOT
ATOM      1  C   LIG    1        0.940  -0.507   1.101  0.00  0.00    +0.010 C 
ATOM      2  C   LIG    1        0.002  -0.004   0.002  0.00  0.00    -0.090 C 
ENDROOT
BRANCH   2   3
ATOM      3  C   LIG    1       -0.019   1.526   0.010  0.00  0.00    +0.010 C 
ATOM      4  C   LIG    1       -0.945   2.123   1.083  0.00  0.00    -0.020 C 
ATOM      5  C   LIG    1       -1.355   3.170   0.031  0.00  0.00    -0.020 C 
ATOM      6  C   LIG    1       -0.965   2.135  -1.038  0.00  0.00    +0.030 C 
ENDBRANCH   2   3
BRANCH   2   7
ATOM      7  C   LIG    1        0.490  -0.492  -1.338  0.00  0.00    +0.500 C 
ATOM      8  O   LIG    1        0.582  -1.689  -1.554  0.00  0.00    -0.710 OA
ATOM      9  O   LIG    1        0.793   0.309  -2.205  0.00  0.00    -0.690 OA
ENDBRANCH   2   7
TORSDOF 2
