REMARK  Name = ZINCrD0000074xlO.0
REMARK                            x       y       z     vdW  Elec       q    Type
REMARK                         _______ _______ _______ _____ _____    ______ ____
ROOT
ATOM      1  C   LIG    1        1.799  11.065  -1.387  0.00  0.00    +0.520 C 
ATOM      2  N   LIG    1        1.324  10.075  -0.606  0.00  0.00    -0.610 N 
ATOM      3  C   LIG    1        2.135   9.535   0.495  0.00  0.00    +0.280 C 
ATOM      4  C   LIG    1        2.232   8.015   0.337  0.00  0.00    +0.050 C 
ATOM      5  C   LIG    1        0.823   7.424   0.246  0.00  0.00    +0.010 C 
ATOM      6  C   LIG    1        0.108   7.993  -0.982  0.00  0.00    +0.030 C 
ATOM      7  C   LIG    1       -0.013   9.513  -0.839  0.00  0.00    +0.280 C 
ATOM      8  O   LIG    1        2.905  11.520  -1.184  0.00  0.00    -0.510 OA
ENDROOT
BRANCH   5   9
ATOM      9  C   LIG    1        0.914   5.925   0.124  0.00  0.00    +0.510 C 
ATOM     10  N   LIG    1       -0.210   5.187   0.030  0.00  0.00    -0.660 N 
ATOM     11  H   LIG    1       -1.074   5.625  -0.034  0.00  0.00    +0.420 HD
ATOM     12  O   LIG    1        1.998   5.382   0.112  0.00  0.00    -0.460 OA
BRANCH  10  13
ATOM     13  C   LIG    1       -0.132   3.795   0.025  0.00  0.00    +0.360 A 
ATOM     14  C   LIG    1       -1.299   3.040   0.034  0.00  0.00    -0.070 A 
ATOM     15  C   LIG    1       -1.207   1.659   0.029  0.00  0.00    +0.090 A 
ATOM     16  C   LIG    1        0.054   1.079   0.015  0.00  0.00    -0.060 A 
ATOM     17  C   LIG    1        1.171   1.891   0.011  0.00  0.00    +0.290 A 
ATOM     18  N   LIG    1        1.053   3.205   0.011  0.00  0.00    -0.480 NA
ENDBRANCH  10  13
ENDBRANCH   5   9
BRANCH   1  19
ATOM     19  C   LIG    1        0.956  11.607  -2.512  0.00  0.00    +0.240 C 
BRANCH  19  20
ATOM     20  O   LIG    1        1.672  12.643  -3.188  0.00  0.00    -0.290 OA
BRANCH  20  24
ATOM     21  C   LIG    1        1.742  15.962  -6.765  0.00  0.00    +0.120 C 
ATOM     22  C   LIG    1        1.050  14.862  -6.003  0.00  0.00    -0.030 A 
ATOM     23  C   LIG    1        1.686  14.255  -4.938  0.00  0.00    +0.000 A 
ATOM     24  C   LIG    1        1.048  13.242  -4.236  0.00  0.00    +0.140 A 
ATOM     25  C   LIG    1       -0.225  12.837  -4.609  0.00  0.00    -0.070 A 
ATOM     26  C   LIG    1       -0.860  13.451  -5.672  0.00  0.00    +0.080 A 
ATOM     27  C   LIG    1       -0.222  14.461  -6.371  0.00  0.00    -0.080 A 
ATOM     28 CL   LIG    1       -1.019  15.225  -7.710  0.00  0.00    -0.070 Cl
ENDBRANCH  20  24
ENDBRANCH  19  20
ENDBRANCH   1  19
TORSDOF 5
