REMARK  Name = ZINCrg000000sXXX.0
REMARK                            x       y       z     vdW  Elec       q    Type
REMARK                         _______ _______ _______ _____ _____    ______ ____
ROOT
ATOM      1  C   LIG    1       -2.006   2.777   3.512  0.00  0.00    -0.230 A 
ATOM      2  C   LIG    1       -1.851   1.409   3.297  0.00  0.00    +0.230 A 
ATOM      3  C   LIG    1       -1.195   0.976   2.145  0.00  0.00    +0.030 A 
ATOM      4  C   LIG    1       -0.719   1.880   1.252  0.00  0.00    +0.090 A 
ATOM      5  N   LIG    1       -0.862   3.212   1.456  0.00  0.00    -0.460 N 
ATOM      6  C   LIG    1       -1.492   3.683   2.549  0.00  0.00    +0.550 A 
ATOM      7  O   LIG    1       -1.615   4.884   2.713  0.00  0.00    -0.530 OA
ENDROOT
BRANCH   1  11
ATOM      8  N   LIG    1       -2.733   4.595   4.971  0.00  0.00    -0.840 N 
ATOM      9  H   LIG    1       -3.120   4.917   5.800  0.00  0.00    +0.400 HD
ATOM     10  H   LIG    1       -2.375   5.225   4.325  0.00  0.00    +0.420 HD
ATOM     11  C   LIG    1       -2.692   3.272   4.715  0.00  0.00    +0.580 C 
ATOM     12  O   LIG    1       -3.222   2.489   5.479  0.00  0.00    -0.540 OA
ENDBRANCH   1  11
BRANCH   4  13
ATOM     13  C   LIG    1       -0.012   1.394   0.013  0.00  0.00    +0.510 C 
ATOM     14  F   LIG    1       -0.699   1.842  -1.121  0.00  0.00    -0.160 F 
ATOM     15  F   LIG    1        1.294   1.894  -0.006  0.00  0.00    -0.160 F 
ATOM     16  F   LIG    1        0.024  -0.004   0.014  0.00  0.00    -0.150 F 
ENDBRANCH   4  13
BRANCH   5  17
ATOM     17  C   LIG    1       -0.328   4.154   0.469  0.00  0.00    +0.340 C 
BRANCH  17  18
ATOM     18  C   LIG    1       -1.384   4.450  -0.564  0.00  0.00    +0.510 C 
ATOM     19  N   LIG    1       -1.116   5.298  -1.577  0.00  0.00    -0.690 N 
ATOM     20  H   LIG    1       -0.243   5.717  -1.641  0.00  0.00    +0.410 HD
ATOM     21  C   LIG    1       -2.060   5.564  -2.502  0.00  0.00    +0.700 C 
ATOM     22  N   LIG    1       -1.792   6.411  -3.515  0.00  0.00    -0.730 N 
ATOM     23  H   LIG    1       -0.919   6.830  -3.578  0.00  0.00    +0.400 HD
ATOM     24  O   LIG    1       -3.153   5.038  -2.422  0.00  0.00    -0.520 OA
ATOM     25  O   LIG    1       -2.474   3.927  -0.485  0.00  0.00    -0.440 OA
BRANCH  22  26
ATOM     26  C   LIG    1       -2.818   6.700  -4.519  0.00  0.00    +0.380 C 
BRANCH  26  27
ATOM     27  C   LIG    1       -2.269   7.669  -5.534  0.00  0.00    -0.220 A 
ATOM     28  C   LIG    1       -1.632   7.329  -6.656  0.00  0.00    +0.030 A 
ATOM     29  C   LIG    1       -1.217   8.394  -7.437  0.00  0.00    +0.000 A 
ATOM     30  C   LIG    1       -1.517   9.599  -6.949  0.00  0.00    -0.030 A 
ATOM     31  S   LIG    1       -2.376   9.421  -5.425  0.00  0.00    +0.120 S 
ENDBRANCH  26  27
ENDBRANCH  22  26
ENDBRANCH  17  18
ENDBRANCH   5  17
TORSDOF 6
