REMARK  Name = ZINCpk00000y6w8t.0
REMARK                            x       y       z     vdW  Elec       q    Type
REMARK                         _______ _______ _______ _____ _____    ______ ____
ROOT
ATOM      1  C   LIG    1       -0.821   1.628  -1.197  0.00  0.00    +0.120 C 
ATOM      2  C   LIG    1       -1.265   3.028  -0.714  0.00  0.00    +0.010 C 
ATOM      3  C   LIG    1       -1.197   2.963   0.823  0.00  0.00    +0.210 C 
ATOM      4  N   LIG    1       -0.766   1.593   1.183  0.00  0.00    -0.440 N 
ATOM      5  C   LIG    1       -0.013   1.086   0.008  0.00  0.00    +0.270 C 
ENDROOT
BRANCH   4   6
ATOM      6  C   LIG    1        0.033   1.602   2.321  0.00  0.00    +0.300 A 
ATOM      7  C   LIG    1       -0.486   2.044   3.534  0.00  0.00    +0.170 A 
ATOM      8  N   LIG    1        0.273   2.051   4.614  0.00  0.00    -0.380 NA
ATOM      9  C   LIG    1        1.526   1.639   4.548  0.00  0.00    +0.190 A 
ATOM     10  C   LIG    1        2.051   1.196   3.340  0.00  0.00    +0.310 A 
ATOM     11  N   LIG    1        1.291   1.182   2.253  0.00  0.00    -0.540 NA
BRANCH  10  12
ATOM     12  O   LIG    1        3.338   0.773   3.273  0.00  0.00    -0.290 OA
BRANCH  12  13
ATOM     13  C   LIG    1        3.811   0.332   1.999  0.00  0.00    +0.180 C 
ATOM     14  C   LIG    1        3.554  -1.169   1.852  0.00  0.00    +0.000 C 
ATOM     15  C   LIG    1        4.061  -1.642   0.488  0.00  0.00    +0.020 C 
ATOM     16  C   LIG    1        5.562  -1.368   0.378  0.00  0.00    +0.010 C 
ATOM     17  C   LIG    1        5.818   0.133   0.525  0.00  0.00    +0.020 C 
ATOM     18  C   LIG    1        5.312   0.606   1.889  0.00  0.00    +0.030 C 
ENDBRANCH  12  13
ENDBRANCH  10  12
ENDBRANCH   4   6
BRANCH   1  19
ATOM     19  O   LIG    1       -1.956   0.801  -1.458  0.00  0.00    -0.530 OA
ATOM     20  H   LIG    1       -2.496   1.097  -2.204  0.00  0.00    +0.390 HD
ENDBRANCH   1  19
BRANCH   1  21
ATOM     21  C   LIG    1        0.066   1.740  -2.438  0.00  0.00    +0.330 C 
BRANCH  21  22
ATOM     22  N   LIG    1       -0.691   2.365  -3.526  0.00  0.00    -0.290 N 
ATOM     23  C   LIG    1       -0.323   3.470  -4.215  0.00  0.00    +0.140 A 
ATOM     24  C   LIG    1       -1.304   3.694  -5.120  0.00  0.00    +0.140 A 
ATOM     25  N   LIG    1       -2.216   2.733  -4.937  0.00  0.00    -0.260 NA
ATOM     26  N   LIG    1       -1.823   1.962  -3.986  0.00  0.00    -0.100 NA
ENDBRANCH  21  22
ENDBRANCH   1  21
TORSDOF 6
