REMARK  Name = ZINCqH0000000afT.0
REMARK                            x       y       z     vdW  Elec       q    Type
REMARK                         _______ _______ _______ _____ _____    ______ ____
ROOT
ATOM      1  C   LIG    1        7.649   2.493  -0.058  0.00  0.00    +0.510 C 
ATOM      2  N   LIG    1        6.331   2.775  -0.043  0.00  0.00    -0.730 N 
ATOM      3  H   LIG    1        6.033   3.698  -0.036  0.00  0.00    +0.400 HD
ATOM      4  O   LIG    1        8.021   1.339  -0.067  0.00  0.00    -0.510 OA
ENDROOT
BRANCH   1   5
ATOM      5  C   LIG    1        8.659   3.611  -0.061  0.00  0.00    +0.260 C 
ATOM      6  C   LIG    1        8.454   4.479  -1.304  0.00  0.00    +0.070 C 
BRANCH   5  17
ATOM      7  C   LIG    1       10.831   4.007   2.005  0.00  0.00    +0.040 C 
ATOM      8  C   LIG    1       10.978   3.262   0.905  0.00  0.00    +0.140 C 
ATOM      9  C   LIG    1       12.192   2.520   0.513  0.00  0.00    -0.050 A 
ATOM     10  C   LIG    1       13.449   2.359   1.081  0.00  0.00    +0.040 A 
ATOM     11  C   LIG    1       14.393   1.575   0.446  0.00  0.00    +0.050 A 
ATOM     12  C   LIG    1       14.096   0.951  -0.754  0.00  0.00    +0.020 A 
ATOM     13  C   LIG    1       12.852   1.099  -1.334  0.00  0.00    +0.100 A 
ATOM     14  C   LIG    1       11.887   1.885  -0.708  0.00  0.00    -0.160 A 
ATOM     15  C   LIG    1       10.499   2.242  -1.038  0.00  0.00    +0.570 C 
ATOM     16  O   LIG    1        9.890   1.871  -2.024  0.00  0.00    -0.490 OA
ATOM     17  N   LIG    1       10.011   3.047  -0.077  0.00  0.00    -0.550 N 
ENDBRANCH   5  17
ENDBRANCH   1   5
BRANCH   2  18
ATOM     18  C   LIG    1        5.349   1.688  -0.040  0.00  0.00    +0.300 C 
BRANCH  18  19
ATOM     19  C   LIG    1        3.937   2.277  -0.023  0.00  0.00    +0.070 C 
BRANCH  19  20
ATOM     20  S   LIG    1        2.720   0.931  -0.019  0.00  0.00    -0.090 S 
BRANCH  20  21
ATOM     21  C   LIG    1        1.181   1.788   0.000  0.00  0.00    -0.090 A 
ATOM     22  C   LIG    1       -0.013   1.076   0.008  0.00  0.00    +0.040 A 
ATOM     23  C   LIG    1       -1.217   1.751   0.017  0.00  0.00    +0.030 A 
ATOM     24  C   LIG    1       -1.237   3.134   0.030  0.00  0.00    -0.090 A 
ATOM     25  C   LIG    1       -0.051   3.845   0.022  0.00  0.00    +0.030 A 
ATOM     26  C   LIG    1       -2.554   3.866   0.046  0.00  0.00    +0.090 C 
ATOM     27  C   LIG    1        1.157   3.177   0.008  0.00  0.00    -0.010 A 
ENDBRANCH  20  21
ENDBRANCH  19  20
ENDBRANCH  18  19
ENDBRANCH   2  18
TORSDOF 6
