REMARK  Name = ZINCrg000000r5LM.1
REMARK                            x       y       z     vdW  Elec       q    Type
REMARK                         _______ _______ _______ _____ _____    ______ ____
ROOT
ATOM      1  C   LIG    1       -3.795  -2.944   2.582  0.00  0.00    +0.590 C 
ATOM      2  N   LIG    1       -2.765  -2.237   2.074  0.00  0.00    -0.610 N 
ATOM      3  C   LIG    1       -1.701  -2.907   1.314  0.00  0.00    +0.250 C 
ATOM      4  C   LIG    1       -0.348  -2.541   1.933  0.00  0.00    +0.020 C 
ATOM      5  C   LIG    1       -0.215  -1.017   1.994  0.00  0.00    -0.010 C 
ATOM      6  C   LIG    1       -1.323  -0.441   2.878  0.00  0.00    +0.040 C 
ATOM      7  C   LIG    1       -2.687  -0.783   2.269  0.00  0.00    +0.280 C 
ATOM      8  O   LIG    1       -4.608  -2.400   3.306  0.00  0.00    -0.520 OA
ENDROOT
BRANCH   1  12
ATOM      9  C   LIG    1       -3.961  -6.659   1.306  0.00  0.00    -0.210 A 
ATOM     10  C   LIG    1       -4.496  -6.572   2.529  0.00  0.00    +0.010 A 
ATOM     11  C   LIG    1       -4.492  -5.312   3.079  0.00  0.00    +0.100 A 
ATOM     12  C   LIG    1       -3.935  -4.368   2.263  0.00  0.00    -0.270 A 
ATOM     13  S   LIG    1       -3.420  -5.133   0.766  0.00  0.00    +0.220 S 
BRANCH   9  14
ATOM     14  C   LIG    1       -3.856  -7.933   0.508  0.00  0.00    +0.130 C 
BRANCH  14  15
ATOM     15  C   LIG    1       -5.114  -8.105  -0.346  0.00  0.00    +0.280 C 
BRANCH  15  16
ATOM     16  N   LIG    1       -5.012  -9.344  -1.121  0.00  0.00    -1.120 NA
ATOM     17  H   LIG    1       -4.156  -9.790  -1.212  0.00  0.00    +0.420 HD
BRANCH  16  19
ATOM     18  C   LIG    1       -6.833  -8.750  -3.087  0.00  0.00    -0.280 C 
ATOM     19  S   LIG    1       -6.359  -9.982  -1.843  0.00  0.00    +2.610 S 
ATOM     20  O   LIG    1       -7.323 -10.035  -0.801  0.00  0.00    -0.950 OA
ATOM     21  O   LIG    1       -5.892 -11.169  -2.469  0.00  0.00    -0.960 OA
ENDBRANCH  16  19
ENDBRANCH  15  16
ENDBRANCH  14  15
ENDBRANCH   9  14
ENDBRANCH   1  12
BRANCH   5  22
ATOM     22  C   LIG    1        1.149  -0.648   2.580  0.00  0.00    +0.180 C 
BRANCH  22  23
ATOM     23  N   LIG    1        1.326   0.810   2.527  0.00  0.00    -0.530 NA
ATOM     24  C   LIG    1        1.411   1.280   1.137  0.00  0.00    +0.140 C 
ATOM     25  C   LIG    1        1.535   2.806   1.127  0.00  0.00    +0.220 C 
ATOM     26  O   LIG    1        2.675   3.192   1.899  0.00  0.00    -0.390 OA
ATOM     27  C   LIG    1        2.625   2.751   3.259  0.00  0.00    +0.220 C 
ATOM     28  C   LIG    1        2.512   1.224   3.291  0.00  0.00    +0.150 C 
ENDBRANCH  22  23
ENDBRANCH   5  22
TORSDOF 7
