REMARK  Name = ZINCrH000004vB88.0
REMARK                            x       y       z     vdW  Elec       q    Type
REMARK                         _______ _______ _______ _____ _____    ______ ____
ROOT
ATOM      1  O   LIG    1       -0.792   1.222   2.209  0.00  0.00    -0.470 OA
ATOM      2  C   LIG    1       -1.486   0.261   1.939  0.00  0.00    +0.560 C 
ATOM      3  N   LIG    1       -1.435  -0.282   0.707  0.00  0.00    -0.610 N 
ATOM      4  C   LIG    1       -2.321  -1.395   0.332  0.00  0.00    +0.290 C 
ATOM      5  C   LIG    1       -3.262  -0.939  -0.788  0.00  0.00    +0.270 C 
ATOM      6  N   LIG    1       -2.488  -0.228  -1.811  0.00  0.00    -0.450 N 
ATOM      7  C   LIG    1       -2.864   0.020  -3.095  0.00  0.00    +0.160 A 
ATOM      8  C   LIG    1       -1.875   0.710  -3.700  0.00  0.00    -0.060 A 
ATOM      9  C   LIG    1       -0.845   0.892  -2.753  0.00  0.00    -0.020 A 
ATOM     10  C   LIG    1       -1.244   0.307  -1.613  0.00  0.00    -0.000 A 
ATOM     11  C   LIG    1       -0.489   0.222  -0.306  0.00  0.00    +0.370 C 
ENDROOT
BRANCH   2  12
ATOM     12  C   LIG    1       -2.385  -0.311   2.962  0.00  0.00    -0.120 A 
ATOM     13  C   LIG    1       -2.633  -1.685   2.989  0.00  0.00    +0.100 A 
ATOM     14  C   LIG    1       -3.473  -2.213   3.946  0.00  0.00    +0.100 A 
ATOM     15  C   LIG    1       -4.072  -1.386   4.880  0.00  0.00    +0.010 A 
ATOM     16  C   LIG    1       -3.833  -0.024   4.862  0.00  0.00    +0.080 A 
ATOM     17  C   LIG    1       -2.988   0.520   3.912  0.00  0.00    +0.160 A 
ATOM     18  F   LIG    1       -2.750   1.849   3.898  0.00  0.00    -0.100 F 
BRANCH  15  19
ATOM     19  N   LIG    1       -4.973  -1.961   5.904  0.00  0.00    +0.020 N 
ATOM     20  O   LIG    1       -5.502  -1.236   6.727  0.00  0.00    -0.140 OA
ATOM     21  O   LIG    1       -5.186  -3.160   5.922  0.00  0.00    -0.140 OA
ENDBRANCH  15  19
ENDBRANCH   2  12
BRANCH  11  22
ATOM     22  C   LIG    1        0.008   1.589   0.089  0.00  0.00    -0.060 A 
ATOM     23  C   LIG    1       -0.881   2.642   0.202  0.00  0.00    +0.030 A 
ATOM     24  C   LIG    1       -0.426   3.894   0.570  0.00  0.00    +0.000 A 
ATOM     25  C   LIG    1        0.920   4.096   0.815  0.00  0.00    +0.010 A 
ATOM     26  C   LIG    1        1.809   3.044   0.697  0.00  0.00    +0.000 A 
ATOM     27  C   LIG    1        1.353   1.791   0.334  0.00  0.00    +0.010 A 
ENDBRANCH  11  22
TORSDOF 3
