REMARK  Name = ZINCvU0000000IeZ.0
REMARK                            x       y       z     vdW  Elec       q    Type
REMARK                         _______ _______ _______ _____ _____    ______ ____
ROOT
ATOM      1  C   LIG    1       -1.099   5.319   0.073  0.00  0.00    +0.290 A 
ATOM      2  N   LIG    1       -0.684   6.558   0.070  0.00  0.00    -0.520 NA
ATOM      3  C   LIG    1        0.656   6.588   0.039  0.00  0.00    +0.270 A 
ATOM      4  N   LIG    1        1.104   5.351   0.027  0.00  0.00    -0.260 NA
ATOM      5  N   LIG    1       -0.022   4.513   0.043  0.00  0.00    -0.330 N 
ENDROOT
BRANCH   3   6
ATOM      6  C   LIG    1        1.493   7.812   0.026  0.00  0.00    +0.180 A 
ATOM      7  C   LIG    1        0.880   9.051   0.048  0.00  0.00    +0.050 A 
ATOM      8  C   LIG    1        1.689  10.200   0.036  0.00  0.00    -0.030 A 
ATOM      9  C   LIG    1        1.147  11.493   0.057  0.00  0.00    +0.030 A 
ATOM     10  C   LIG    1        1.982  12.570   0.044  0.00  0.00    +0.030 A 
ATOM     11  C   LIG    1        3.365  12.406   0.011  0.00  0.00    +0.020 A 
ATOM     12  C   LIG    1        3.925  11.165  -0.009  0.00  0.00    +0.050 A 
ATOM     13  C   LIG    1        3.099  10.031   0.003  0.00  0.00    -0.110 A 
ATOM     14  C   LIG    1        3.625   8.728  -0.017  0.00  0.00    +0.320 A 
ATOM     15  N   LIG    1        2.822   7.692   0.000  0.00  0.00    -0.460 NA
ENDBRANCH   3   6
BRANCH   5  16
ATOM     16  C   LIG    1       -0.024   3.048   0.036  0.00  0.00    +0.080 C 
ATOM     17  C   LIG    1        1.174   2.074   0.002  0.00  0.00    +0.070 C 
ATOM     18  C   LIG    1       -0.013   1.086   0.008  0.00  0.00    +0.030 C 
ATOM     19  C   LIG    1       -0.616   2.049   1.061  0.00  0.00    +0.050 C 
ATOM     20  C   LIG    1       -0.636   2.060  -1.023  0.00  0.00    +0.060 C 
ENDBRANCH   5  16
BRANCH   1  21
ATOM     21  C   LIG    1       -2.537   4.870   0.106  0.00  0.00    +0.160 C 
BRANCH  21  22
ATOM     22  C   LIG    1       -2.989   4.711   1.559  0.00  0.00    +0.050 C 
BRANCH  22  23
ATOM     23  C   LIG    1       -4.449   4.255   1.591  0.00  0.00    +0.200 C 
BRANCH  23  24
ATOM     24  O   LIG    1       -4.872   4.106   2.948  0.00  0.00    -0.310 OA
BRANCH  24  31
ATOM     25  F   LIG    1       -5.818   3.767   5.505  0.00  0.00    -0.130 F 
ATOM     26  C   LIG    1       -6.629   3.533   4.450  0.00  0.00    +0.070 A 
ATOM     27  C   LIG    1       -7.936   3.130   4.656  0.00  0.00    +0.020 A 
ATOM     28  C   LIG    1       -8.764   2.885   3.576  0.00  0.00    +0.010 A 
ATOM     29  C   LIG    1       -8.290   3.049   2.288  0.00  0.00    +0.040 A 
ATOM     30  C   LIG    1       -6.987   3.458   2.075  0.00  0.00    -0.040 A 
ATOM     31  C   LIG    1       -6.154   3.704   3.155  0.00  0.00    +0.100 A 
ENDBRANCH  24  31
ENDBRANCH  23  24
ENDBRANCH  22  23
ENDBRANCH  21  22
ENDBRANCH   1  21
TORSDOF 7
