REMARK  Name = ZINCrH000004o1DN.0
REMARK                            x       y       z     vdW  Elec       q    Type
REMARK                         _______ _______ _______ _____ _____    ______ ____
ROOT
ATOM      1  C   LIG    1        8.279   2.862   2.089  0.00  0.00    +0.120 A 
ATOM      2  C   LIG    1        7.952   1.903   3.038  0.00  0.00    +0.010 A 
ATOM      3  C   LIG    1        6.697   1.327   3.033  0.00  0.00    +0.040 A 
ATOM      4  C   LIG    1        5.762   1.707   2.079  0.00  0.00    +0.130 A 
ATOM      5  C   LIG    1        6.092   2.663   1.127  0.00  0.00    +0.000 A 
ATOM      6  C   LIG    1        7.345   3.242   1.135  0.00  0.00    +0.040 A 
ENDROOT
BRANCH   1   8
ATOM      7  C   LIG    1        9.701   4.741   1.751  0.00  0.00    +0.500 C 
ATOM      8  N   LIG    1        9.553   3.446   2.094  0.00  0.00    -0.660 N 
ATOM      9  H   LIG    1       10.327   2.918   2.344  0.00  0.00    +0.410 HD
ATOM     10  O   LIG    1        8.747   5.378   1.358  0.00  0.00    -0.500 OA
BRANCH   7  12
ATOM     11  C   LIG    1       11.537   5.341   3.307  0.00  0.00    +0.100 C 
ATOM     12  C   LIG    1       11.054   5.397   1.856  0.00  0.00    +0.280 C 
BRANCH  12  13
ATOM     13  N   LIG    1       10.952   6.795   1.429  0.00  0.00    -0.370 N 
ATOM     14  C   LIG    1       10.580   7.843   2.184  0.00  0.00    +0.490 A 
ATOM     15  N   LIG    1       10.620   8.916   1.437  0.00  0.00    -0.540 NA
ATOM     16  C   LIG    1       11.004   8.594   0.202  0.00  0.00    +0.430 A 
ATOM     17  N   LIG    1       11.219   7.305   0.148  0.00  0.00    -0.310 NA
ENDBRANCH  12  13
ENDBRANCH   7  12
ENDBRANCH   1   8
BRANCH   4  18
ATOM     18  N   LIG    1        4.489   1.123   2.073  0.00  0.00    -0.680 N 
ATOM     19  H   LIG    1        4.036   0.957   1.232  0.00  0.00    +0.410 HD
ATOM     20  C   LIG    1        3.895   0.791   3.237  0.00  0.00    +0.510 C 
ATOM     21  O   LIG    1        4.495   0.921   4.283  0.00  0.00    -0.520 OA
BRANCH  20  22
ATOM     22  C   LIG    1        2.485   0.259   3.238  0.00  0.00    +0.060 C 
BRANCH  22  23
ATOM     23  C   LIG    1        2.053  -0.037   4.675  0.00  0.00    +0.040 C 
BRANCH  23  24
ATOM     24  C   LIG    1        0.622  -0.577   4.677  0.00  0.00    -0.020 C 
ATOM     25  C   LIG    1        0.585  -1.927   3.957  0.00  0.00    +0.000 C 
ATOM     26  C   LIG    1       -0.846  -2.467   3.958  0.00  0.00    +0.000 C 
ATOM     27  C   LIG    1       -1.323  -2.645   5.401  0.00  0.00    +0.000 C 
ATOM     28  C   LIG    1       -1.287  -1.295   6.121  0.00  0.00    +0.000 C 
ATOM     29  C   LIG    1        0.145  -0.755   6.119  0.00  0.00    +0.010 C 
ENDBRANCH  23  24
ENDBRANCH  22  23
ENDBRANCH  20  22
ENDBRANCH   4  18
TORSDOF 7
