REMARK  Name = ZINCpk00000xIgfY.1
REMARK                            x       y       z     vdW  Elec       q    Type
REMARK                         _______ _______ _______ _____ _____    ______ ____
ROOT
ATOM      1  N   LIG    1       -1.806   5.599   0.119  0.00  0.00    -0.520 NA
ATOM      2  C   LIG    1       -0.460   6.173  -0.001  0.00  0.00    +0.110 C 
ATOM      3  C   LIG    1        0.489   5.123  -0.588  0.00  0.00    +0.300 C 
ATOM      4  N   LIG    1        0.403   3.905   0.232  0.00  0.00    -0.610 N 
ATOM      5  C   LIG    1       -0.928   3.344   0.507  0.00  0.00    +0.280 C 
ATOM      6  C   LIG    1        1.515   3.316   0.715  0.00  0.00    +0.560 C 
ATOM      7  O   LIG    1        2.599   3.843   0.556  0.00  0.00    -0.500 OA
ATOM      8  C   LIG    1       -0.504   7.393  -0.924  0.00  0.00    +0.050 C 
ATOM      9  C   LIG    1       -1.821   4.467   1.056  0.00  0.00    +0.180 C 
ATOM     10  C   LIG    1       -1.295   4.924   2.418  0.00  0.00    -0.010 C 
ENDROOT
BRANCH   6  11
ATOM     11  C   LIG    1        1.417   2.031   1.435  0.00  0.00    -0.120 A 
ATOM     12  C   LIG    1        0.728   0.959   0.867  0.00  0.00    +0.070 A 
ATOM     13  C   LIG    1        0.640  -0.239   1.545  0.00  0.00    +0.020 A 
ATOM     14  C   LIG    1        1.232  -0.383   2.788  0.00  0.00    +0.070 A 
ATOM     15  C   LIG    1        1.917   0.671   3.362  0.00  0.00    +0.010 A 
ATOM     16  C   LIG    1        2.015   1.882   2.695  0.00  0.00    +0.190 A 
BRANCH  16  17
ATOM     17  N   LIG    1        2.708   2.949   3.274  0.00  0.00    -0.330 N 
ATOM     18  C   LIG    1        3.425   2.926   4.434  0.00  0.00    +0.200 A 
ATOM     19  C   LIG    1        3.920   4.169   4.610  0.00  0.00    +0.120 A 
ATOM     20  N   LIG    1        3.526   4.942   3.597  0.00  0.00    -0.240 NA
ATOM     21  N   LIG    1        2.809   4.257   2.776  0.00  0.00    -0.010 NA
ENDBRANCH  16  17
ENDBRANCH   6  11
BRANCH   1  22
ATOM     22  C   LIG    1       -2.782   6.624   0.516  0.00  0.00    +0.190 C 
BRANCH  22  23
ATOM     23  C   LIG    1       -4.196   6.129   0.206  0.00  0.00    +0.180 C 
BRANCH  23  25
ATOM     24  C   LIG    1       -5.854   4.548   0.912  0.00  0.00    +0.190 C 
ATOM     25  O   LIG    1       -4.545   5.083   1.116  0.00  0.00    -0.390 OA
ENDBRANCH  23  25
ENDBRANCH  22  23
ENDBRANCH   1  22
TORSDOF 5
