REMARK  Name = ZINCrH000004pW0S.0
REMARK                            x       y       z     vdW  Elec       q    Type
REMARK                         _______ _______ _______ _____ _____    ______ ____
ROOT
ATOM      1  C   LIG    1       -0.700  -2.745   1.173  0.00  0.00    +0.040 C 
ATOM      2  C   LIG    1       -1.284  -2.154  -0.112  0.00  0.00    +0.210 C 
ATOM      3  C   LIG    1       -2.824  -2.240  -0.077  0.00  0.00    +0.000 C 
ATOM      4  C   LIG    1       -3.241  -0.826   0.409  0.00  0.00    +0.040 C 
ATOM      5  C   LIG    1       -2.169   0.064  -0.264  0.00  0.00    +0.260 C 
ATOM      6  N   LIG    1       -0.929  -0.731  -0.214  0.00  0.00    -0.610 N 
ATOM      7  C   LIG    1        0.324  -0.234  -0.250  0.00  0.00    +0.580 C 
ATOM      8  O   LIG    1        0.501   0.968  -0.268  0.00  0.00    -0.530 OA
ENDROOT
BRANCH   7   9
ATOM      9  C   LIG    1        1.482  -1.152  -0.268  0.00  0.00    -0.150 A 
ATOM     10  C   LIG    1        1.276  -2.535  -0.358  0.00  0.00    +0.090 A 
ATOM     11  C   LIG    1        2.346  -3.400  -0.381  0.00  0.00    +0.040 A 
ATOM     12  C   LIG    1        3.647  -2.905  -0.303  0.00  0.00    +0.180 A 
ATOM     13  N   LIG    1        4.728  -3.758  -0.320  0.00  0.00    -0.630 N 
ATOM     14  H   LIG    1        4.579  -4.715  -0.387  0.00  0.00    +0.420 HD
ATOM     15  C   LIG    1        5.984  -3.287  -0.246  0.00  0.00    +0.540 A 
ATOM     16  C   LIG    1        6.253  -1.905  -0.148  0.00  0.00    -0.050 A 
ATOM     17  C   LIG    1        5.234  -1.012  -0.127  0.00  0.00    +0.150 A 
ATOM     18  O   LIG    1        6.915  -4.074  -0.264  0.00  0.00    -0.530 OA
ATOM     19  C   LIG    1        3.861  -1.515  -0.207  0.00  0.00    -0.120 A 
ATOM     20  F   LIG    1        2.135  -4.732  -0.472  0.00  0.00    -0.130 F 
ATOM     21  C   LIG    1        2.773  -0.641  -0.190  0.00  0.00    +0.170 A 
ENDBRANCH   7   9
BRANCH   3  22
ATOM     22  C   LIG    1       -3.284  -3.310   0.915  0.00  0.00    +0.090 C 
BRANCH  22  23
ATOM     23  C   LIG    1       -4.782  -3.457   0.838  0.00  0.00    -0.080 A 
ATOM     24  C   LIG    1       -5.594  -2.690   1.652  0.00  0.00    +0.010 A 
ATOM     25  C   LIG    1       -6.968  -2.821   1.578  0.00  0.00    +0.000 A 
ATOM     26  C   LIG    1       -7.530  -3.725   0.697  0.00  0.00    +0.000 A 
ATOM     27  C   LIG    1       -6.718  -4.496  -0.114  0.00  0.00    +0.000 A 
ATOM     28  C   LIG    1       -5.343  -4.362  -0.043  0.00  0.00    +0.000 A 
ENDBRANCH  22  23
ENDBRANCH   3  22
TORSDOF 3
