REMARK  Name = ZINCpe000000Z5QN.0
REMARK                            x       y       z     vdW  Elec       q    Type
REMARK                         _______ _______ _______ _____ _____    ______ ____
ROOT
ATOM      1  N   LIG    1        0.457  -6.540  -0.035  0.00  0.00    -0.730 N 
ATOM      2  H   LIG    1        1.404  -6.752  -0.045  0.00  0.00    +0.400 HD
ATOM      3  C   LIG    1       -0.456  -7.532  -0.031  0.00  0.00    +0.520 C 
ATOM      4  O   LIG    1       -1.639  -7.267  -0.019  0.00  0.00    -0.530 OA
ENDROOT
BRANCH   3   5
ATOM      5  C   LIG    1       -0.005  -8.970  -0.042  0.00  0.00    -0.010 C 
ATOM      6  C   LIG    1        0.818  -9.238  -1.305  0.00  0.00    +0.050 C 
ATOM      7  C   LIG    1        1.220 -10.714  -1.341  0.00  0.00    +0.220 C 
ATOM      8  N   LIG    1        0.015 -11.552  -1.334  0.00  0.00    -0.460 N 
ATOM      9  C   LIG    1       -0.768 -11.346  -0.108  0.00  0.00    +0.210 C 
ATOM     10  C   LIG    1       -1.230  -9.889  -0.035  0.00  0.00    +0.060 C 
BRANCH   8  11
ATOM     11  C   LIG    1        0.338 -12.888  -1.498  0.00  0.00    +0.490 A 
ATOM     12  N   LIG    1       -0.063 -13.766  -0.590  0.00  0.00    -0.550 NA
ATOM     13  C   LIG    1        0.225 -15.051  -0.719  0.00  0.00    +0.340 A 
ATOM     14  C   LIG    1        0.963 -15.472  -1.814  0.00  0.00    -0.110 A 
ATOM     15  C   LIG    1        1.371 -14.526  -2.741  0.00  0.00    +0.350 A 
ATOM     16  N   LIG    1        1.045 -13.258  -2.555  0.00  0.00    -0.530 NA
ENDBRANCH   8  11
ENDBRANCH   3   5
BRANCH   1  17
ATOM     17  C   LIG    1        0.019  -5.142  -0.024  0.00  0.00    +0.270 C 
BRANCH  17  18
ATOM     18  C   LIG    1        1.244  -4.224  -0.031  0.00  0.00    +0.270 C 
BRANCH  18  21
ATOM     19  O   LIG    1        2.906  -2.100  -0.036  0.00  0.00    -0.520 OA
ATOM     20  C   LIG    1        1.719  -1.834  -0.024  0.00  0.00    +0.610 C 
ATOM     21  N   LIG    1        0.806  -2.826  -0.020  0.00  0.00    -0.720 N 
ATOM     22  H   LIG    1       -0.140  -2.614  -0.010  0.00  0.00    +0.410 HD
BRANCH  20  23
ATOM     23  C   LIG    1        1.281  -0.434  -0.013  0.00  0.00    -0.090 A 
ATOM     24  C   LIG    1        2.095   0.661  -0.014  0.00  0.00    +0.050 A 
ATOM     25  C   LIG    1        1.257   1.787  -0.000  0.00  0.00    -0.070 A 
ATOM     26  C   LIG    1       -0.016   1.335   0.009  0.00  0.00    +0.210 A 
ATOM     27  O   LIG    1        0.002  -0.004   0.002  0.00  0.00    -0.170 OA
ENDBRANCH  20  23
ENDBRANCH  18  21
ENDBRANCH  17  18
ENDBRANCH   1  17
TORSDOF 6
