REMARK  Name = ZINCvU00000007X7.0
REMARK                            x       y       z     vdW  Elec       q    Type
REMARK                         _______ _______ _______ _____ _____    ______ ____
ROOT
ATOM      1  C   LIG    1       -0.014   1.209   0.009  0.00  0.00    +0.540 C 
ATOM      2  N   LIG    1        1.143   1.898   0.001  0.00  0.00    -0.720 N 
ATOM      3  H   LIG    1        1.130   2.868   0.007  0.00  0.00    +0.410 HD
ATOM      4  O   LIG    1        0.002  -0.004   0.002  0.00  0.00    -0.510 OA
ENDROOT
BRANCH   1   5
ATOM      5  C   LIG    1       -1.330   1.944   0.019  0.00  0.00    +0.090 C 
BRANCH   5   6
ATOM      6  S   LIG    1       -2.689   0.750   0.019  0.00  0.00    +0.150 S 
BRANCH   6  10
ATOM      7  C   LIG    1       -6.064   2.656   0.045  0.00  0.00    +0.180 A 
ATOM      8  N   LIG    1       -5.207   3.635   0.046  0.00  0.00    -0.250 NA
ATOM      9  N   LIG    1       -4.011   3.161   0.038  0.00  0.00    -0.290 NA
ATOM     10  C   LIG    1       -4.064   1.851   0.031  0.00  0.00    +0.120 A 
ATOM     11  O   LIG    1       -5.365   1.504   0.030  0.00  0.00    -0.200 OA
BRANCH   7  12
ATOM     12  C   LIG    1       -7.565   2.787   0.054  0.00  0.00    +0.310 C 
BRANCH  12  16
ATOM     13  C   LIG    1       -7.782   4.576  -4.570  0.00  0.00    +0.180 C 
ATOM     14  C   LIG    1       -8.149   3.661  -3.430  0.00  0.00    +0.050 A 
ATOM     15  N   LIG    1       -7.643   3.719  -2.244  0.00  0.00    -0.460 NA
ATOM     16  C   LIG    1       -8.073   2.838  -1.364  0.00  0.00    +0.060 A 
ATOM     17  C   LIG    1       -9.001   1.997  -1.830  0.00  0.00    -0.070 A 
ATOM     18  S   LIG    1       -9.301   2.401  -3.518  0.00  0.00    +0.140 S 
ENDBRANCH  12  16
ENDBRANCH   7  12
ENDBRANCH   6  10
ENDBRANCH   5   6
ENDBRANCH   1   5
BRANCH   2  19
ATOM     19  C   LIG    1        2.422   1.183  -0.015  0.00  0.00    +0.340 C 
BRANCH  19  20
ATOM     20  C   LIG    1        3.495   2.058   0.580  0.00  0.00    -0.090 A 
ATOM     21  C   LIG    1        3.524   3.410   0.290  0.00  0.00    +0.030 A 
ATOM     22  C   LIG    1        4.504   4.214   0.840  0.00  0.00    +0.040 A 
ATOM     23  C   LIG    1        5.463   3.665   1.672  0.00  0.00    -0.030 A 
ATOM     24  C   LIG    1        5.437   2.311   1.958  0.00  0.00    +0.040 A 
ATOM     25 CL   LIG    1        6.699   4.673   2.358  0.00  0.00    -0.060 Cl
ATOM     26  C   LIG    1        4.453   1.509   1.412  0.00  0.00    +0.050 A 
ENDBRANCH  19  20
BRANCH  19  27
ATOM     27  C   LIG    1        2.786   0.838  -1.435  0.00  0.00    -0.100 A 
ATOM     28  C   LIG    1        2.551   1.747  -2.450  0.00  0.00    +0.020 A 
ATOM     29  C   LIG    1        2.890   1.431  -3.753  0.00  0.00    +0.000 A 
ATOM     30  C   LIG    1        3.455   0.203  -4.042  0.00  0.00    +0.010 A 
ATOM     31  C   LIG    1        3.685  -0.708  -3.028  0.00  0.00    +0.000 A 
ATOM     32  C   LIG    1        3.350  -0.391  -1.725  0.00  0.00    +0.020 A 
ENDBRANCH  19  27
ENDBRANCH   2  19
TORSDOF 8
