REMARK  Name = ZINCvU00000007QL.1
REMARK                            x       y       z     vdW  Elec       q    Type
REMARK                         _______ _______ _______ _____ _____    ______ ____
ROOT
ATOM      1  O   LIG    1       -3.155  -2.057  -3.145  0.00  0.00    -0.520 OA
ATOM      2  C   LIG    1       -3.281  -2.755  -2.161  0.00  0.00    +0.520 C 
ATOM      3  N   LIG    1       -2.383  -2.676  -1.159  0.00  0.00    -0.610 N 
ATOM      4  C   LIG    1       -2.523  -3.515   0.038  0.00  0.00    +0.270 C 
ATOM      5  C   LIG    1       -2.495  -2.614   1.277  0.00  0.00    +0.030 C 
ATOM      6  C   LIG    1       -1.226  -1.759   1.253  0.00  0.00    +0.040 C 
ATOM      7  C   LIG    1       -1.232  -0.869   0.008  0.00  0.00    +0.080 C 
ATOM      8  C   LIG    1       -1.246  -1.750  -1.245  0.00  0.00    +0.290 C 
ENDROOT
BRANCH   7   9
ATOM      9  C   LIG    1        0.002  -0.004   0.002  0.00  0.00    +0.100 A 
ATOM     10  N   LIG    1       -0.015   1.275   0.009  0.00  0.00    -0.460 NA
ATOM     11  C   LIG    1        1.167   1.920   0.001  0.00  0.00    +0.080 A 
ATOM     12  C   LIG    1        1.437   3.303   0.006  0.00  0.00    +0.080 A 
ATOM     13  C   LIG    1        2.722   3.755  -0.003  0.00  0.00    +0.030 A 
ATOM     14  C   LIG    1        3.787   2.865  -0.018  0.00  0.00    +0.040 A 
ATOM     15  C   LIG    1        3.553   1.509  -0.023  0.00  0.00    +0.060 A 
ATOM     16  C   LIG    1        2.245   1.029  -0.014  0.00  0.00    -0.180 A 
ATOM     17  S   LIG    1        1.598  -0.609  -0.017  0.00  0.00    +0.110 S 
ENDBRANCH   7   9
BRANCH   2  18
ATOM     18  C   LIG    1       -4.442  -3.710  -2.059  0.00  0.00    +0.210 C 
BRANCH  18  19
ATOM     19  N   LIG    1       -5.269  -3.607  -3.269  0.00  0.00    -0.670 NA
ATOM     20  H   LIG    1       -5.576  -2.657  -3.417  0.00  0.00    +0.360 HD
BRANCH  19  21
ATOM     21  C   LIG    1       -6.413  -4.526  -3.204  0.00  0.00    +0.270 C 
BRANCH  21  22
ATOM     22  C   LIG    1       -7.526  -4.006  -4.078  0.00  0.00    -0.100 A 
ATOM     23  C   LIG    1       -7.233  -3.436  -5.304  0.00  0.00    +0.040 A 
ATOM     24  C   LIG    1       -8.254  -2.963  -6.107  0.00  0.00    +0.000 A 
ATOM     25  C   LIG    1       -9.566  -3.051  -5.681  0.00  0.00    +0.010 A 
ATOM     26  C   LIG    1       -9.858  -3.616  -4.454  0.00  0.00    +0.000 A 
ATOM     27  C   LIG    1       -8.838  -4.093  -3.652  0.00  0.00    +0.010 A 
ENDBRANCH  21  22
BRANCH  21  28
ATOM     28  C   LIG    1       -5.990  -5.889  -3.688  0.00  0.00    -0.170 A 
ATOM     29  C   LIG    1       -6.368  -7.048  -3.147  0.00  0.00    -0.010 A 
ATOM     30  C   LIG    1       -5.852  -8.175  -3.763  0.00  0.00    +0.000 A 
ATOM     31  C   LIG    1       -5.054  -7.931  -4.804  0.00  0.00    -0.070 A 
ATOM     32  S   LIG    1       -4.929  -6.195  -5.057  0.00  0.00    +0.150 S 
ENDBRANCH  21  28
ENDBRANCH  19  21
ENDBRANCH  18  19
ENDBRANCH   2  18
TORSDOF 6
