REMARK  Name = ZINCb70000003ZOx.0
REMARK                            x       y       z     vdW  Elec       q    Type
REMARK                         _______ _______ _______ _____ _____    ______ ____
ROOT
ATOM      1  C   LIG    1       -0.013   1.086   0.008  0.00  0.00    +0.020 C 
ATOM      2  C   LIG    1       -0.939   1.683   1.080  0.00  0.00    +0.060 C 
ATOM      3  C   LIG    1       -1.349   2.730   0.028  0.00  0.00    +0.150 C 
ATOM      4  C   LIG    1       -0.959   1.695  -1.040  0.00  0.00    +0.070 C 
ENDROOT
BRANCH   3   5
ATOM      5  N   LIG    1       -2.782   3.052   0.041  0.00  0.00    -0.630 N 
ATOM      6  H   LIG    1       -3.050   3.429  -0.856  0.00  0.00    +0.440 HD
ATOM      7  H   LIG    1       -2.967   3.733   0.762  0.00  0.00    +0.440 HD
ATOM      8  H   LIG    1       -3.313   2.214   0.226  0.00  0.00    +0.430 HD
ENDBRANCH   3   5
BRANCH   1   9
ATOM      9  C   LIG    1        1.389   1.699  -0.002  0.00  0.00    +0.080 C 
BRANCH   9  10
ATOM     10  C   LIG    1        2.272   0.969   1.012  0.00  0.00    -0.350 C 
BRANCH  10  12
ATOM     11  C   LIG    1        4.790   0.696   2.248  0.00  0.00    -0.250 C 
ATOM     12  S   LIG    1        3.934   1.696   1.000  0.00  0.00    +2.420 S 
ATOM     13  O   LIG    1        3.847   3.033   1.472  0.00  0.00    -0.940 OA
ATOM     14  O   LIG    1        4.529   1.445  -0.266  0.00  0.00    -0.930 OA
ENDBRANCH  10  12
ENDBRANCH   9  10
ENDBRANCH   1   9
TORSDOF 4
