REMARK  Name = ZINCvU0000000HeM.0
REMARK                            x       y       z     vdW  Elec       q    Type
REMARK                         _______ _______ _______ _____ _____    ______ ____
ROOT
ATOM      1  O   LIG    1        2.652   4.270  -0.089  0.00  0.00    -0.500 OA
ATOM      2  C   LIG    1        3.684   3.632  -0.008  0.00  0.00    +0.560 C 
ATOM      3  N   LIG    1        4.867   4.272   0.081  0.00  0.00    -0.660 N 
ATOM      4  H   LIG    1        5.694   3.766   0.066  0.00  0.00    +0.410 HD
ENDROOT
BRANCH   2   5
ATOM      5  C   LIG    1        3.641   2.154  -0.008  0.00  0.00    -0.070 A 
ATOM      6  C   LIG    1        4.805   1.398  -0.025  0.00  0.00    +0.020 A 
ATOM      7  C   LIG    1        4.717  -0.002  -0.023  0.00  0.00    +0.200 A 
ATOM      8  N   LIG    1        3.562  -0.634  -0.006  0.00  0.00    -0.450 NA
ATOM      9  C   LIG    1        2.396   0.012   0.012  0.00  0.00    +0.130 A 
ATOM     10  C   LIG    1        1.177  -0.691   0.030  0.00  0.00    +0.050 A 
ATOM     11  C   LIG    1        0.002  -0.004   0.047  0.00  0.00    +0.030 A 
ATOM     12  C   LIG    1       -0.017   1.389   0.047  0.00  0.00    +0.020 A 
ATOM     13  C   LIG    1        1.145   2.103   0.030  0.00  0.00    +0.060 A 
ATOM     14  C   LIG    1        2.370   1.429   0.012  0.00  0.00    -0.060 A 
BRANCH   7  15
ATOM     15  C   LIG    1        5.968  -0.798  -0.043  0.00  0.00    -0.110 A 
ATOM     16  C   LIG    1        5.922  -2.195  -0.042  0.00  0.00    +0.120 A 
ATOM     17  C   LIG    1        7.118  -2.891  -0.061  0.00  0.00    -0.030 A 
ATOM     18  C   LIG    1        8.309  -2.190  -0.080  0.00  0.00    +0.270 A 
ATOM     19  N   LIG    1        8.322  -0.870  -0.079  0.00  0.00    -0.480 NA
ATOM     20  C   LIG    1        7.210  -0.165  -0.068  0.00  0.00    +0.280 A 
ENDBRANCH   7  15
ENDBRANCH   2   5
BRANCH   3  21
ATOM     21  C   LIG    1        4.901   5.667   0.194  0.00  0.00    +0.110 A 
ATOM     22  C   LIG    1        5.930   6.387  -0.399  0.00  0.00    +0.020 A 
ATOM     23  C   LIG    1        5.961   7.763  -0.292  0.00  0.00    -0.020 A 
ATOM     24  C   LIG    1        4.969   8.427   0.418  0.00  0.00    +0.100 A 
ATOM     25  C   LIG    1        3.943   7.707   1.016  0.00  0.00    +0.010 A 
ATOM     26  C   LIG    1        3.909   6.331   0.904  0.00  0.00    +0.050 A 
BRANCH  24  27
ATOM     27  N   LIG    1        5.003   9.821   0.532  0.00  0.00    -0.490 N 
ATOM     28  C   LIG    1        3.754  10.419   0.046  0.00  0.00    +0.180 C 
ATOM     29  C   LIG    1        3.768  11.925   0.319  0.00  0.00    +0.020 C 
ATOM     30  C   LIG    1        4.968  12.556  -0.393  0.00  0.00    +0.010 C 
ATOM     31  C   LIG    1        6.253  11.882   0.095  0.00  0.00    +0.020 C 
ATOM     32  C   LIG    1        6.167  10.377  -0.171  0.00  0.00    +0.180 C 
ENDBRANCH  24  27
ENDBRANCH   3  21
TORSDOF 4
