REMARK  Name = ZINCqH0000001M6b.0
REMARK                            x       y       z     vdW  Elec       q    Type
REMARK                         _______ _______ _______ _____ _____    ______ ____
ROOT
ATOM      1  N   LIG    1        0.618   3.617   1.145  0.00  0.00    -0.710 N 
ATOM      2  H   LIG    1        0.965   3.857   0.271  0.00  0.00    +0.400 HD
ATOM      3  C   LIG    1        1.395   3.750   2.238  0.00  0.00    +0.540 C 
ATOM      4  O   LIG    1        0.962   3.450   3.330  0.00  0.00    -0.520 OA
ENDROOT
BRANCH   1   5
ATOM      5  C   LIG    1       -0.750   3.109   1.275  0.00  0.00    +0.290 C 
BRANCH   5   9
ATOM      6  C   LIG    1       -3.110   4.520  -1.994  0.00  0.00    -0.070 A 
ATOM      7  C   LIG    1       -3.650   4.470  -0.722  0.00  0.00    +0.010 A 
ATOM      8  C   LIG    1       -2.886   4.014   0.336  0.00  0.00    +0.020 A 
ATOM      9  C   LIG    1       -1.582   3.607   0.122  0.00  0.00    -0.100 A 
ATOM     10  C   LIG    1       -1.041   3.660  -1.149  0.00  0.00    +0.010 A 
ATOM     11  C   LIG    1       -1.806   4.113  -2.208  0.00  0.00    +0.010 A 
BRANCH   6  13
ATOM     12  C   LIG    1       -3.271   6.242  -3.770  0.00  0.00    +0.030 C 
ATOM     13  C   LIG    1       -3.943   5.017  -3.147  0.00  0.00    +0.020 C 
ATOM     14  C   LIG    1       -4.067   3.914  -4.199  0.00  0.00    +0.030 C 
ENDBRANCH   6  13
ENDBRANCH   5   9
BRANCH   5  15
ATOM     15  C   LIG    1       -0.729   1.579   1.267  0.00  0.00    -0.020 C 
ATOM     16  C   LIG    1        0.011   1.072   2.506  0.00  0.00    +0.030 C 
ATOM     17  C   LIG    1       -0.013   1.086   0.008  0.00  0.00    +0.020 C 
ENDBRANCH   5  15
ENDBRANCH   1   5
BRANCH   3  18
ATOM     18  C   LIG    1        2.802   4.272   2.103  0.00  0.00    +0.100 C 
BRANCH  18  19
ATOM     19  S   LIG    1        3.581   4.335   3.736  0.00  0.00    +0.120 S 
BRANCH  19  20
ATOM     20  C   LIG    1        5.168   4.962   3.294  0.00  0.00    +0.200 A 
ATOM     21  N   LIG    1        5.577   5.270   2.083  0.00  0.00    -0.340 NA
ATOM     22  N   LIG    1        6.787   5.699   2.112  0.00  0.00    -0.030 NA
ATOM     23  N   LIG    1        7.233   5.698   3.321  0.00  0.00    -0.080 NA
ATOM     24  N   LIG    1        6.193   5.223   4.139  0.00  0.00    -0.330 N 
BRANCH  24  25
ATOM     25  C   LIG    1        6.215   5.046   5.593  0.00  0.00    +0.210 C 
ATOM     26  C   LIG    1        7.421   5.600   6.354  0.00  0.00    +0.090 C 
ATOM     27  C   LIG    1        7.259   4.090   6.173  0.00  0.00    +0.070 C 
ENDBRANCH  24  25
ENDBRANCH  19  20
ENDBRANCH  18  19
ENDBRANCH   3  18
TORSDOF 8
