REMARK  Name = ZINCpe00000Ra4Ks.0
REMARK                            x       y       z     vdW  Elec       q    Type
REMARK                         _______ _______ _______ _____ _____    ______ ____
ROOT
ATOM      1  N   LIG    1       -2.466   3.676   0.044  0.00  0.00    -0.570 N 
ATOM      2  C   LIG    1       -2.533   5.139   0.163  0.00  0.00    +0.290 C 
ATOM      3  C   LIG    1       -3.452   5.497   1.335  0.00  0.00    +0.020 C 
ATOM      4  C   LIG    1       -4.810   4.819   1.139  0.00  0.00    +0.010 C 
ATOM      5  C   LIG    1       -4.625   3.300   1.117  0.00  0.00    +0.230 C 
ATOM      6  C   LIG    1       -3.720   2.918  -0.064  0.00  0.00    +0.300 C 
ENDROOT
BRANCH   1  12
ATOM      7  C   LIG    1        2.454   3.832  -0.110  0.00  0.00    +0.320 C 
ATOM      8  N   LIG    1        1.179   3.111  -0.047  0.00  0.00    -0.480 N 
ATOM      9  C   LIG    1        1.157   1.749   0.000  0.00  0.00    +0.160 A 
ATOM     10  C   LIG    1       -0.011   1.077   0.059  0.00  0.00    +0.190 A 
ATOM     11  N   LIG    1       -1.185   1.709   0.068  0.00  0.00    -0.510 NA
ATOM     12  C   LIG    1       -1.240   3.023   0.029  0.00  0.00    +0.350 A 
ATOM     13  C   LIG    1        0.010   3.789  -0.035  0.00  0.00    +0.480 A 
ATOM     14  O   LIG    1       -0.006   5.008  -0.076  0.00  0.00    -0.520 OA
ENDBRANCH   1  12
BRANCH   5  15
ATOM     15  N   LIG    1       -5.930   2.651   0.961  0.00  0.00    -0.700 N 
ATOM     16  H   LIG    1       -6.241   2.394   0.079  0.00  0.00    +0.410 HD
ATOM     17  C   LIG    1       -6.697   2.412   2.043  0.00  0.00    +0.580 C 
ATOM     18  O   LIG    1       -6.306   2.735   3.148  0.00  0.00    -0.510 OA
BRANCH  17  19
ATOM     19  C   LIG    1       -8.013   1.757   1.886  0.00  0.00    +0.030 A 
ATOM     20  N   LIG    1       -8.434   1.407   0.676  0.00  0.00    -0.400 NA
ATOM     21  C   LIG    1       -9.597   0.823   0.492  0.00  0.00    +0.260 A 
ATOM     22  C   LIG    1      -10.436   0.548   1.565  0.00  0.00    +0.110 A 
ATOM     23  C   LIG    1      -10.036   0.896   2.847  0.00  0.00    +0.010 A 
ATOM     24  F   LIG    1      -11.629  -0.053   1.361  0.00  0.00    -0.110 F 
ATOM     25  C   LIG    1       -8.801   1.507   3.012  0.00  0.00    +0.150 A 
ATOM     26  F   LIG    1       -8.368   1.858   4.243  0.00  0.00    -0.090 F 
ENDBRANCH  17  19
ENDBRANCH   5  15
TORSDOF 3
