REMARK  Name = ZINCvU000000042D.0
REMARK                            x       y       z     vdW  Elec       q    Type
REMARK                         _______ _______ _______ _____ _____    ______ ____
ROOT
ATOM      1  O   LIG    1        0.494  -0.447  -1.941  0.00  0.00    -0.500 OA
ATOM      2  C   LIG    1       -0.571  -0.030  -1.536  0.00  0.00    +0.540 C 
ATOM      3  N   LIG    1       -1.592  -0.883  -1.324  0.00  0.00    -0.670 N 
ATOM      4  H   LIG    1       -2.418  -0.562  -0.928  0.00  0.00    +0.410 HD
ENDROOT
BRANCH   3   5
ATOM      5  C   LIG    1       -1.462  -2.231  -1.675  0.00  0.00    +0.150 A 
ATOM      6  C   LIG    1       -2.096  -3.211  -0.923  0.00  0.00    -0.010 A 
ATOM      7  C   LIG    1       -1.965  -4.541  -1.272  0.00  0.00    +0.040 A 
ATOM      8  C   LIG    1       -1.205  -4.897  -2.371  0.00  0.00    +0.000 A 
ATOM      9  C   LIG    1       -0.572  -3.923  -3.123  0.00  0.00    -0.050 A 
ATOM     10  C   LIG    1       -0.703  -2.592  -2.781  0.00  0.00    +0.020 A 
BRANCH   9  11
ATOM     11  C   LIG    1        0.255  -4.316  -4.320  0.00  0.00    -0.180 C 
BRANCH  11  12
ATOM     12  S   LIG    1       -0.796  -4.346  -5.798  0.00  0.00    +1.250 S 
ATOM     13  O   LIG    1       -1.286  -3.037  -6.057  0.00  0.00    -0.820 OA
BRANCH  12  14
ATOM     14  C   LIG    1        0.358  -4.831  -7.110  0.00  0.00    -0.180 C 
BRANCH  14  15
ATOM     15  C   LIG    1       -0.376  -4.901  -8.424  0.00  0.00    -0.070 A 
ATOM     16  C   LIG    1       -0.960  -6.088  -8.826  0.00  0.00    +0.010 A 
ATOM     17  C   LIG    1       -1.638  -6.151 -10.030  0.00  0.00    +0.010 A 
ATOM     18  C   LIG    1       -1.722  -5.031 -10.835  0.00  0.00    +0.000 A 
ATOM     19  C   LIG    1       -1.133  -3.846 -10.436  0.00  0.00    +0.000 A 
ATOM     20  C   LIG    1       -0.459  -3.781  -9.230  0.00  0.00    +0.010 A 
ENDBRANCH  14  15
ENDBRANCH  12  14
ENDBRANCH  11  12
ENDBRANCH   9  11
ENDBRANCH   3   5
BRANCH   2  21
ATOM     21  C   LIG    1       -0.751   1.442  -1.268  0.00  0.00    -0.070 C 
ATOM     22  C   LIG    1       -0.608   1.823   0.214  0.00  0.00    +0.050 C 
ATOM     23  C   LIG    1        0.895   2.003  -0.058  0.00  0.00    +0.030 C 
ATOM     24  C   LIG    1        0.517   2.275  -1.523  0.00  0.00    +0.070 C 
BRANCH  21  25
ATOM     25  C   LIG    1       -1.986   2.009  -1.921  0.00  0.00    -0.070 A 
ATOM     26  C   LIG    1       -2.681   1.260  -2.850  0.00  0.00    +0.020 A 
ATOM     27  C   LIG    1       -3.820   1.777  -3.445  0.00  0.00    +0.100 A 
ATOM     28  C   LIG    1       -4.258   3.048  -3.112  0.00  0.00    +0.030 A 
ATOM     29  C   LIG    1       -3.558   3.799  -2.187  0.00  0.00    +0.030 A 
ATOM     30  F   LIG    1       -4.503   1.043  -4.349  0.00  0.00    -0.130 F 
ATOM     31  C   LIG    1       -2.420   3.282  -1.593  0.00  0.00    +0.100 A 
ATOM     32  F   LIG    1       -1.737   4.016  -0.688  0.00  0.00    -0.120 F 
ENDBRANCH  21  25
ENDBRANCH   2  21
TORSDOF 7
