REMARK  Name = ZINCvU0000000Gcz.0
REMARK                            x       y       z     vdW  Elec       q    Type
REMARK                         _______ _______ _______ _____ _____    ______ ____
ROOT
ATOM      1  C   LIG    1       -4.892   1.003   0.186  0.00  0.00    -0.000 A 
ATOM      2  C   LIG    1       -6.161   1.487   0.153  0.00  0.00    -0.080 A 
ATOM      3  C   LIG    1       -7.039   0.333   0.342  0.00  0.00    -0.130 A 
ATOM      4  C   LIG    1       -8.424   0.163   0.403  0.00  0.00    +0.070 A 
ATOM      5  C   LIG    1       -8.945  -1.085   0.602  0.00  0.00    +0.010 A 
ATOM      6  C   LIG    1       -8.108  -2.182   0.744  0.00  0.00    +0.060 A 
ATOM      7  C   LIG    1       -6.738  -2.036   0.687  0.00  0.00    +0.030 A 
ATOM      8  C   LIG    1       -6.185  -0.777   0.485  0.00  0.00    +0.070 A 
ATOM      9  O   LIG    1       -4.918  -0.331   0.386  0.00  0.00    -0.180 OA
ENDROOT
BRANCH   1  11
ATOM     10  O   LIG    1       -3.761   3.013  -0.143  0.00  0.00    -0.490 OA
ATOM     11  C   LIG    1       -3.675   1.812   0.033  0.00  0.00    +0.600 C 
ATOM     12  N   LIG    1       -2.463   1.224   0.089  0.00  0.00    -0.650 N 
ATOM     13  H   LIG    1       -2.396   0.260   0.173  0.00  0.00    +0.420 HD
BRANCH  12  14
ATOM     14  C   LIG    1       -1.302   2.005   0.027  0.00  0.00    +0.130 A 
ATOM     15  C   LIG    1       -1.329   3.242  -0.599  0.00  0.00    +0.050 A 
ATOM     16  C   LIG    1       -0.180   4.008  -0.664  0.00  0.00    +0.010 A 
ATOM     17  C   LIG    1        0.996   3.548  -0.102  0.00  0.00    +0.020 A 
ATOM     18  C   LIG    1        1.030   2.319   0.530  0.00  0.00    -0.020 A 
ATOM     19  C   LIG    1       -0.117   1.543   0.600  0.00  0.00    +0.070 A 
BRANCH  19  20
ATOM     20  N   LIG    1       -0.085   0.298   1.238  0.00  0.00    -0.480 N 
ATOM     21  C   LIG    1        1.284  -0.016   1.722  0.00  0.00    +0.180 C 
ATOM     22  C   LIG    1        1.037  -1.093   2.808  0.00  0.00    +0.040 C 
ATOM     23  C   LIG    1       -0.269  -0.613   3.481  0.00  0.00    +0.020 C 
ATOM     24  C   LIG    1       -0.948   0.295   2.439  0.00  0.00    +0.170 C 
ENDBRANCH  19  20
ENDBRANCH  12  14
ENDBRANCH   1  11
BRANCH   2  25
ATOM     25  C   LIG    1       -6.579   2.921  -0.042  0.00  0.00    +0.300 C 
BRANCH  25  26
ATOM     26  O   LIG    1       -6.750   3.182  -1.437  0.00  0.00    -0.300 OA
BRANCH  26  27
ATOM     27  C   LIG    1       -7.130   4.439  -1.787  0.00  0.00    +0.130 A 
ATOM     28  C   LIG    1       -7.338   5.400  -0.808  0.00  0.00    -0.080 A 
ATOM     29  C   LIG    1       -7.718   6.679  -1.168  0.00  0.00    +0.040 A 
ATOM     30  C   LIG    1       -7.901   6.999  -2.500  0.00  0.00    -0.040 A 
ATOM     31  C   LIG    1       -7.699   6.041  -3.477  0.00  0.00    +0.050 A 
ATOM     32  C   LIG    1       -7.314   4.763  -3.124  0.00  0.00    -0.020 A 
ENDBRANCH  26  27
ENDBRANCH  25  26
ENDBRANCH   2  25
TORSDOF 6
