REMARK  Name = ZINCqH0000034mBi.0
REMARK                            x       y       z     vdW  Elec       q    Type
REMARK                         _______ _______ _______ _____ _____    ______ ____
ROOT
ATOM      1  C   LIG    1       -0.718   1.572   1.248  0.00  0.00    +0.490 C 
ATOM      2  N   LIG    1       -0.242   1.246   2.466  0.00  0.00    -0.630 N 
ATOM      3  H   LIG    1        0.555   0.699   2.544  0.00  0.00    +0.430 HD
ATOM      4  O   LIG    1       -1.714   2.256   1.150  0.00  0.00    -0.440 OA
ENDROOT
BRANCH   2   5
ATOM      5  C   LIG    1       -0.890   1.693   3.606  0.00  0.00    +0.340 A 
ATOM      6  N   LIG    1       -1.948   2.426   3.610  0.00  0.00    -0.470 NA
ATOM      7  C   LIG    1       -2.468   2.778   4.802  0.00  0.00    +0.110 A 
ATOM      8  C   LIG    1       -3.609   3.563   5.071  0.00  0.00    +0.100 A 
ATOM      9  C   LIG    1       -3.985   3.823   6.365  0.00  0.00    +0.060 A 
ATOM     10  C   LIG    1       -3.250   3.319   7.429  0.00  0.00    -0.030 A 
ATOM     11  C   LIG    1       -2.132   2.550   7.190  0.00  0.00    +0.080 A 
ATOM     12 CL   LIG    1       -3.739   3.657   9.060  0.00  0.00    -0.050 Cl
ATOM     13  C   LIG    1       -1.736   2.277   5.883  0.00  0.00    -0.170 A 
ATOM     14  S   LIG    1       -0.381   1.345   5.252  0.00  0.00    +0.090 S 
ENDBRANCH   2   5
BRANCH   1  15
ATOM     15  C   LIG    1       -0.013   1.086   0.008  0.00  0.00    +0.380 C 
BRANCH  15  18
ATOM     16  N   LIG    1       -1.321   2.852  -2.866  0.00  0.00    -0.540 N 
ATOM     17  C   LIG    1       -0.484   2.732  -1.819  0.00  0.00    +0.690 A 
ATOM     18  N   LIG    1       -0.721   1.571  -1.179  0.00  0.00    -0.530 N 
ATOM     19  C   LIG    1       -1.751   0.908  -1.841  0.00  0.00    +0.090 A 
ATOM     20  C   LIG    1       -2.392  -0.304  -1.633  0.00  0.00    +0.030 A 
ATOM     21  C   LIG    1       -3.405  -0.702  -2.483  0.00  0.00    +0.020 A 
ATOM     22  C   LIG    1       -3.784   0.105  -3.542  0.00  0.00    +0.020 A 
ATOM     23  C   LIG    1       -3.158   1.318  -3.753  0.00  0.00    +0.030 A 
ATOM     24  O   LIG    1        0.359   3.549  -1.498  0.00  0.00    -0.550 OA
ATOM     25  C   LIG    1       -2.136   1.723  -2.908  0.00  0.00    +0.100 A 
BRANCH  16  27
ATOM     26  C   LIG    1       -0.422   3.708  -4.973  0.00  0.00    +0.030 C 
ATOM     27  C   LIG    1       -1.368   3.978  -3.801  0.00  0.00    +0.310 C 
ENDBRANCH  16  27
ENDBRANCH  15  18
ENDBRANCH   1  15
TORSDOF 4
