REMARK  Name = ZINCqH00000059yV.0
REMARK                            x       y       z     vdW  Elec       q    Type
REMARK                         _______ _______ _______ _____ _____    ______ ____
ROOT
ATOM      1  C   LIG    1       -3.496   2.693  -0.013  0.00  0.00    +0.310 C 
ATOM      2  N   LIG    1       -3.020   4.079  -0.040  0.00  0.00    -0.600 N 
ATOM      3  C   LIG    1       -1.736   4.356   0.263  0.00  0.00    +0.610 C 
ATOM      4  O   LIG    1       -1.357   5.512   0.306  0.00  0.00    -0.500 OA
ENDROOT
BRANCH   3   5
ATOM      5  C   LIG    1       -0.798   3.267   0.541  0.00  0.00    -0.070 A 
ATOM      6  C   LIG    1        0.572   3.392   0.719  0.00  0.00    -0.040 A 
ATOM      7  C   LIG    1        1.059   2.086   0.962  0.00  0.00    -0.050 A 
ATOM      8  C   LIG    1       -0.001   1.254   0.922  0.00  0.00    +0.210 A 
ATOM      9  O   LIG    1       -1.109   1.960   0.665  0.00  0.00    -0.150 OA
BRANCH   6  10
ATOM     10  C   LIG    1        1.367   4.641   0.665  0.00  0.00    -0.030 A 
ATOM     11  C   LIG    1        1.229   5.513  -0.415  0.00  0.00    +0.050 A 
ATOM     12  C   LIG    1        1.968   6.677  -0.457  0.00  0.00    +0.000 A 
ATOM     13  C   LIG    1        2.851   6.976   0.565  0.00  0.00    +0.010 A 
ATOM     14  C   LIG    1        2.996   6.113   1.636  0.00  0.00    -0.010 A 
ATOM     15  C   LIG    1        2.259   4.948   1.692  0.00  0.00    +0.020 A 
ENDBRANCH   6  10
ENDBRANCH   3   5
BRANCH   2  16
ATOM     16  C   LIG    1       -3.938   5.162  -0.397  0.00  0.00    +0.340 C 
BRANCH  16  17
ATOM     17  C   LIG    1       -3.898   5.385  -1.887  0.00  0.00    +0.500 C 
ATOM     18  N   LIG    1       -4.668   6.340  -2.446  0.00  0.00    -0.670 N 
ATOM     19  H   LIG    1       -5.296   6.838  -1.901  0.00  0.00    +0.410 HD
ATOM     20  O   LIG    1       -3.173   4.705  -2.582  0.00  0.00    -0.510 OA
BRANCH  18  21
ATOM     21  C   LIG    1       -4.560   6.612  -3.816  0.00  0.00    +0.130 A 
ATOM     22  C   LIG    1       -4.710   7.912  -4.280  0.00  0.00    +0.030 A 
ATOM     23  C   LIG    1       -4.599   8.179  -5.631  0.00  0.00    +0.010 A 
ATOM     24  C   LIG    1       -4.348   7.150  -6.523  0.00  0.00    +0.080 A 
ATOM     25  C   LIG    1       -4.203   5.852  -6.062  0.00  0.00    +0.010 A 
ATOM     26  F   LIG    1       -4.246   7.412  -7.844  0.00  0.00    -0.140 F 
ATOM     27  C   LIG    1       -4.309   5.581  -4.712  0.00  0.00    +0.060 A 
ENDBRANCH  18  21
ENDBRANCH  16  17
ENDBRANCH   2  16
TORSDOF 5
