REMARK  Name = ZINCBI0000000cpH.2
REMARK                            x       y       z     vdW  Elec       q    Type
REMARK                         _______ _______ _______ _____ _____    ______ ____
ROOT
ATOM      1  C   LIG    1        1.230   9.205   4.811  0.00  0.00    +0.090 C 
ATOM      2  C   LIG    1        0.351   8.700   3.664  0.00  0.00    +0.070 C 
ATOM      3  C   LIG    1       -0.040   9.883   2.774  0.00  0.00    -0.010 C 
ATOM      4  C   LIG    1       -0.746  10.942   3.623  0.00  0.00    +0.280 C 
ATOM      5  N   LIG    1        0.155  11.403   4.686  0.00  0.00    -0.380 N 
ATOM      6  H   LIG    1        1.005  11.757   4.273  0.00  0.00    +0.420 HD
ATOM      7  C   LIG    1        0.477  10.289   5.585  0.00  0.00    +0.270 C 
ENDROOT
BRANCH   3   8
ATOM      8  C   LIG    1       -0.968   9.409   1.685  0.00  0.00    +0.530 C 
ATOM      9  N   LIG    1       -0.465   8.885   0.551  0.00  0.00    -0.610 N 
ATOM     10  C   LIG    1       -1.351   8.321  -0.479  0.00  0.00    +0.310 C 
ATOM     11  C   LIG    1       -0.853   6.915  -0.833  0.00  0.00    +0.220 C 
ATOM     12  N   LIG    1        0.567   6.981  -1.204  0.00  0.00    -0.460 N 
ATOM     13  C   LIG    1        1.392   7.434  -0.075  0.00  0.00    +0.210 C 
ATOM     14  C   LIG    1        0.986   8.860   0.310  0.00  0.00    +0.300 C 
ATOM     15  O   LIG    1       -2.169   9.500   1.831  0.00  0.00    -0.520 OA
BRANCH  12  16
ATOM     16  C   LIG    1        1.010   5.761  -1.685  0.00  0.00    +0.490 A 
ATOM     17  N   LIG    1        2.273   5.638  -2.068  0.00  0.00    -0.520 NA
ATOM     18  C   LIG    1        2.729   4.487  -2.533  0.00  0.00    +0.370 A 
ATOM     19  C   LIG    1        1.869   3.402  -2.617  0.00  0.00    -0.180 A 
ATOM     20  C   LIG    1        0.552   3.568  -2.212  0.00  0.00    +0.370 A 
ATOM     21 CL   LIG    1        2.425   1.873  -3.221  0.00  0.00    -0.030 Cl
ATOM     22  N   LIG    1        0.163   4.745  -1.752  0.00  0.00    -0.540 NA
ENDBRANCH  12  16
ENDBRANCH   3   8
BRANCH   1  26
ATOM     23  C   LIG    1        3.755   5.786   7.468  0.00  0.00    +0.360 C 
ATOM     24  N   LIG    1        2.663   6.574   6.890  0.00  0.00    -0.360 N 
ATOM     25  C   LIG    1        2.797   7.601   6.025  0.00  0.00    +0.260 A 
ATOM     26  C   LIG    1        1.558   8.061   5.736  0.00  0.00    -0.260 A 
ATOM     27  C   LIG    1        0.634   7.282   6.441  0.00  0.00    +0.240 A 
ATOM     28  N   LIG    1        1.296   6.391   7.133  0.00  0.00    -0.280 NA
ENDBRANCH   1  26
BRANCH   5  29
ATOM     29  C   LIG    1       -0.499  12.474   5.450  0.00  0.00    +0.350 C 
BRANCH  29  30
ATOM     30  C   LIG    1       -0.719  13.667   4.556  0.00  0.00    -0.150 A 
ATOM     31  C   LIG    1       -1.985  13.950   4.080  0.00  0.00    +0.080 A 
ATOM     32  C   LIG    1       -2.187  15.046   3.259  0.00  0.00    +0.130 A 
ATOM     33  C   LIG    1       -1.121  15.859   2.914  0.00  0.00    -0.090 A 
ATOM     34  C   LIG    1        0.146  15.576   3.390  0.00  0.00    +0.080 A 
ATOM     35 BR   LIG    1       -1.397  17.357   1.793  0.00  0.00    +0.020 Br
ATOM     36  F   LIG    1       -3.425  15.322   2.795  0.00  0.00    -0.100 F 
ATOM     37  C   LIG    1        0.347  14.483   4.216  0.00  0.00    +0.110 A 
ATOM     38  F   LIG    1        1.584  14.209   4.685  0.00  0.00    -0.120 F 
ENDBRANCH  29  30
ENDBRANCH   5  29
TORSDOF 5
