REMARK  Name = ZINCBI0000000cpH.1
REMARK                            x       y       z     vdW  Elec       q    Type
REMARK                         _______ _______ _______ _____ _____    ______ ____
ROOT
ATOM      1  C   LIG    1        2.904   2.046   0.611  0.00  0.00    +0.090 C 
ATOM      2  C   LIG    1        3.369   2.408  -0.803  0.00  0.00    +0.080 C 
ATOM      3  C   LIG    1        4.753   1.798  -1.045  0.00  0.00    -0.020 C 
ATOM      4  C   LIG    1        5.720   2.299   0.030  0.00  0.00    +0.300 C 
ATOM      5  N   LIG    1        5.234   1.899   1.356  0.00  0.00    -0.380 N 
ATOM      6  H   LIG    1        5.900   2.184   2.058  0.00  0.00    +0.430 HD
ATOM      7  C   LIG    1        3.939   2.537   1.624  0.00  0.00    +0.260 C 
ENDROOT
BRANCH   3   8
ATOM      8  C   LIG    1        5.255   2.212  -2.405  0.00  0.00    +0.530 C 
ATOM      9  N   LIG    1        4.946   1.474  -3.490  0.00  0.00    -0.610 N 
ATOM     10  C   LIG    1        4.036   0.323  -3.386  0.00  0.00    +0.290 C 
ATOM     11  C   LIG    1        2.946   0.473  -4.459  0.00  0.00    +0.210 C 
ATOM     12  N   LIG    1        3.579   0.646  -5.773  0.00  0.00    -0.460 N 
ATOM     13  C   LIG    1        4.371   1.883  -5.823  0.00  0.00    +0.220 C 
ATOM     14  C   LIG    1        5.515   1.795  -4.808  0.00  0.00    +0.310 C 
ATOM     15  O   LIG    1        5.936   3.208  -2.523  0.00  0.00    -0.520 OA
BRANCH  12  16
ATOM     16  C   LIG    1        2.636   0.619  -6.786  0.00  0.00    +0.490 A 
ATOM     17  N   LIG    1        2.557   1.643  -7.623  0.00  0.00    -0.540 NA
ATOM     18  C   LIG    1        1.671   1.647  -8.605  0.00  0.00    +0.370 A 
ATOM     19  C   LIG    1        0.812   0.567  -8.745  0.00  0.00    -0.180 A 
ATOM     20  C   LIG    1        0.918  -0.485  -7.848  0.00  0.00    +0.370 A 
ATOM     21 CL   LIG    1       -0.372   0.534 -10.015  0.00  0.00    -0.030 Cl
ATOM     22  N   LIG    1        1.831  -0.427  -6.892  0.00  0.00    -0.520 NA
ENDBRANCH  12  16
ENDBRANCH   3   8
BRANCH   1  26
ATOM     23  C   LIG    1       -1.935   2.763   1.702  0.00  0.00    +0.360 C 
ATOM     24  N   LIG    1       -0.532   3.010   1.363  0.00  0.00    -0.360 N 
ATOM     25  C   LIG    1        0.422   2.070   1.195  0.00  0.00    +0.260 A 
ATOM     26  C   LIG    1        1.577   2.705   0.887  0.00  0.00    -0.260 A 
ATOM     27  C   LIG    1        1.322   4.080   0.872  0.00  0.00    +0.240 A 
ATOM     28  N   LIG    1        0.059   4.264   1.160  0.00  0.00    -0.280 NA
ENDBRANCH   1  26
BRANCH   5  29
ATOM     29  C   LIG    1        5.075   0.439   1.396  0.00  0.00    +0.330 C 
BRANCH  29  30
ATOM     30  C   LIG    1        4.723   0.011   2.797  0.00  0.00    -0.150 A 
ATOM     31  C   LIG    1        3.433  -0.387   3.093  0.00  0.00    +0.070 A 
ATOM     32  C   LIG    1        3.108  -0.781   4.380  0.00  0.00    +0.130 A 
ATOM     33  C   LIG    1        4.076  -0.777   5.371  0.00  0.00    -0.090 A 
ATOM     34  C   LIG    1        5.367  -0.379   5.074  0.00  0.00    +0.080 A 
ATOM     35 BR   LIG    1        3.633  -1.315   7.129  0.00  0.00    +0.020 Br
ATOM     36  F   LIG    1        1.847  -1.169   4.670  0.00  0.00    -0.100 F 
ATOM     37  C   LIG    1        5.692   0.010   3.786  0.00  0.00    +0.120 A 
ATOM     38  F   LIG    1        6.954   0.393   3.494  0.00  0.00    -0.120 F 
ENDBRANCH  29  30
ENDBRANCH   5  29
TORSDOF 5
