REMARK  Name = ZINCqH0000036t0c.0
REMARK                            x       y       z     vdW  Elec       q    Type
REMARK                         _______ _______ _______ _____ _____    ______ ____
ROOT
ATOM      1  N   LIG    1        2.903   0.816  -1.403  0.00  0.00    -0.740 N 
ATOM      2  H   LIG    1        2.346   1.129  -2.133  0.00  0.00    +0.400 HD
ATOM      3  C   LIG    1        4.057   0.171  -1.663  0.00  0.00    +0.710 C 
ATOM      4  N   LIG    1        4.388  -0.131  -2.935  0.00  0.00    -0.620 N 
ATOM      5  C   LIG    1        3.553   0.328  -4.053  0.00  0.00    +0.250 C 
ATOM      6  C   LIG    1        3.186  -0.874  -4.920  0.00  0.00    +0.010 C 
ATOM      7  C   LIG    1        4.461  -1.607  -5.338  0.00  0.00    +0.020 C 
ATOM      8  C   LIG    1        5.178  -2.139  -4.085  0.00  0.00    -0.070 C 
ATOM      9  C   LIG    1        4.136  -2.946  -3.272  0.00  0.00    +0.020 C 
ATOM     10  C   LIG    1        3.342  -3.812  -4.207  0.00  0.00    +0.000 C 
ATOM     11  C   LIG    1        3.913  -5.240  -4.334  0.00  0.00    +0.000 C 
ATOM     12  C   LIG    1        5.449  -5.261  -4.429  0.00  0.00    +0.000 C 
ATOM     13  C   LIG    1        5.974  -4.165  -5.317  0.00  0.00    +0.010 C 
ATOM     14  C   LIG    1        6.334  -2.959  -4.434  0.00  0.00    +0.020 C 
ATOM     15  C   LIG    1        5.586  -0.928  -3.224  0.00  0.00    +0.290 C 
ATOM     16  O   LIG    1        4.800  -0.139  -0.752  0.00  0.00    -0.580 OA
ENDROOT
BRANCH   1  17
ATOM     17  C   LIG    1        2.489   1.046  -0.016  0.00  0.00    +0.330 C 
BRANCH  17  21
ATOM     18  C   LIG    1       -1.239   3.131   0.030  0.00  0.00    -0.650 A 
ATOM     19  C   LIG    1       -1.220   1.749   0.016  0.00  0.00    +0.130 A 
ATOM     20  C   LIG    1       -0.014   1.074   0.006  0.00  0.00    +0.020 A 
ATOM     21  C   LIG    1        1.174   1.781   0.001  0.00  0.00    -0.060 A 
ATOM     22  C   LIG    1        1.155   3.163   0.009  0.00  0.00    +0.020 A 
ATOM     23  C   LIG    1       -0.051   3.838   0.024  0.00  0.00    +0.130 A 
BRANCH  18  25
ATOM     24  C   LIG    1       -3.188   4.223  -1.702  0.00  0.00    -0.260 C 
ATOM     25  S   LIG    1       -2.776   3.991   0.050  0.00  0.00    +2.500 S 
ATOM     26  O   LIG    1       -2.473   5.238   0.660  0.00  0.00    -0.930 OA
ATOM     27  O   LIG    1       -3.681   3.079   0.658  0.00  0.00    -0.930 OA
ENDBRANCH  18  25
ENDBRANCH  17  21
ENDBRANCH   1  17
TORSDOF 3
