REMARK  Name = ZINCpe000000XUmd.0
REMARK                            x       y       z     vdW  Elec       q    Type
REMARK                         _______ _______ _______ _____ _____    ______ ____
ROOT
ATOM      1  N   LIG    1       -0.046   3.941   1.018  0.00  0.00    -0.500 N 
ATOM      2  C   LIG    1        1.178   3.140   1.146  0.00  0.00    +0.180 C 
ATOM      3  C   LIG    1        1.236   2.115   0.008  0.00  0.00    +0.280 C 
ATOM      4  N   LIG    1       -0.016   1.343   0.010  0.00  0.00    -0.630 N 
ATOM      5  C   LIG    1       -1.288   2.081   0.015  0.00  0.00    +0.320 C 
ATOM      6  C   LIG    1        0.002  -0.004   0.002  0.00  0.00    +0.710 C 
ATOM      7  N   LIG    1        1.173  -0.661  -0.114  0.00  0.00    -0.740 N 
ATOM      8  H   LIG    1        2.008  -0.168  -0.120  0.00  0.00    +0.400 HD
ATOM      9  O   LIG    1       -1.038  -0.627   0.100  0.00  0.00    -0.590 OA
ATOM     10  C   LIG    1       -1.247   3.107   1.159  0.00  0.00    +0.180 C 
ENDROOT
BRANCH   1  17
ATOM     11  C   LIG    1       -0.170   6.602   0.018  0.00  0.00    +0.100 C 
ATOM     12  C   LIG    1       -0.115   6.306   1.494  0.00  0.00    -0.060 A 
ATOM     13  C   LIG    1       -0.129   7.342   2.408  0.00  0.00    +0.010 A 
ATOM     14  C   LIG    1       -0.073   7.072   3.763  0.00  0.00    +0.000 A 
ATOM     15  C   LIG    1       -0.008   5.765   4.208  0.00  0.00    +0.000 A 
ATOM     16  C   LIG    1        0.001   4.724   3.300  0.00  0.00    -0.020 A 
ATOM     17  C   LIG    1       -0.055   4.992   1.939  0.00  0.00    +0.080 A 
ENDBRANCH   1  17
BRANCH   7  18
ATOM     18  C   LIG    1        1.184  -2.122  -0.233  0.00  0.00    +0.280 C 
BRANCH  18  19
ATOM     19  C   LIG    1        2.629  -2.612  -0.351  0.00  0.00    +0.160 C 
ATOM     20  C   LIG    1        2.646  -4.137  -0.591  0.00  0.00    +0.040 C 
ATOM     21  C   LIG    1        3.853  -4.594   0.273  0.00  0.00    +0.050 C 
ATOM     22  C   LIG    1        3.760  -3.599   1.457  0.00  0.00    +0.160 C 
ATOM     23  O   LIG    1        3.329  -2.359   0.873  0.00  0.00    -0.340 OA
BRANCH  22  24
ATOM     24  C   LIG    1        5.108  -3.430   2.109  0.00  0.00    +0.520 C 
ATOM     25  O   LIG    1        5.692  -2.370   2.028  0.00  0.00    -0.520 OA
ATOM     26  N   LIG    1        5.665  -4.457   2.781  0.00  0.00    -0.850 N 
ATOM     27  H   LIG    1        6.533  -4.348   3.200  0.00  0.00    +0.410 HD
ATOM     28  H   LIG    1        5.198  -5.304   2.846  0.00  0.00    +0.400 HD
ENDBRANCH  22  24
ENDBRANCH  18  19
ENDBRANCH   7  18
TORSDOF 4
