REMARK  Name = ZINCvU0000000BeQ.0
REMARK                            x       y       z     vdW  Elec       q    Type
REMARK                         _______ _______ _______ _____ _____    ______ ____
ROOT
ATOM      1  C   LIG    1       -1.434   3.107   0.424  0.00  0.00    -0.240 A 
ATOM      2  C   LIG    1       -0.127   2.684   0.248  0.00  0.00    +0.140 A 
ATOM      3  C   LIG    1        0.936   3.701   0.228  0.00  0.00    -0.130 A 
ATOM      4  C   LIG    1        2.274   3.340   0.050  0.00  0.00    +0.100 A 
ATOM      5  C   LIG    1        3.246   4.316   0.035  0.00  0.00    -0.020 A 
ATOM      6  C   LIG    1        2.904   5.650   0.197  0.00  0.00    +0.090 A 
ATOM      7  C   LIG    1        1.588   6.022   0.375  0.00  0.00    -0.030 A 
ATOM      8  C   LIG    1        0.590   5.053   0.392  0.00  0.00    +0.210 A 
ATOM      9  N   LIG    1       -0.733   5.408   0.570  0.00  0.00    -0.630 N 
ATOM     10  H   LIG    1       -0.962   6.344   0.682  0.00  0.00    +0.420 HD
ATOM     11  C   LIG    1       -1.710   4.486   0.590  0.00  0.00    +0.560 A 
ATOM     12  O   LIG    1       -2.863   4.846   0.750  0.00  0.00    -0.510 OA
ENDROOT
BRANCH   2  13
ATOM     13  C   LIG    1        0.191   1.250   0.078  0.00  0.00    -0.070 A 
ATOM     14  C   LIG    1        0.910   0.570   1.063  0.00  0.00    +0.040 A 
ATOM     15  C   LIG    1        1.198  -0.770   0.901  0.00  0.00    +0.010 A 
ATOM     16  C   LIG    1        0.785  -1.437  -0.239  0.00  0.00    +0.030 A 
ATOM     17  C   LIG    1        0.077  -0.767  -1.221  0.00  0.00    +0.010 A 
ATOM     18  C   LIG    1       -0.223   0.571  -1.070  0.00  0.00    +0.040 A 
ENDBRANCH   2  13
BRANCH   1  19
ATOM     19  S   LIG    1       -2.748   1.933   0.449  0.00  0.00    +0.170 S 
BRANCH  19  22
ATOM     20  C   LIG    1       -5.077   0.314   2.149  0.00  0.00    +0.350 C 
ATOM     21  N   LIG    1       -4.259   1.378   2.737  0.00  0.00    -0.460 N 
ATOM     22  C   LIG    1       -3.278   2.102   2.121  0.00  0.00    +0.150 A 
ATOM     23  N   LIG    1       -2.799   2.944   3.009  0.00  0.00    -0.270 NA
ATOM     24  N   LIG    1       -3.415   2.803   4.128  0.00  0.00    -0.270 NA
ATOM     25  C   LIG    1       -4.319   1.856   4.025  0.00  0.00    +0.220 A 
BRANCH  25  26
ATOM     26  C   LIG    1       -5.229   1.391   5.093  0.00  0.00    -0.020 A 
ATOM     27  C   LIG    1       -5.438   2.177   6.227  0.00  0.00    +0.100 A 
ATOM     28  C   LIG    1       -6.292   1.741   7.218  0.00  0.00    +0.000 A 
ATOM     29  C   LIG    1       -6.934   0.519   7.095  0.00  0.00    +0.110 A 
ATOM     30  C   LIG    1       -6.726  -0.269   5.974  0.00  0.00    -0.010 A 
ATOM     31  F   LIG    1       -7.765   0.093   8.071  0.00  0.00    -0.130 F 
ATOM     32  C   LIG    1       -5.878   0.160   4.974  0.00  0.00    +0.050 A 
ENDBRANCH  25  26
ENDBRANCH  19  22
ENDBRANCH   1  19
TORSDOF 4
