REMARK  Name = ZINCtV00000L6jJd.0
REMARK                            x       y       z     vdW  Elec       q    Type
REMARK                         _______ _______ _______ _____ _____    ______ ____
ROOT
ATOM      1  C   LIG    1        1.144  -4.807   0.260  0.00  0.00    +0.180 A 
ATOM      2  C   LIG    1        0.398  -3.888   0.986  0.00  0.00    -0.020 A 
ATOM      3  C   LIG    1        0.775  -2.561   1.014  0.00  0.00    +0.030 A 
ATOM      4  C   LIG    1        1.901  -2.144   0.315  0.00  0.00    +0.120 A 
ATOM      5  C   LIG    1        2.644  -3.061  -0.416  0.00  0.00    +0.060 A 
ATOM      6  C   LIG    1        2.270  -4.390  -0.439  0.00  0.00    -0.020 A 
ENDROOT
BRANCH   4   7
ATOM      7  N   LIG    1        2.283  -0.795   0.343  0.00  0.00    -0.680 N 
ATOM      8  H   LIG    1        1.607  -0.100   0.366  0.00  0.00    +0.410 HD
ATOM      9  C   LIG    1        3.589  -0.465   0.337  0.00  0.00    +0.700 C 
ATOM     10  N   LIG    1        3.958   0.828   0.422  0.00  0.00    -0.680 N 
ATOM     11  H   LIG    1        3.285   1.526   0.408  0.00  0.00    +0.410 HD
ATOM     12  O   LIG    1        4.436  -1.334   0.254  0.00  0.00    -0.550 OA
BRANCH  10  13
ATOM     13  C   LIG    1        5.312   1.165   0.526  0.00  0.00    +0.170 A 
ATOM     14  C   LIG    1        6.180   0.345   1.235  0.00  0.00    +0.050 A 
ATOM     15  C   LIG    1        7.518   0.677   1.332  0.00  0.00    +0.040 A 
ATOM     16  C   LIG    1        7.990   1.830   0.733  0.00  0.00    +0.060 A 
ATOM     17  C   LIG    1        7.127   2.651   0.030  0.00  0.00    -0.160 A 
ATOM     18  C   LIG    1        5.790   2.322  -0.074  0.00  0.00    +0.040 A 
BRANCH  17  19
ATOM     19  C   LIG    1        7.646   3.907  -0.621  0.00  0.00    +0.510 C 
ATOM     20  F   LIG    1        6.884   4.191  -1.759  0.00  0.00    -0.180 F 
ATOM     21  F   LIG    1        8.983   3.723  -0.989  0.00  0.00    -0.170 F 
ATOM     22  F   LIG    1        7.554   4.973   0.281  0.00  0.00    -0.180 F 
ENDBRANCH  17  19
ENDBRANCH  10  13
ENDBRANCH   4   7
BRANCH   1  23
ATOM     23  N   LIG    1        0.763  -6.153   0.232  0.00  0.00    -0.690 N 
ATOM     24  H   LIG    1        0.254  -6.528   0.968  0.00  0.00    +0.410 HD
BRANCH  23  28
ATOM     25  C   LIG    1        1.809  -8.549  -3.015  0.00  0.00    +0.100 A 
ATOM     26  C   LIG    1        1.671  -9.111  -1.754  0.00  0.00    +0.010 A 
ATOM     27  C   LIG    1        1.324  -8.319  -0.678  0.00  0.00    +0.010 A 
ATOM     28  C   LIG    1        1.114  -6.957  -0.858  0.00  0.00    +0.140 A 
ATOM     29  C   LIG    1        1.247  -6.396  -2.122  0.00  0.00    +0.010 A 
ATOM     30  C   LIG    1        1.599  -7.190  -3.196  0.00  0.00    -0.040 A 
BRANCH  25  32
ATOM     31  C   LIG    1        2.275  -8.686  -5.343  0.00  0.00    +0.240 C 
ATOM     32  O   LIG    1        2.150  -9.331  -4.074  0.00  0.00    -0.320 OA
ENDBRANCH  25  32
ENDBRANCH  23  28
ENDBRANCH   1  23
TORSDOF 6
