REMARK  Name = ZINCpe00000zgRaz.0
REMARK                            x       y       z     vdW  Elec       q    Type
REMARK                         _______ _______ _______ _____ _____    ______ ____
ROOT
ATOM      1  C   LIG    1       -7.381  -0.154  -0.534  0.00  0.00    +0.320 C 
ATOM      2  N   LIG    1       -8.815  -0.314  -0.328  0.00  0.00    -0.700 N 
ATOM      3  H   LIG    1       -9.288  -0.944  -0.894  0.00  0.00    +0.410 HD
ATOM      4  C   LIG    1       -9.517   0.350   0.591  0.00  0.00    +0.530 C 
ATOM      5  C   LIG    1       -8.922   1.386   1.500  0.00  0.00    +0.090 C 
ATOM      6  C   LIG    1       -7.398   1.244   1.524  0.00  0.00    +0.040 C 
ATOM      7  O   LIG    1      -10.700   0.104   0.698  0.00  0.00    -0.540 OA
ATOM      8  C   LIG    1       -6.896   1.161   0.078  0.00  0.00    +0.250 C 
ENDROOT
BRANCH   1  14
ATOM      9  C   LIG    1       -5.124  -1.724  -1.963  0.00  0.00    +0.320 C 
ATOM     10  N   LIG    1       -6.097  -0.846  -2.617  0.00  0.00    -0.450 N 
ATOM     11  C   LIG    1       -6.176  -0.576  -3.957  0.00  0.00    +0.140 A 
ATOM     12  C   LIG    1       -7.204   0.278  -4.123  0.00  0.00    +0.140 A 
ATOM     13  N   LIG    1       -7.742   0.518  -2.918  0.00  0.00    -0.460 NA
ATOM     14  C   LIG    1       -7.087  -0.154  -2.012  0.00  0.00    +0.170 A 
ENDBRANCH   1  14
BRANCH   8  15
ATOM     15  N   LIG    1       -5.431   1.200   0.063  0.00  0.00    -0.710 N 
ATOM     16  H   LIG    1       -4.925   0.373   0.053  0.00  0.00    +0.400 HD
ATOM     17  C   LIG    1       -4.789   2.384   0.063  0.00  0.00    +0.610 C 
ATOM     18  O   LIG    1       -5.424   3.421   0.076  0.00  0.00    -0.520 OA
BRANCH  17  19
ATOM     19  C   LIG    1       -3.313   2.423   0.048  0.00  0.00    +0.000 A 
ATOM     20  C   LIG    1       -2.542   3.550   0.047  0.00  0.00    +0.190 A 
ATOM     21  N   LIG    1       -1.241   3.145   0.031  0.00  0.00    -0.360 N 
ATOM     22  C   LIG    1       -0.062   3.836   0.024  0.00  0.00    +0.220 A 
ATOM     23  C   LIG    1        1.117   3.183   0.009  0.00  0.00    +0.030 A 
ATOM     24  C   LIG    1        1.151   1.778   0.001  0.00  0.00    +0.050 A 
ATOM     25  C   LIG    1       -0.013   1.076   0.008  0.00  0.00    +0.070 A 
ATOM     26  C   LIG    1       -1.241   1.772   0.018  0.00  0.00    +0.230 A 
ATOM     27  N   LIG    1       -2.495   1.355   0.034  0.00  0.00    -0.470 NA
ENDBRANCH  17  19
ENDBRANCH   8  15
TORSDOF 3
