REMARK  Name = ZINCpk00001AZiA7.0
REMARK                            x       y       z     vdW  Elec       q    Type
REMARK                         _______ _______ _______ _____ _____    ______ ____
ROOT
ATOM      1  S   LIG    1       -0.799   4.136   4.399  0.00  0.00    +2.730 S 
ATOM      2  O   LIG    1       -0.089   3.169   5.161  0.00  0.00    -0.900 OA
ATOM      3  O   LIG    1       -1.972   4.787   4.869  0.00  0.00    -0.910 OA
ENDROOT
BRANCH   1   4
ATOM      4  N   LIG    1       -1.212   3.398   2.975  0.00  0.00    -0.860 NA
ATOM      5  O   LIG    1       -2.217   3.860   2.033  0.00  0.00    -0.080 OA
ATOM      6  C   LIG    1       -1.769   3.372   0.802  0.00  0.00    +0.110 C 
ATOM      7  C   LIG    1       -2.569   3.151  -0.456  0.00  0.00    +0.080 C 
ATOM      8  C   LIG    1       -1.706   2.082  -1.200  0.00  0.00    +0.040 C 
ATOM      9  C   LIG    1       -0.897   1.342  -0.093  0.00  0.00    +0.050 C 
ATOM     10  C   LIG    1       -1.456   1.876   1.203  0.00  0.00    -0.020 C 
ATOM     11  C   LIG    1       -0.617   2.140   2.433  0.00  0.00    +0.290 C 
BRANCH  11  12
ATOM     12  C   LIG    1       -0.753   1.014   3.424  0.00  0.00    +0.460 C 
ATOM     13  O   LIG    1       -1.491   1.132   4.374  0.00  0.00    -0.480 OA
BRANCH  12  14
ATOM     14  O   LIG    1       -0.056  -0.120   3.252  0.00  0.00    -0.350 OA
ATOM     15  C   LIG    1       -0.236  -1.162   4.247  0.00  0.00    +0.280 C 
ENDBRANCH  12  14
ENDBRANCH  11  12
ENDBRANCH   1   4
BRANCH   1  20
ATOM     16  N   LIG    1        0.054   6.657   3.597  0.00  0.00    -0.300 N 
ATOM     17  N   LIG    1        1.256   7.349   3.402  0.00  0.00    -0.240 NA
ATOM     18  C   LIG    1        2.245   6.539   3.683  0.00  0.00    +0.090 A 
ATOM     19  C   LIG    1        1.704   5.308   4.070  0.00  0.00    +0.030 A 
ATOM     20  C   LIG    1        0.356   5.409   4.011  0.00  0.00    -0.500 A 
BRANCH  18  21
ATOM     21  C   LIG    1        3.712   6.874   3.604  0.00  0.00    +0.030 C 
ATOM     22  C   LIG    1        4.689   5.944   4.326  0.00  0.00    +0.040 C 
ATOM     23  C   LIG    1        4.401   7.337   4.889  0.00  0.00    +0.040 C 
ENDBRANCH  18  21
BRANCH  16  25
ATOM     24  C   LIG    1       -1.770   7.883   4.672  0.00  0.00    +0.070 C 
ATOM     25  C   LIG    1       -1.293   7.195   3.391  0.00  0.00    +0.320 C 
ENDBRANCH  16  25
ENDBRANCH   1  20
TORSDOF 6
