REMARK  Name = ZINCvU0000000H8E.1
REMARK                            x       y       z     vdW  Elec       q    Type
REMARK                         _______ _______ _______ _____ _____    ______ ____
ROOT
ATOM      1  N   LIG    1        5.546   1.460  -0.471  0.00  0.00    -0.720 N 
ATOM      2  H   LIG    1        5.688   0.575  -0.841  0.00  0.00    +0.400 HD
ATOM      3  C   LIG    1        6.495   2.408  -0.607  0.00  0.00    +0.560 C 
ATOM      4  O   LIG    1        6.317   3.517  -0.142  0.00  0.00    -0.510 OA
ENDROOT
BRANCH   3   5
ATOM      5  C   LIG    1        7.748   2.099  -1.319  0.00  0.00    -0.130 A 
ATOM      6  C   LIG    1        7.957   0.826  -1.854  0.00  0.00    +0.070 A 
ATOM      7  C   LIG    1        9.130   0.544  -2.519  0.00  0.00    -0.010 A 
ATOM      8  C   LIG    1       10.107   1.518  -2.660  0.00  0.00    +0.060 A 
ATOM      9  C   LIG    1        9.916   2.780  -2.137  0.00  0.00    -0.020 A 
ATOM     10  C   LIG    1        8.737   3.085  -1.468  0.00  0.00    -0.050 A 
BRANCH  10  11
ATOM     11  S   LIG    1        8.487   4.698  -0.805  0.00  0.00    +0.020 S 
BRANCH  11  12
ATOM     12  C   LIG    1       10.015   5.566  -1.256  0.00  0.00    +0.080 C 
BRANCH  12  13
ATOM     13  C   LIG    1        9.955   6.985  -0.750  0.00  0.00    -0.090 A 
ATOM     14  C   LIG    1       10.398   7.335   0.459  0.00  0.00    -0.030 A 
ATOM     15  S   LIG    1       10.164   9.062   0.694  0.00  0.00    +0.110 S 
ATOM     16  C   LIG    1        9.458   9.216  -0.909  0.00  0.00    -0.040 A 
ATOM     17  C   LIG    1        9.442   8.024  -1.507  0.00  0.00    +0.010 A 
ENDBRANCH  12  13
ENDBRANCH  11  12
ENDBRANCH  10  11
ENDBRANCH   3   5
BRANCH   1  18
ATOM     18  C   LIG    1        4.301   1.767   0.237  0.00  0.00    +0.280 C 
BRANCH  18  19
ATOM     19  C   LIG    1        3.462   0.494   0.369  0.00  0.00    +0.180 C 
BRANCH  19  23
ATOM     20  C   LIG    1        5.501  -2.301   2.877  0.00  0.00    +0.130 A 
ATOM     21  C   LIG    1        5.555  -2.438   1.498  0.00  0.00    -0.020 A 
ATOM     22  C   LIG    1        4.895  -1.533   0.689  0.00  0.00    +0.040 A 
ATOM     23  C   LIG    1        4.181  -0.492   1.253  0.00  0.00    -0.120 A 
ATOM     24  C   LIG    1        4.130  -0.351   2.628  0.00  0.00    +0.080 A 
ATOM     25  C   LIG    1        4.783  -1.256   3.441  0.00  0.00    -0.080 A 
BRANCH  20  27
ATOM     26  C   LIG    1        6.050  -2.988   5.086  0.00  0.00    +0.250 C 
ATOM     27  O   LIG    1        6.150  -3.190   3.675  0.00  0.00    -0.320 OA
ENDBRANCH  20  27
ENDBRANCH  19  23
BRANCH  19  28
ATOM     28  N   LIG    1        2.159   0.825   0.962  0.00  0.00    -0.520 NA
ATOM     29  C   LIG    1        1.452   1.840   0.153  0.00  0.00    +0.180 C 
ATOM     30  C   LIG    1       -0.049   1.482   0.292  0.00  0.00    +0.020 C 
ATOM     31  C   LIG    1       -0.001  -0.069   0.299  0.00  0.00    +0.010 C 
ATOM     32  C   LIG    1        1.305  -0.373   1.062  0.00  0.00    +0.190 C 
ENDBRANCH  19  28
ENDBRANCH  18  19
ENDBRANCH   1  18
TORSDOF 9
