REMARK  Name = ZINCwl0000000gdM.0
REMARK                            x       y       z     vdW  Elec       q    Type
REMARK                         _______ _______ _______ _____ _____    ______ ____
ROOT
ATOM      1  C   LIG    1       -2.921   1.615   2.435  0.00  0.00    +0.530 C 
ATOM      2  N   LIG    1       -2.417   1.493   3.679  0.00  0.00    -0.670 N 
ATOM      3  H   LIG    1       -1.610   0.975   3.827  0.00  0.00    +0.420 HD
ATOM      4  O   LIG    1       -3.980   2.182   2.263  0.00  0.00    -0.490 OA
ENDROOT
BRANCH   2   5
ATOM      5  C   LIG    1       -3.058   2.115   4.760  0.00  0.00    +0.100 A 
ATOM      6  C   LIG    1       -4.448   2.218   4.790  0.00  0.00    +0.110 A 
ATOM      7  C   LIG    1       -5.038   2.839   5.876  0.00  0.00    -0.010 A 
ATOM      8  C   LIG    1       -4.232   3.336   6.894  0.00  0.00    +0.270 A 
ATOM      9  N   LIG    1       -2.914   3.220   6.831  0.00  0.00    -0.490 NA
ATOM     10  C   LIG    1       -2.318   2.629   5.814  0.00  0.00    +0.280 A 
BRANCH   8  11
ATOM     11  N   LIG    1       -4.816   3.962   7.992  0.00  0.00    -0.470 N 
ATOM     12  C   LIG    1       -5.664   5.085   7.567  0.00  0.00    +0.230 C 
ATOM     13  C   LIG    1       -6.333   5.708   8.795  0.00  0.00    +0.280 C 
ATOM     14  N   LIG    1       -5.301   6.177   9.730  0.00  0.00    -0.390 N 
ATOM     15  C   LIG    1       -4.478   5.040  10.163  0.00  0.00    +0.270 C 
ATOM     16  C   LIG    1       -5.944   6.790  10.899  0.00  0.00    +0.320 C 
ATOM     17  H   LIG    1       -4.717   6.859   9.271  0.00  0.00    +0.420 HD
ATOM     18  C   LIG    1       -3.794   4.412   8.947  0.00  0.00    +0.250 C 
ENDBRANCH   8  11
ENDBRANCH   2   5
BRANCH   1  19
ATOM     19  C   LIG    1       -2.170   1.048   1.258  0.00  0.00    +0.130 C 
BRANCH  19  20
ATOM     20  N   LIG    1       -3.080   0.910   0.119  0.00  0.00    -0.480 NA
ATOM     21  C   LIG    1       -3.290  -0.262  -0.409  0.00  0.00    +0.400 C 
ATOM     22  N   LIG    1       -2.671  -1.386   0.076  0.00  0.00    -1.050 N 
ATOM     23  H   LIG    1       -2.047  -1.437   0.817  0.00  0.00    +0.450 HD
ATOM     24  S   LIG    1       -3.217  -2.648  -0.874  0.00  0.00    +2.670 S 
ATOM     25  C   LIG    1       -4.289  -1.767  -1.975  0.00  0.00    -0.630 A 
ATOM     26  C   LIG    1       -5.081  -2.141  -3.026  0.00  0.00    +0.160 A 
ATOM     27  C   LIG    1       -5.821  -1.185  -3.705  0.00  0.00    +0.050 A 
ATOM     28  C   LIG    1       -5.750   0.139  -3.311  0.00  0.00    +0.080 A 
ATOM     29  C   LIG    1       -4.955   0.519  -2.253  0.00  0.00    +0.100 A 
ATOM     30  O   LIG    1       -2.113  -3.116  -1.637  0.00  0.00    -0.920 OA
ATOM     31  O   LIG    1       -4.031  -3.479  -0.059  0.00  0.00    -0.930 OA
ATOM     32  C   LIG    1       -4.198  -0.436  -1.555  0.00  0.00    -0.030 A 
ENDBRANCH  19  20
BRANCH  19  34
ATOM     33  C   LIG    1       -1.594   3.318   0.390  0.00  0.00    +0.040 C 
ATOM     34  C   LIG    1       -1.023   1.988   0.884  0.00  0.00    +0.000 C 
ATOM     35  C   LIG    1       -0.182   1.351  -0.224  0.00  0.00    +0.040 C 
ENDBRANCH  19  34
ENDBRANCH   1  19
TORSDOF 5
