REMARK  Name = ZINCpk00000xI0z1.0
REMARK                            x       y       z     vdW  Elec       q    Type
REMARK                         _______ _______ _______ _____ _____    ______ ____
ROOT
ATOM      1  C   LIG    1       -8.800  -2.887  -0.286  0.00  0.00    +0.140 C 
ATOM      2  C   LIG    1       -9.164  -2.172   0.989  0.00  0.00    -0.110 A 
ATOM      3  C   LIG    1      -10.426  -2.264   1.491  0.00  0.00    +0.110 A 
ATOM      4  C   LIG    1      -10.751  -1.593   2.679  0.00  0.00    -0.010 A 
ATOM      5  C   LIG    1       -9.815  -0.861   3.322  0.00  0.00    +0.280 A 
ATOM      6  N   LIG    1       -8.546  -0.761   2.830  0.00  0.00    -0.450 N 
ATOM      7  C   LIG    1       -7.634  -0.020   3.498  0.00  0.00    +0.560 A 
ATOM      8  C   LIG    1       -6.323   0.072   2.973  0.00  0.00    -0.310 A 
ATOM      9  C   LIG    1       -6.020  -0.611   1.776  0.00  0.00    +0.350 A 
ATOM     10  N   LIG    1       -4.709  -0.360   1.483  0.00  0.00    -0.410 N 
ATOM     11  C   LIG    1       -4.179   0.456   2.472  0.00  0.00    -0.030 A 
ATOM     12  C   LIG    1       -3.982  -0.872   0.319  0.00  0.00    +0.340 C 
ATOM     13  N   LIG    1       -6.969  -1.323   1.173  0.00  0.00    -0.540 NA
ATOM     14  C   LIG    1       -5.151   0.732   3.386  0.00  0.00    +0.110 A 
ATOM     15  O   LIG    1       -7.934   0.556   4.529  0.00  0.00    -0.510 OA
ATOM     16  C   LIG    1       -8.199  -1.404   1.672  0.00  0.00    +0.430 A 
ENDROOT
BRANCH  11  17
ATOM     17  C   LIG    1       -2.799   0.947   2.521  0.00  0.00    +0.590 C 
ATOM     18  N   LIG    1       -2.379   1.671   3.578  0.00  0.00    -0.710 N 
ATOM     19  H   LIG    1       -3.010   1.937   4.265  0.00  0.00    +0.410 HD
ATOM     20  O   LIG    1       -2.033   0.701   1.608  0.00  0.00    -0.540 OA
BRANCH  18  21
ATOM     21  C   LIG    1       -0.970   2.056   3.688  0.00  0.00    +0.300 C 
BRANCH  21  22
ATOM     22  C   LIG    1       -0.761   2.865   4.969  0.00  0.00    +0.140 C 
ATOM     23  C   LIG    1        0.701   3.356   5.063  0.00  0.00    +0.010 C 
ATOM     24  C   LIG    1        1.035   3.253   6.568  0.00  0.00    +0.000 C 
ATOM     25  C   LIG    1       -0.264   2.713   7.205  0.00  0.00    +0.190 C 
ATOM     26  O   LIG    1       -0.945   2.028   6.131  0.00  0.00    -0.370 OA
ENDBRANCH  21  22
ENDBRANCH  18  21
ENDBRANCH  11  17
TORSDOF 3
