REMARK  Name = ZINCrm00001RJwJi.0
REMARK                            x       y       z     vdW  Elec       q    Type
REMARK                         _______ _______ _______ _____ _____    ______ ____
ROOT
ATOM      1  C   LIG    1        3.721  -0.869  -3.619  0.00  0.00    +0.290 C 
ATOM      2  C   LIG    1        4.707   0.033  -2.870  0.00  0.00    +0.060 C 
ATOM      3  C   LIG    1        4.237   0.202  -1.424  0.00  0.00    +0.280 C 
ATOM      4  N   LIG    1        2.903   0.813  -1.407  0.00  0.00    -0.390 N 
ATOM      5  C   LIG    1        1.938  -0.080  -2.060  0.00  0.00    +0.260 C 
ATOM      6  H   LIG    1        2.931   1.693  -1.900  0.00  0.00    +0.430 HD
ATOM      7  C   LIG    1        2.319  -0.260  -3.531  0.00  0.00    +0.050 C 
ENDROOT
BRANCH   1  18
ATOM      8  O   LIG    1        4.000   1.202  -5.568  0.00  0.00    -0.480 OA
ATOM      9  C   LIG    1        4.231   0.050  -5.880  0.00  0.00    +0.640 C 
ATOM     10  O   LIG    1        4.617  -0.309  -7.109  0.00  0.00    -0.300 OA
ATOM     11  C   LIG    1        4.811  -1.751  -7.159  0.00  0.00    +0.240 C 
ATOM     12  C   LIG    1        3.718  -2.381  -8.048  0.00  0.00    +0.320 C 
ATOM     13  N   LIG    1        2.574  -2.615  -7.130  0.00  0.00    -0.520 N 
ATOM     14  C   LIG    1        3.207  -3.089  -5.873  0.00  0.00    +0.280 C 
ATOM     15  H   LIG    1        1.959  -3.321  -7.506  0.00  0.00    +0.450 HD
ATOM     16  H   LIG    1        2.070  -1.756  -6.969  0.00  0.00    +0.430 HD
ATOM     17  C   LIG    1        4.479  -2.220  -5.718  0.00  0.00    +0.250 C 
ATOM     18  N   LIG    1        4.123  -0.974  -5.024  0.00  0.00    -0.630 N 
ENDBRANCH   1  18
BRANCH   4  19
ATOM     19  C   LIG    1        2.490   1.045  -0.017  0.00  0.00    +0.330 C 
BRANCH  19  20
ATOM     20  C   LIG    1        1.176   1.783   0.000  0.00  0.00    -0.190 A 
ATOM     21  C   LIG    1       -0.013   1.076   0.008  0.00  0.00    +0.080 A 
ATOM     22  C   LIG    1       -1.218   1.749   0.017  0.00  0.00    -0.010 A 
ATOM     23  C   LIG    1       -1.236   3.138   0.030  0.00  0.00    +0.220 A 
ATOM     24  C   LIG    1       -0.042   3.845   0.023  0.00  0.00    +0.030 A 
ATOM     25  C   LIG    1        1.161   3.165   0.008  0.00  0.00    +0.080 A 
BRANCH  23  26
ATOM     26  N   LIG    1       -2.458   3.824   0.045  0.00  0.00    -0.350 N 
ATOM     27  C   LIG    1       -3.688   3.261   0.048  0.00  0.00    +0.230 A 
ATOM     28  C   LIG    1       -4.599   4.261   0.068  0.00  0.00    -0.080 A 
ATOM     29  C   LIG    1       -3.905   5.476   0.067  0.00  0.00    +0.280 A 
ATOM     30  N   LIG    1       -2.623   5.215   0.053  0.00  0.00    -0.290 NA
ENDBRANCH  23  26
ENDBRANCH  19  20
ENDBRANCH   4  19
TORSDOF 4
