REMARK  Name = ZINCrH00000No4TB.0
REMARK                            x       y       z     vdW  Elec       q    Type
REMARK                         _______ _______ _______ _____ _____    ______ ____
ROOT
ATOM      1  C   LIG    1       -0.017   1.393   0.010  0.00  0.00    +0.500 A 
ATOM      2  N   LIG    1        1.136   2.054   0.002  0.00  0.00    -0.610 NA
ATOM      3  C   LIG    1        2.288   1.400  -0.012  0.00  0.00    +0.610 A 
ATOM      4  N   LIG    1        2.337   0.076  -0.020  0.00  0.00    -0.590 NA
ATOM      5  C   LIG    1        1.225  -0.646  -0.013  0.00  0.00    +0.410 A 
ATOM      6  C   LIG    1        0.002  -0.004   0.002  0.00  0.00    -0.270 A 
ATOM      7 CL   LIG    1       -1.477  -0.912   0.011  0.00  0.00    -0.060 Cl
ENDROOT
BRANCH   1   8
ATOM      8  N   LIG    1       -1.220   2.080   0.019  0.00  0.00    -0.700 N 
ATOM      9  H   LIG    1       -2.058   1.591   0.021  0.00  0.00    +0.410 HD
BRANCH   8  10
ATOM     10  C   LIG    1       -1.228   3.545   0.027  0.00  0.00    +0.380 C 
BRANCH  10  15
ATOM     11  C   LIG    1       -6.643   5.430  -0.034  0.00  0.00    +0.130 C 
ATOM     12  C   LIG    1       -5.221   4.935   0.021  0.00  0.00    -0.080 A 
ATOM     13  C   LIG    1       -4.602   4.715   1.241  0.00  0.00    +0.100 A 
ATOM     14  C   LIG    1       -3.291   4.258   1.243  0.00  0.00    -0.060 A 
ATOM     15  C   LIG    1       -2.651   4.040   0.037  0.00  0.00    +0.120 A 
ATOM     16  N   LIG    1       -3.271   4.266  -1.106  0.00  0.00    -0.420 NA
ATOM     17 CL   LIG    1       -2.465   3.966   2.741  0.00  0.00    -0.030 Cl
ATOM     18  C   LIG    1       -4.518   4.694  -1.146  0.00  0.00    +0.120 A 
ATOM     19 BR   LIG    1       -5.350   4.991  -2.817  0.00  0.00    +0.010 Br
ENDBRANCH  10  15
ENDBRANCH   8  10
ENDBRANCH   1   8
BRANCH   3  20
ATOM     20  N   LIG    1        3.472   2.118  -0.020  0.00  0.00    -0.680 N 
ATOM     21  H   LIG    1        3.451   3.088  -0.014  0.00  0.00    +0.420 HD
BRANCH  20  22
ATOM     22  C   LIG    1        4.756   1.414  -0.036  0.00  0.00    +0.310 C 
BRANCH  22  23
ATOM     23  C   LIG    1        5.897   2.433  -0.041  0.00  0.00    -0.010 C 
ATOM     24  C   LIG    1        7.232   1.701  -0.195  0.00  0.00    +0.040 C 
ATOM     25  C   LIG    1        8.366   2.698   0.077  0.00  0.00    +0.020 C 
ATOM     26  C   LIG    1        8.327   3.093   1.554  0.00  0.00    +0.260 C 
ATOM     27  N   LIG    1        6.983   3.509   1.936  0.00  0.00    -0.720 N 
ATOM     28  H   LIG    1        6.883   4.040   2.741  0.00  0.00    +0.400 HD
ATOM     29  C   LIG    1        5.882   3.205   1.247  0.00  0.00    +0.520 C 
ATOM     30  O   LIG    1        4.812   3.572   1.684  0.00  0.00    -0.540 OA
ENDBRANCH  22  23
ENDBRANCH  20  22
ENDBRANCH   3  20
TORSDOF 6
