REMARK  Name = ZINCrH00000No4Tb.1
REMARK                            x       y       z     vdW  Elec       q    Type
REMARK                         _______ _______ _______ _____ _____    ______ ____
ROOT
ATOM      1  C   LIG    1        1.520   1.785   2.389  0.00  0.00    +0.370 A 
ATOM      2  N   LIG    1        2.225   1.293   1.409  0.00  0.00    -0.270 NA
ATOM      3  N   LIG    1        3.493   0.964   1.908  0.00  0.00    -0.460 N 
ATOM      4  H   LIG    1        4.226   0.581   1.402  0.00  0.00    +0.470 HD
ATOM      5  C   LIG    1        3.505   1.272   3.221  0.00  0.00    +0.430 A 
ATOM      6  S   LIG    1        4.819   1.058   4.297  0.00  0.00    -0.560 S 
ATOM      7  N   LIG    1        2.296   1.779   3.533  0.00  0.00    -0.340 N 
ENDROOT
BRANCH   1  14
ATOM      8  C   LIG    1        0.139   1.675  -0.151  0.00  0.00    +0.120 C 
ATOM      9  C   LIG    1       -0.553   2.214   1.075  0.00  0.00    -0.030 A 
ATOM     10  C   LIG    1       -1.854   2.667   0.992  0.00  0.00    +0.000 A 
ATOM     11  C   LIG    1       -2.491   3.158   2.117  0.00  0.00    +0.050 A 
ATOM     12  C   LIG    1       -1.827   3.208   3.329  0.00  0.00    +0.000 A 
ATOM     13  C   LIG    1       -0.524   2.764   3.424  0.00  0.00    +0.080 A 
ATOM     14  C   LIG    1        0.123   2.263   2.295  0.00  0.00    -0.060 A 
ENDBRANCH   1  14
BRANCH   7  15
ATOM     15  N   LIG    1        1.894   2.224   4.799  0.00  0.00    -0.290 NA
ATOM     16  C   LIG    1        2.753   2.276   5.772  0.00  0.00    +0.370 C 
BRANCH  16  17
ATOM     17  C   LIG    1        2.308   2.638   7.129  0.00  0.00    -0.140 A 
ATOM     18  C   LIG    1        0.962   2.930   7.371  0.00  0.00    +0.110 A 
ATOM     19  C   LIG    1        0.549   3.264   8.642  0.00  0.00    -0.080 A 
ATOM     20  C   LIG    1        1.471   3.319   9.682  0.00  0.00    +0.240 A 
ATOM     21  C   LIG    1        2.812   3.033   9.444  0.00  0.00    -0.070 A 
ATOM     22  C   LIG    1        3.231   2.694   8.177  0.00  0.00    +0.130 A 
BRANCH  20  23
ATOM     23  N   LIG    1        1.050   3.661  10.966  0.00  0.00    -0.620 N 
ATOM     24  C   LIG    1        2.019   3.720  12.064  0.00  0.00    +0.290 C 
BRANCH  23  25
ATOM     25  C   LIG    1       -0.361   3.962  11.219  0.00  0.00    +0.300 C 
BRANCH  25  26
ATOM     26  C   LIG    1       -1.098   2.676  11.597  0.00  0.00    +0.170 C 
BRANCH  26  27
ATOM     27  C   LIG    1       -2.516   2.978  11.851  0.00  0.00    +0.200 C 
ATOM     28  N   LIG    1       -3.610   3.212  12.046  0.00  0.00    -0.420 NA
ENDBRANCH  26  27
ENDBRANCH  25  26
ENDBRANCH  23  25
ENDBRANCH  20  23
ENDBRANCH  16  17
ENDBRANCH   7  15
TORSDOF 7
