REMARK  Name = ZINCrH000004ofJw.0
REMARK                            x       y       z     vdW  Elec       q    Type
REMARK                         _______ _______ _______ _____ _____    ______ ____
ROOT
ATOM      1  N   LIG    1        4.952   2.836  -2.392  0.00  0.00    -0.720 N 
ATOM      2  H   LIG    1        5.607   2.388  -1.834  0.00  0.00    +0.410 HD
ATOM      3  C   LIG    1        3.842   3.362  -1.838  0.00  0.00    +0.500 C 
ATOM      4  O   LIG    1        3.023   3.922  -2.535  0.00  0.00    -0.520 OA
ENDROOT
BRANCH   1   6
ATOM      5  C   LIG    1        4.447   1.790  -4.545  0.00  0.00    +0.070 C 
ATOM      6  C   LIG    1        5.169   2.939  -3.837  0.00  0.00    +0.350 C 
BRANCH   6   7
ATOM      7  C   LIG    1        6.645   2.862  -4.130  0.00  0.00    +0.020 A 
ATOM      8  C   LIG    1        7.285   3.603  -5.045  0.00  0.00    -0.020 A 
ATOM      9  C   LIG    1        8.695   3.198  -4.986  0.00  0.00    -0.130 A 
ATOM     10  C   LIG    1        9.848   3.583  -5.667  0.00  0.00    +0.060 A 
ATOM     11  C   LIG    1       11.051   2.984  -5.361  0.00  0.00    +0.000 A 
ATOM     12  C   LIG    1       11.115   2.005  -4.380  0.00  0.00    +0.050 A 
ATOM     13  C   LIG    1        9.981   1.615  -3.700  0.00  0.00    +0.020 A 
ATOM     14  C   LIG    1        8.759   2.205  -3.993  0.00  0.00    +0.060 A 
ATOM     15  O   LIG    1        7.511   2.043  -3.508  0.00  0.00    -0.190 OA
ENDBRANCH   6   7
ENDBRANCH   1   6
BRANCH   3  16
ATOM     16  C   LIG    1        3.619   3.256  -0.351  0.00  0.00    +0.340 C 
BRANCH  16  17
ATOM     17  N   LIG    1        2.351   3.901  -0.000  0.00  0.00    -0.540 N 
ATOM     18  C   LIG    1        2.315   5.213   0.321  0.00  0.00    +0.500 C 
ATOM     19  C   LIG    1        1.007   5.850   0.717  0.00  0.00    +0.310 C 
ATOM     20  O   LIG    1       -0.069   5.205   0.031  0.00  0.00    -0.290 OA
ATOM     21  C   LIG    1       -0.061   3.845   0.024  0.00  0.00    +0.090 A 
ATOM     22  C   LIG    1       -1.248   3.133   0.031  0.00  0.00    +0.070 A 
ATOM     23  C   LIG    1       -1.221   1.749   0.017  0.00  0.00    -0.090 A 
ATOM     24  C   LIG    1       -0.013   1.076   0.008  0.00  0.00    +0.060 A 
ATOM     25  C   LIG    1        1.177   1.782   0.000  0.00  0.00    +0.020 A 
ATOM     26 BR   LIG    1       -2.842   0.775   0.020  0.00  0.00    -0.030 Br
ATOM     27  O   LIG    1        3.330   5.875   0.290  0.00  0.00    -0.500 OA
ATOM     28  C   LIG    1        1.156   3.166   0.008  0.00  0.00    +0.120 A 
ENDBRANCH  16  17
ENDBRANCH   3  16
TORSDOF 4
