REMARK  Name = ZINCqH0000007Us9.0
REMARK                            x       y       z     vdW  Elec       q    Type
REMARK                         _______ _______ _______ _____ _____    ______ ____
ROOT
ATOM      1  C   LIG    1       -5.705   3.579  -0.048  0.00  0.00    +0.150 A 
ATOM      2  C   LIG    1       -5.863   2.201   0.014  0.00  0.00    +0.010 A 
ATOM      3  C   LIG    1       -4.753   1.380   0.045  0.00  0.00    +0.040 A 
ATOM      4  C   LIG    1       -3.480   1.932   0.014  0.00  0.00    +0.070 A 
ATOM      5  C   LIG    1       -3.322   3.309  -0.041  0.00  0.00    +0.050 A 
ATOM      6  C   LIG    1       -4.431   4.131  -0.078  0.00  0.00    +0.040 A 
ENDROOT
BRANCH   1   8
ATOM      7  C   LIG    1       -6.806   5.550  -0.801  0.00  0.00    +0.570 C 
ATOM      8  N   LIG    1       -6.830   4.412  -0.079  0.00  0.00    -0.670 N 
ATOM      9  H   LIG    1       -7.626   4.170   0.419  0.00  0.00    +0.410 HD
ATOM     10  O   LIG    1       -5.782   5.896  -1.358  0.00  0.00    -0.490 OA
BRANCH   7  15
ATOM     11  C   LIG    1      -10.327   6.801  -0.422  0.00  0.00    +0.060 A 
ATOM     12  C   LIG    1      -10.233   7.960  -1.181  0.00  0.00    +0.270 A 
ATOM     13  N   LIG    1       -9.101   8.298  -1.768  0.00  0.00    -0.480 NA
ATOM     14  C   LIG    1       -8.013   7.559  -1.664  0.00  0.00    +0.340 A 
ATOM     15  C   LIG    1       -8.025   6.376  -0.917  0.00  0.00    -0.180 A 
ATOM     16  F   LIG    1       -6.878   7.948  -2.284  0.00  0.00    -0.080 F 
ATOM     17  C   LIG    1       -9.211   5.986  -0.286  0.00  0.00    +0.110 A 
BRANCH  11  19
ATOM     18  C   LIG    1      -12.604   7.353  -0.015  0.00  0.00    +0.250 C 
ATOM     19  O   LIG    1      -11.501   6.466   0.177  0.00  0.00    -0.300 OA
ENDBRANCH  11  19
ENDBRANCH   7  15
ENDBRANCH   1   8
BRANCH   4  20
ATOM     20  O   LIG    1       -2.388   1.123   0.045  0.00  0.00    -0.230 OA
BRANCH  20  21
ATOM     21  C   LIG    1       -2.065   0.447  -1.084  0.00  0.00    +0.370 A 
ATOM     22  C   LIG    1       -0.899  -0.315  -1.144  0.00  0.00    -0.070 A 
ATOM     23  C   LIG    1       -0.616  -0.991  -2.315  0.00  0.00    +0.380 A 
ATOM     24  N   LIG    1       -1.452  -0.891  -3.338  0.00  0.00    -0.520 NA
ATOM     25  C   LIG    1       -2.544  -0.157  -3.252  0.00  0.00    +0.400 A 
ATOM     26 CL   LIG    1       -3.606  -0.059  -4.621  0.00  0.00    +0.030 Cl
ATOM     27  N   LIG    1       -2.852   0.505  -2.153  0.00  0.00    -0.550 NA
ENDBRANCH  20  21
ENDBRANCH   4  20
TORSDOF 5
