REMARK  Name = ZINCpk00000y6vkf.0
REMARK                            x       y       z     vdW  Elec       q    Type
REMARK                         _______ _______ _______ _____ _____    ______ ____
ROOT
ATOM      1  C   LIG    1       -2.229  -1.006   0.025  0.00  0.00    +0.250 C 
ENDROOT
BRANCH   1   3
ATOM      2  C   LIG    1       -4.387  -2.090   0.348  0.00  0.00    +0.500 C 
ATOM      3  N   LIG    1       -3.186  -1.744   0.853  0.00  0.00    -0.730 N 
ATOM      4  H   LIG    1       -2.955  -1.985   1.763  0.00  0.00    +0.400 HD
ATOM      5  O   LIG    1       -4.676  -1.789  -0.790  0.00  0.00    -0.520 OA
BRANCH   2   6
ATOM      6  C   LIG    1       -5.372  -2.849   1.200  0.00  0.00    +0.330 C 
BRANCH   6   8
ATOM      7  C   LIG    1       -6.703  -4.226  -0.306  0.00  0.00    +0.550 C 
ATOM      8  N   LIG    1       -6.591  -3.102   0.429  0.00  0.00    -0.590 N 
ATOM      9  O   LIG    1       -5.792  -5.031  -0.329  0.00  0.00    -0.540 OA
BRANCH   7  11
ATOM     10  C   LIG    1       -8.039  -5.589  -1.805  0.00  0.00    +0.140 C 
ATOM     11  C   LIG    1       -7.928  -4.480  -1.080  0.00  0.00    -0.090 C 
ENDBRANCH   7  11
BRANCH   8  12
ATOM     12  C   LIG    1       -7.689  -2.132   0.457  0.00  0.00    +0.280 C 
ATOM     13  C   LIG    1       -7.497  -1.111  -0.667  0.00  0.00    +0.020 C 
ENDBRANCH   8  12
ENDBRANCH   6   8
ENDBRANCH   2   6
ENDBRANCH   1   3
BRANCH   1  14
ATOM     14  C   LIG    1       -0.955  -0.742   0.830  0.00  0.00    +0.290 C 
BRANCH  14  15
ATOM     15  N   LIG    1        0.002  -0.004   0.002  0.00  0.00    -0.610 N 
ATOM     16  C   LIG    1       -0.018   1.457   0.010  0.00  0.00    +0.290 C 
ATOM     17  C   LIG    1        1.400   2.023  -0.000  0.00  0.00    +0.090 C 
ATOM     18  C   LIG    1        2.204   1.386  -1.103  0.00  0.00    -0.040 A 
ATOM     19  C   LIG    1        3.189   2.097  -1.757  0.00  0.00    -0.050 A 
ATOM     20  C   LIG    1        3.943   1.485  -2.744  0.00  0.00    +0.060 A 
ATOM     21  C   LIG    1        3.715   0.163  -3.081  0.00  0.00    +0.020 A 
ATOM     22  C   LIG    1        2.727  -0.557  -2.439  0.00  0.00    +0.090 A 
ATOM     23 CL   LIG    1        3.482   3.757  -1.342  0.00  0.00    -0.060 Cl
ATOM     24  C   LIG    1        1.962   0.056  -1.449  0.00  0.00    -0.130 A 
ATOM     25  C   LIG    1        0.886  -0.683  -0.754  0.00  0.00    +0.570 C 
ATOM     26  O   LIG    1        0.801  -1.890  -0.863  0.00  0.00    -0.520 OA
ENDBRANCH  14  15
ENDBRANCH   1  14
TORSDOF 7
