REMARK  Name = ZINCtV000002I1Mk.0
REMARK                            x       y       z     vdW  Elec       q    Type
REMARK                         _______ _______ _______ _____ _____    ______ ____
ROOT
ATOM      1  C   LIG    1        3.609   5.889  -0.002  0.00  0.00    +0.280 A 
ATOM      2  N   LIG    1        4.283   6.191  -1.073  0.00  0.00    -0.460 NA
ATOM      3  C   LIG    1        5.489   6.708  -0.724  0.00  0.00    +0.040 A 
ATOM      4  C   LIG    1        6.579   7.186  -1.454  0.00  0.00    +0.070 A 
ATOM      5  C   LIG    1        7.683   7.657  -0.799  0.00  0.00    +0.000 A 
ATOM      6  C   LIG    1        7.734   7.665   0.587  0.00  0.00    +0.030 A 
ATOM      7  C   LIG    1        6.668   7.197   1.328  0.00  0.00    +0.010 A 
ATOM      8  C   LIG    1        5.539   6.716   0.680  0.00  0.00    +0.060 A 
ATOM      9  N   LIG    1        4.333   6.197   1.108  0.00  0.00    -0.470 N 
ENDROOT
BRANCH   1  10
ATOM     10  C   LIG    1        2.225   5.292   0.009  0.00  0.00    +0.320 C 
BRANCH  10  11
ATOM     11  O   LIG    1        2.322   3.866   0.000  0.00  0.00    -0.300 OA
BRANCH  11  16
ATOM     12  C   LIG    1       -2.513   0.977   0.019  0.00  0.00    +0.100 C 
ATOM     13  C   LIG    1       -1.220   1.750   0.017  0.00  0.00    -0.120 A 
ATOM     14  C   LIG    1       -0.013   1.076   0.008  0.00  0.00    +0.050 A 
ATOM     15  C   LIG    1        1.175   1.782   0.000  0.00  0.00    -0.010 A 
ATOM     16  C   LIG    1        1.155   3.169   0.008  0.00  0.00    +0.120 A 
ATOM     17  C   LIG    1       -0.057   3.844   0.023  0.00  0.00    -0.070 A 
ATOM     18  C   LIG    1       -1.242   3.133   0.031  0.00  0.00    +0.050 A 
ENDBRANCH  11  16
ENDBRANCH  10  11
ENDBRANCH   1  10
BRANCH   9  19
ATOM     19  C   LIG    1        3.913   6.009   2.499  0.00  0.00    +0.350 C 
BRANCH  19  20
ATOM     20  C   LIG    1        4.333   4.641   2.970  0.00  0.00    -0.120 A 
ATOM     21  C   LIG    1        3.485   3.588   2.812  0.00  0.00    +0.070 A 
ATOM     22  C   LIG    1        3.875   2.309   3.246  0.00  0.00    -0.050 A 
ATOM     23  C   LIG    1        3.028   1.198   3.095  0.00  0.00    +0.030 A 
ATOM     24  C   LIG    1        3.438  -0.024   3.533  0.00  0.00    +0.000 A 
ATOM     25  C   LIG    1        4.686  -0.192   4.128  0.00  0.00    +0.010 A 
ATOM     26  C   LIG    1        5.533   0.862   4.290  0.00  0.00    +0.020 A 
ATOM     27  C   LIG    1        5.145   2.139   3.852  0.00  0.00    -0.040 A 
ATOM     28  C   LIG    1        5.992   3.251   4.002  0.00  0.00    +0.020 A 
ATOM     29  C   LIG    1        5.582   4.473   3.566  0.00  0.00    +0.020 A 
ENDBRANCH  19  20
ENDBRANCH   9  19
TORSDOF 5
