REMARK  Name = ZINCpe00000RjG9l.2
REMARK                            x       y       z     vdW  Elec       q    Type
REMARK                         _______ _______ _______ _____ _____    ______ ____
ROOT
ATOM      1  N   LIG    1        3.641   6.237   2.329  0.00  0.00    -0.710 N 
ATOM      2  H   LIG    1        3.838   6.582   1.444  0.00  0.00    +0.410 HD
ATOM      3  C   LIG    1        3.134   4.996   2.470  0.00  0.00    +0.490 C 
ATOM      4  O   LIG    1        2.888   4.565   3.577  0.00  0.00    -0.520 OA
ENDROOT
BRANCH   1   5
ATOM      5  C   LIG    1        3.894   7.064   3.511  0.00  0.00    +0.280 C 
BRANCH   5   6
ATOM      6  C   LIG    1        4.575   8.367   3.085  0.00  0.00    +0.170 C 
BRANCH   6   7
ATOM      7  N   LIG    1        3.753   9.041   2.072  0.00  0.00    -0.530 NA
ATOM      8  C   LIG    1        4.572   9.926   1.233  0.00  0.00    +0.190 C 
ATOM      9  C   LIG    1        3.695  10.547   0.143  0.00  0.00    +0.180 C 
ATOM     10  N   LIG    1        2.594  11.292   0.769  0.00  0.00    -0.540 NA
ATOM     11  C   LIG    1        1.774  10.407   1.609  0.00  0.00    +0.180 C 
ATOM     12  C   LIG    1        1.771  11.966  -0.244  0.00  0.00    +0.190 C 
ATOM     13  C   LIG    1        2.651   9.786   2.699  0.00  0.00    +0.190 C 
ENDBRANCH   6   7
BRANCH   6  15
ATOM     14  C   LIG    1        5.479   8.528   5.409  0.00  0.00    +0.030 C 
ATOM     15  C   LIG    1        4.736   9.280   4.303  0.00  0.00    -0.040 C 
ATOM     16  C   LIG    1        5.533  10.523   3.906  0.00  0.00    +0.030 C 
ENDBRANCH   6  15
ENDBRANCH   5   6
ENDBRANCH   1   5
BRANCH   3  17
ATOM     17  C   LIG    1        2.874   4.145   1.254  0.00  0.00    +0.380 C 
BRANCH  17  18
ATOM     18  N   LIG    1        2.328   2.851   1.672  0.00  0.00    -0.380 N 
ATOM     19  N   LIG    1        3.056   1.692   1.980  0.00  0.00    +0.000 NA
ATOM     20  N   LIG    1        2.243   0.750   2.306  0.00  0.00    -0.210 NA
ATOM     21  C   LIG    1        0.970   1.188   2.243  0.00  0.00    -0.020 A 
ATOM     22  C   LIG    1       -0.266   0.576   2.493  0.00  0.00    +0.110 A 
ATOM     23  C   LIG    1       -1.421   1.285   2.337  0.00  0.00    +0.000 A 
ATOM     24  C   LIG    1       -1.389   2.616   1.942  0.00  0.00    +0.080 A 
ATOM     25  C   LIG    1       -0.188   3.241   1.690  0.00  0.00    +0.010 A 
ATOM     26  C   LIG    1        1.001   2.534   1.838  0.00  0.00    +0.100 A 
ENDBRANCH  17  18
ENDBRANCH   3  17
TORSDOF 6
