REMARK  Name = ZINCvU00000008Ex.1
REMARK                            x       y       z     vdW  Elec       q    Type
REMARK                         _______ _______ _______ _____ _____    ______ ____
ROOT
ATOM      1  C   LIG    1       -2.521   7.084   2.194  0.00  0.00    +0.600 C 
ATOM      2  N   LIG    1       -1.424   7.365   2.924  0.00  0.00    -0.720 N 
ATOM      3  H   LIG    1       -0.735   6.693   3.042  0.00  0.00    +0.390 HD
ATOM      4  O   LIG    1       -3.386   7.927   2.046  0.00  0.00    -0.520 OA
ENDROOT
BRANCH   1  11
ATOM      5  C   LIG    1       -5.756   3.441  -1.091  0.00  0.00    +0.180 C 
ATOM      6  C   LIG    1       -4.421   3.155  -0.453  0.00  0.00    +0.140 A 
ATOM      7  N   LIG    1       -3.763   2.037  -0.539  0.00  0.00    -0.260 NA
ATOM      8  N   LIG    1       -2.571   2.143   0.182  0.00  0.00    -0.300 N 
ATOM      9  C   LIG    1       -2.510   3.401   0.721  0.00  0.00    +0.030 A 
ATOM     10  S   LIG    1       -1.507   4.456   1.709  0.00  0.00    +0.200 S 
ATOM     11  C   LIG    1       -2.673   5.762   1.577  0.00  0.00    -0.270 A 
ATOM     12  C   LIG    1       -3.722   5.380   0.833  0.00  0.00    +0.190 A 
ATOM     13  C   LIG    1       -3.662   4.070   0.341  0.00  0.00    -0.220 A 
BRANCH   8  14
ATOM     14  C   LIG    1       -1.603   1.140   0.324  0.00  0.00    +0.150 A 
ATOM     15  C   LIG    1       -0.256   1.474   0.372  0.00  0.00    +0.000 A 
ATOM     16  C   LIG    1        0.695   0.482   0.507  0.00  0.00    +0.050 A 
ATOM     17  C   LIG    1        0.308  -0.843   0.594  0.00  0.00    +0.010 A 
ATOM     18  C   LIG    1       -1.033  -1.179   0.545  0.00  0.00    +0.040 A 
ATOM     19  C   LIG    1       -1.989  -0.191   0.411  0.00  0.00    +0.030 A 
ENDBRANCH   8  14
ENDBRANCH   1  11
BRANCH   2  20
ATOM     20  C   LIG    1       -1.273   8.685   3.540  0.00  0.00    +0.260 C 
ATOM     21  C   LIG    1       -0.666   9.655   2.525  0.00  0.00    +0.040 C 
BRANCH  20  22
ATOM     22  C   LIG    1       -0.352   8.578   4.757  0.00  0.00    +0.210 C 
BRANCH  22  23
ATOM     23  N   LIG    1       -0.314   9.868   5.458  0.00  0.00    -0.510 NA
ATOM     24  C   LIG    1        0.327   9.731   6.791  0.00  0.00    +0.180 C 
ATOM     25  C   LIG    1        0.751  11.182   7.132  0.00  0.00    +0.030 C 
ATOM     26  C   LIG    1        1.202  11.741   5.763  0.00  0.00    +0.010 C 
ATOM     27  C   LIG    1        0.506  10.851   4.716  0.00  0.00    +0.170 C 
ENDBRANCH  22  23
BRANCH  22  28
ATOM     28  C   LIG    1       -0.873   7.515   5.689  0.00  0.00    -0.180 A 
ATOM     29  C   LIG    1       -0.323   6.313   5.869  0.00  0.00    -0.010 A 
ATOM     30  C   LIG    1       -0.979   5.502   6.779  0.00  0.00    +0.000 A 
ATOM     31  C   LIG    1       -2.061   6.045   7.339  0.00  0.00    -0.060 A 
ATOM     32  S   LIG    1       -2.295   7.672   6.713  0.00  0.00    +0.150 S 
ENDBRANCH  22  28
ENDBRANCH  20  22
ENDBRANCH   2  20
TORSDOF 6
