REMARK  Name = ZINCrD000000D77E.0
REMARK                            x       y       z     vdW  Elec       q    Type
REMARK                         _______ _______ _______ _____ _____    ______ ____
ROOT
ATOM      1  O   LIG    1       -1.094  -2.094   0.136  0.00  0.00    -0.940 OA
ATOM      2  S   LIG    1       -1.548  -0.778  -0.144  0.00  0.00    +2.710 S 
ATOM      3  O   LIG    1       -2.488  -0.090   0.670  0.00  0.00    -0.940 OA
ENDROOT
BRANCH   2   4
ATOM      4  C   LIG    1       -2.235  -0.824  -1.766  0.00  0.00    -0.680 A 
ATOM      5  C   LIG    1       -3.177   0.116  -2.143  0.00  0.00    +0.140 A 
ATOM      6  C   LIG    1       -3.716   0.089  -3.416  0.00  0.00    +0.010 A 
ATOM      7  C   LIG    1       -3.318  -0.890  -4.310  0.00  0.00    +0.130 A 
ATOM      8  O   LIG    1       -3.846  -0.931  -5.568  0.00  0.00    -0.320 OA
ATOM      9  C   LIG    1       -4.696  -2.044  -5.852  0.00  0.00    +0.230 C 
ATOM     10  C   LIG    1       -3.878  -3.252  -6.278  0.00  0.00    +0.000 C 
ATOM     11  C   LIG    1       -2.982  -3.767  -5.162  0.00  0.00    +0.230 C 
ATOM     12  O   LIG    1       -1.990  -2.797  -4.819  0.00  0.00    -0.310 OA
ATOM     13  C   LIG    1       -2.377  -1.837  -3.930  0.00  0.00    +0.050 A 
ATOM     14  C   LIG    1       -1.835  -1.804  -2.657  0.00  0.00    +0.130 A 
ENDBRANCH   2   4
BRANCH   2  15
ATOM     15  N   LIG    1       -0.198   0.179  -0.211  0.00  0.00    -1.010 NA
ATOM     16  C   LIG    1        1.171  -0.285  -0.500  0.00  0.00    +0.290 C 
ATOM     17  C   LIG    1        2.095   0.777   0.145  0.00  0.00    +0.030 C 
ATOM     18  C   LIG    1        1.303   2.084  -0.125  0.00  0.00    +0.170 C 
ATOM     19  C   LIG    1       -0.166   1.632   0.010  0.00  0.00    +0.290 C 
BRANCH  18  20
ATOM     20  O   LIG    1        1.618   3.078   0.852  0.00  0.00    -0.290 OA
BRANCH  20  21
ATOM     21  C   LIG    1        2.654   3.913   0.572  0.00  0.00    +0.140 A 
ATOM     22  C   LIG    1        3.425   3.706  -0.562  0.00  0.00    -0.060 A 
ATOM     23  C   LIG    1        4.473   4.560  -0.849  0.00  0.00    +0.060 A 
ATOM     24  C   LIG    1        4.761   5.613  -0.000  0.00  0.00    -0.010 A 
ATOM     25  C   LIG    1        3.997   5.819   1.134  0.00  0.00    +0.070 A 
ATOM     26  C   LIG    1        2.943   4.971   1.422  0.00  0.00    -0.070 A 
ATOM     27 CL   LIG    1        1.984   5.230   2.845  0.00  0.00    -0.050 Cl
ENDBRANCH  20  21
ENDBRANCH  18  20
ENDBRANCH   2  15
TORSDOF 4
