REMARK  Name = ZINCrD000000fTEf.0
REMARK                            x       y       z     vdW  Elec       q    Type
REMARK                         _______ _______ _______ _____ _____    ______ ____
ROOT
ATOM      1  C   LIG    1       -2.806   2.462  -1.914  0.00  0.00    +0.190 A 
ATOM      2  N   LIG    1       -2.548   3.002  -3.080  0.00  0.00    -0.470 NA
ATOM      3  C   LIG    1       -3.722   3.029  -3.735  0.00  0.00    +0.180 A 
ATOM      4  N   LIG    1       -4.620   2.520  -2.945  0.00  0.00    -0.380 NA
ATOM      5  O   LIG    1       -4.114   2.188  -1.893  0.00  0.00    +0.080 OA
ENDROOT
BRANCH   1  11
ATOM      6  C   LIG    1       -0.702   3.564   2.256  0.00  0.00    +0.530 C 
ATOM      7  N   LIG    1       -1.348   2.612   1.554  0.00  0.00    -0.610 N 
ATOM      8  C   LIG    1       -1.168   1.191   1.882  0.00  0.00    +0.280 C 
ATOM      9  C   LIG    1       -0.754   0.441   0.612  0.00  0.00    +0.020 C 
ATOM     10  C   LIG    1       -1.781   0.707  -0.491  0.00  0.00    +0.040 C 
ATOM     11  C   LIG    1       -1.818   2.204  -0.805  0.00  0.00    +0.110 C 
ATOM     12  C   LIG    1       -2.245   2.974   0.449  0.00  0.00    +0.300 C 
ATOM     13  O   LIG    1       -0.775   4.725   1.911  0.00  0.00    -0.530 OA
BRANCH   6  15
ATOM     14  C   LIG    1        0.575   4.457   4.185  0.00  0.00    +0.050 C 
ATOM     15  C   LIG    1        0.110   3.188   3.468  0.00  0.00    -0.080 C 
ATOM     16  C   LIG    1        1.329   2.373   3.031  0.00  0.00    +0.050 C 
ATOM     17  C   LIG    1       -0.749   2.351   4.418  0.00  0.00    +0.040 C 
ENDBRANCH   6  15
ENDBRANCH   1  11
BRANCH   3  18
ATOM     18  C   LIG    1       -3.956   3.557  -5.127  0.00  0.00    +0.230 C 
BRANCH  18  19
ATOM     19  C   LIG    1       -4.296   5.023  -5.057  0.00  0.00    -0.120 A 
ATOM     20  C   LIG    1       -5.613   5.425  -4.940  0.00  0.00    +0.060 A 
ATOM     21  C   LIG    1       -5.929   6.766  -4.867  0.00  0.00    -0.010 A 
ATOM     22  C   LIG    1       -4.923   7.728  -4.922  0.00  0.00    +0.110 A 
ATOM     23  O   LIG    1       -5.008   9.085  -4.856  0.00  0.00    -0.300 OA
ATOM     24  C   LIG    1       -3.802   9.660  -5.387  0.00  0.00    +0.240 C 
ATOM     25  C   LIG    1       -2.748   8.562  -5.109  0.00  0.00    +0.070 C 
ATOM     26  C   LIG    1       -3.604   7.312  -5.053  0.00  0.00    -0.180 A 
ATOM     27  C   LIG    1       -3.290   5.973  -5.116  0.00  0.00    +0.080 A 
ENDBRANCH  18  19
ENDBRANCH   3  18
TORSDOF 4
