REMARK  Name = ZINCrH000004v9PS.0
REMARK                            x       y       z     vdW  Elec       q    Type
REMARK                         _______ _______ _______ _____ _____    ______ ____
ROOT
ATOM      1  O   LIG    1       -1.042  -0.626   0.018  0.00  0.00    -0.560 OA
ATOM      2  C   LIG    1        0.002  -0.004   0.004  0.00  0.00    +0.710 C 
ATOM      3  N   LIG    1       -0.016   1.344   0.005  0.00  0.00    -0.610 N 
ATOM      4  N   LIG    1        1.178  -0.662  -0.013  0.00  0.00    -0.680 N 
ATOM      5  H   LIG    1        2.009  -0.168  -0.093  0.00  0.00    +0.410 HD
ENDROOT
BRANCH   4   6
ATOM      6  C   LIG    1        1.200  -2.060   0.085  0.00  0.00    +0.180 A 
ATOM      7  C   LIG    1        2.234  -2.692   0.763  0.00  0.00    +0.000 A 
ATOM      8  C   LIG    1        2.255  -4.070   0.865  0.00  0.00    +0.060 A 
ATOM      9  C   LIG    1        1.250  -4.825   0.283  0.00  0.00    +0.010 A 
ATOM     10  O   LIG    1        1.044  -6.175   0.236  0.00  0.00    -0.310 OA
ATOM     11  C   LIG    1        0.100  -6.383  -0.830  0.00  0.00    +0.420 C 
ATOM     12  O   LIG    1       -0.638  -5.148  -0.879  0.00  0.00    -0.310 OA
ATOM     13  C   LIG    1        0.215  -4.194  -0.404  0.00  0.00    +0.050 A 
ATOM     14  C   LIG    1        0.192  -2.813  -0.501  0.00  0.00    +0.050 A 
ENDBRANCH   4   6
BRANCH   3  15
ATOM     15  C   LIG    1        1.243   2.093  -0.012  0.00  0.00    +0.270 C 
BRANCH  15  16
ATOM     16  C   LIG    1        1.661   2.355  -1.460  0.00  0.00    +0.140 C 
ATOM     17  C   LIG    1        3.045   3.038  -1.491  0.00  0.00    +0.020 C 
ATOM     18  C   LIG    1        2.877   4.070  -2.641  0.00  0.00    +0.010 C 
ATOM     19  C   LIG    1        1.385   4.456  -2.475  0.00  0.00    +0.200 C 
ATOM     20  O   LIG    1        0.725   3.242  -2.084  0.00  0.00    -0.370 OA
ENDBRANCH  15  16
ENDBRANCH   3  15
BRANCH   3  21
ATOM     21  C   LIG    1       -1.294   2.059   0.017  0.00  0.00    +0.370 C 
BRANCH  21  22
ATOM     22  C   LIG    1       -1.720   2.303   1.442  0.00  0.00    -0.080 A 
ATOM     23  C   LIG    1       -2.504   1.373   2.098  0.00  0.00    +0.040 A 
ATOM     24  C   LIG    1       -2.891   1.593   3.407  0.00  0.00    +0.040 A 
ATOM     25  C   LIG    1       -2.502   2.749   4.058  0.00  0.00    -0.020 A 
ATOM     26  C   LIG    1       -1.722   3.684   3.399  0.00  0.00    +0.090 A 
ATOM     27  F   LIG    1       -1.342   4.815   4.034  0.00  0.00    -0.140 F 
ATOM     28  C   LIG    1       -1.331   3.460   2.090  0.00  0.00    -0.010 A 
ENDBRANCH  21  22
ENDBRANCH   3  21
TORSDOF 5
