REMARK  Name = ZINCvU0000000FGo.0
REMARK                            x       y       z     vdW  Elec       q    Type
REMARK                         _______ _______ _______ _____ _____    ______ ____
ROOT
ATOM      1  C   LIG    1        2.476   1.079  -0.016  0.00  0.00    +0.270 C 
ATOM      2  C   LIG    1        2.975   0.828   1.421  0.00  0.00    +0.110 C 
ATOM      3  C   LIG    1        3.056  -0.678   1.520  0.00  0.00    +0.150 C 
ATOM      4  N   LIG    1        2.691  -1.204   0.402  0.00  0.00    -0.230 NA
ATOM      5  N   LIG    1        2.329  -0.275  -0.572  0.00  0.00    -0.470 N 
ATOM      6  C   LIG    1        1.913  -0.569  -1.819  0.00  0.00    +0.550 C 
ATOM      7  O   LIG    1        1.623   0.323  -2.588  0.00  0.00    -0.510 OA
ENDROOT
BRANCH   1  14
ATOM      8  C   LIG    1       -2.422   3.907   0.046  0.00  0.00    +0.170 A 
ATOM      9  C   LIG    1       -3.602   3.221   0.053  0.00  0.00    -0.070 A 
ATOM     10  C   LIG    1       -3.622   1.828   0.046  0.00  0.00    +0.080 A 
ATOM     11  C   LIG    1       -2.464   1.112   0.031  0.00  0.00    -0.010 A 
ATOM     12  C   LIG    1       -1.230   1.783   0.017  0.00  0.00    -0.060 A 
ATOM     13  C   LIG    1       -0.013   1.076   0.008  0.00  0.00    +0.110 A 
ATOM     14  C   LIG    1        1.149   1.793   0.001  0.00  0.00    -0.120 A 
ATOM     15  C   LIG    1        1.106   3.187   0.008  0.00  0.00    +0.210 A 
ATOM     16  N   LIG    1       -0.031   3.841   0.022  0.00  0.00    -0.430 NA
ATOM     17 CL   LIG    1        2.595   4.079  -0.001  0.00  0.00    -0.020 Cl
ATOM     18  C   LIG    1       -1.202   3.199   0.030  0.00  0.00    +0.120 A 
BRANCH   8  19
ATOM     19  O   LIG    1       -2.422   5.266   0.053  0.00  0.00    -0.290 OA
BRANCH  19  21
ATOM     20  C   LIG    1       -3.495   7.431   0.074  0.00  0.00    +0.070 C 
ATOM     21  C   LIG    1       -3.695   5.914   0.069  0.00  0.00    +0.190 C 
ENDBRANCH  19  21
ENDBRANCH   8  19
ENDBRANCH   1  14
BRANCH   3  22
ATOM     22  C   LIG    1        3.488  -1.431   2.713  0.00  0.00    +0.000 A 
ATOM     23  C   LIG    1        3.869  -0.750   3.872  0.00  0.00    +0.010 A 
ATOM     24  C   LIG    1        4.267  -1.458   4.987  0.00  0.00    +0.050 A 
ATOM     25  C   LIG    1        4.300  -2.840   4.959  0.00  0.00    -0.060 A 
ATOM     26  C   LIG    1        3.928  -3.526   3.810  0.00  0.00    +0.130 A 
ATOM     27  C   LIG    1        3.522  -2.827   2.687  0.00  0.00    +0.030 A 
BRANCH  26  28
ATOM     28  O   LIG    1        3.963  -4.884   3.789  0.00  0.00    -0.310 OA
ATOM     29  C   LIG    1        4.392  -5.541   4.983  0.00  0.00    +0.250 C 
ENDBRANCH  26  28
ENDBRANCH   3  22
BRANCH   6  30
ATOM     30  C   LIG    1        1.808  -2.007  -2.259  0.00  0.00    +0.070 C 
ATOM     31  C   LIG    1        1.316  -2.062  -3.707  0.00  0.00    +0.050 C 
ENDBRANCH   6  30
TORSDOF 6
