REMARK  Name = ZINCkj00000xV92x.2
REMARK                            x       y       z     vdW  Elec       q    Type
REMARK                         _______ _______ _______ _____ _____    ______ ____
ROOT
ATOM      1  C   LIG    1        3.635   6.114  -1.565  0.00  0.00    +0.170 C 
ATOM      2  C   LIG    1        3.272   7.164  -2.645  0.00  0.00    +0.090 C 
ATOM      3  C   LIG    1        1.764   7.396  -2.362  0.00  0.00    +0.080 C 
ATOM      4  C   LIG    1        1.270   5.996  -1.943  0.00  0.00    +0.260 C 
ATOM      5  N   LIG    1        2.446   5.239  -1.476  0.00  0.00    -0.380 N 
ATOM      6  H   LIG    1        2.580   4.426  -2.058  0.00  0.00    +0.410 HD
ENDROOT
BRANCH   1  13
ATOM      7  C   LIG    1        5.720   3.282   1.190  0.00  0.00    +0.120 C 
ATOM      8  C   LIG    1        5.456   4.458   0.284  0.00  0.00    +0.520 C 
ATOM      9  N   LIG    1        5.140   4.255  -1.010  0.00  0.00    -0.640 N 
ATOM     10  C   LIG    1        5.018   2.940  -1.674  0.00  0.00    +0.250 C 
ATOM     11  C   LIG    1        5.269   3.229  -3.175  0.00  0.00    +0.070 C 
ATOM     12  C   LIG    1        4.578   4.608  -3.346  0.00  0.00    +0.040 C 
ATOM     13  C   LIG    1        4.859   5.306  -1.999  0.00  0.00    +0.250 C 
ATOM     14  O   LIG    1        5.528   5.587   0.721  0.00  0.00    -0.520 OA
ENDBRANCH   1  13
BRANCH   5  15
ATOM     15  C   LIG    1        2.243   4.822  -0.082  0.00  0.00    +0.390 C 
BRANCH  15  16
ATOM     16  C   LIG    1        1.058   3.895  -0.003  0.00  0.00    +0.120 A 
ATOM     17  N   LIG    1       -0.192   4.263   0.078  0.00  0.00    -0.450 NA
ATOM     18  C   LIG    1       -0.972   3.173   0.126  0.00  0.00    +0.180 A 
ATOM     19  C   LIG    1       -0.175   2.088   0.081  0.00  0.00    +0.180 A 
ATOM     20  N   LIG    1        1.112   2.545  -0.004  0.00  0.00    -0.440 N 
ATOM     21  C   LIG    1        2.323   1.724  -0.081  0.00  0.00    +0.340 C 
ENDBRANCH  15  16
ENDBRANCH   5  15
TORSDOF 3
