REMARK  Name = ZINCkj00000xV92x.1
REMARK                            x       y       z     vdW  Elec       q    Type
REMARK                         _______ _______ _______ _____ _____    ______ ____
ROOT
ATOM      1  C   LIG    1       -0.679   1.679   4.439  0.00  0.00    +0.150 C 
ATOM      2  C   LIG    1        0.038   3.042   4.352  0.00  0.00    +0.110 C 
ATOM      3  C   LIG    1        0.343   3.372   5.837  0.00  0.00    +0.070 C 
ATOM      4  C   LIG    1       -0.907   2.796   6.548  0.00  0.00    +0.240 C 
ATOM      5  N   LIG    1       -1.230   1.561   5.801  0.00  0.00    -0.380 N 
ATOM      6  H   LIG    1       -0.819   0.765   6.266  0.00  0.00    +0.430 HD
ENDROOT
BRANCH   1  13
ATOM      7  C   LIG    1        0.081   2.549   0.167  0.00  0.00    +0.110 C 
ATOM      8  C   LIG    1       -0.541   2.687   1.532  0.00  0.00    +0.530 C 
ATOM      9  N   LIG    1       -1.258   1.671   2.052  0.00  0.00    -0.610 N 
ATOM     10  C   LIG    1       -1.622   0.427   1.347  0.00  0.00    +0.260 C 
ATOM     11  C   LIG    1       -2.886  -0.088   2.075  0.00  0.00    +0.060 C 
ATOM     12  C   LIG    1       -2.575   0.286   3.548  0.00  0.00    +0.030 C 
ATOM     13  C   LIG    1       -1.813   1.621   3.413  0.00  0.00    +0.220 C 
ATOM     14  O   LIG    1       -0.397   3.712   2.164  0.00  0.00    -0.530 OA
ENDBRANCH   1  13
BRANCH   5  15
ATOM     15  C   LIG    1       -2.688   1.392   5.733  0.00  0.00    +0.380 C 
BRANCH  15  16
ATOM     16  C   LIG    1       -3.283   1.606   7.100  0.00  0.00    +0.120 A 
ATOM     17  N   LIG    1       -3.258   0.749   8.084  0.00  0.00    -0.450 NA
ATOM     18  C   LIG    1       -3.881   1.277   9.148  0.00  0.00    +0.180 A 
ATOM     19  C   LIG    1       -4.315   2.506   8.808  0.00  0.00    +0.180 A 
ATOM     20  N   LIG    1       -3.937   2.715   7.510  0.00  0.00    -0.450 N 
ATOM     21  C   LIG    1       -4.192   3.917   6.713  0.00  0.00    +0.330 C 
ENDBRANCH  15  16
ENDBRANCH   5  15
TORSDOF 3
