REMARK  Name = ZINCrD00000jVQfv.0
REMARK                            x       y       z     vdW  Elec       q    Type
REMARK                         _______ _______ _______ _____ _____    ______ ____
ROOT
ATOM      1  O   LIG    1       -3.653   0.550  -4.777  0.00  0.00    -0.580 OA
ATOM      2  C   LIG    1       -2.551   1.064  -4.788  0.00  0.00    +0.730 C 
ATOM      3  N   LIG    1       -1.827   1.082  -5.924  0.00  0.00    -0.640 N 
ATOM      4  C   LIG    1       -0.422   1.503  -6.037  0.00  0.00    +0.260 C 
ATOM      5  C   LIG    1       -0.021   1.379  -7.525  0.00  0.00    +0.060 C 
ATOM      6  C   LIG    1       -1.381   1.403  -8.246  0.00  0.00    -0.150 C 
ATOM      7  C   LIG    1       -1.505   1.245  -9.749  0.00  0.00    +0.040 C 
ATOM      8  C   LIG    1       -1.835   2.584  -9.081  0.00  0.00    +0.040 C 
ATOM      9  C   LIG    1       -2.312   0.676  -7.259  0.00  0.00    +0.320 C 
ATOM     10  N   LIG    1       -2.054   1.616  -3.663  0.00  0.00    -0.630 N 
ATOM     11  C   LIG    1       -0.650   2.049  -3.591  0.00  0.00    +0.250 C 
ATOM     12  C   LIG    1       -0.018   1.440  -2.335  0.00  0.00    +0.170 C 
ATOM     13  N   LIG    1       -0.834   1.784  -1.163  0.00  0.00    -0.530 NA
ATOM     14  C   LIG    1       -2.180   1.204  -1.264  0.00  0.00    +0.170 C 
ATOM     15  C   LIG    1       -2.902   1.803  -2.476  0.00  0.00    +0.310 C 
ENDROOT
BRANCH  13  16
ATOM     16  C   LIG    1       -0.173   1.367   0.080  0.00  0.00    +0.240 C 
BRANCH  16  17
ATOM     17  C   LIG    1       -0.910   1.946   1.260  0.00  0.00    -0.100 A 
ATOM     18  C   LIG    1       -0.547   3.183   1.760  0.00  0.00    +0.070 A 
ATOM     19  C   LIG    1       -1.225   3.719   2.838  0.00  0.00    -0.060 A 
ATOM     20  C   LIG    1       -2.262   3.011   3.426  0.00  0.00    +0.110 A 
ATOM     21  C   LIG    1       -2.621   1.767   2.926  0.00  0.00    +0.020 A 
ATOM     22  C   LIG    1       -1.944   1.238   1.844  0.00  0.00    +0.050 A 
BRANCH  20  23
ATOM     23  O   LIG    1       -2.927   3.534   4.489  0.00  0.00    -0.310 OA
BRANCH  23  24
ATOM     24  C   LIG    1       -2.504   4.818   4.951  0.00  0.00    +0.600 C 
ATOM     25  F   LIG    1       -1.162   4.755   5.340  0.00  0.00    -0.160 F 
ATOM     26  F   LIG    1       -3.289   5.203   6.043  0.00  0.00    -0.130 F 
ATOM     27  F   LIG    1       -2.647   5.754   3.921  0.00  0.00    -0.160 F 
ENDBRANCH  23  24
ENDBRANCH  20  23
ENDBRANCH  16  17
ENDBRANCH  13  16
TORSDOF 4
