REMARK  Name = ZINCrD0000072st6.0
REMARK                            x       y       z     vdW  Elec       q    Type
REMARK                         _______ _______ _______ _____ _____    ______ ____
ROOT
ATOM      1  O   LIG    1       -4.851  -0.062   0.050  0.00  0.00    -0.330 OA
ENDROOT
BRANCH   1   2
ATOM      2  C   LIG    1       -3.686  -0.739   0.035  0.00  0.00    +0.520 C 
ATOM      3  O   LIG    1       -3.690  -1.954   0.028  0.00  0.00    -0.500 OA
BRANCH   2   9
ATOM      4  N   LIG    1        1.296   1.801  -0.001  0.00  0.00    -0.390 N 
ATOM      5  N   LIG    1        2.071   0.633  -0.014  0.00  0.00    +0.000 NA
ATOM      6  N   LIG    1        1.299  -0.396  -0.013  0.00  0.00    -0.200 NA
ATOM      7  C   LIG    1        0.002  -0.004   0.002  0.00  0.00    -0.030 A 
ATOM      8  C   LIG    1       -1.206  -0.706   0.010  0.00  0.00    +0.210 A 
ATOM      9  C   LIG    1       -2.406  -0.005   0.026  0.00  0.00    -0.140 A 
ATOM     10  C   LIG    1       -2.405   1.398   0.033  0.00  0.00    +0.140 A 
ATOM     11  C   LIG    1       -1.230   2.088   0.030  0.00  0.00    +0.010 A 
ATOM     12  C   LIG    1       -0.017   1.403   0.010  0.00  0.00    +0.120 A 
BRANCH   4  14
ATOM     13  C   LIG    1        1.979   3.652   1.445  0.00  0.00    +0.050 C 
ATOM     14  C   LIG    1        1.793   3.180   0.002  0.00  0.00    +0.330 C 
ENDBRANCH   4  14
ENDBRANCH   2   9
ENDBRANCH   1   2
BRANCH   1  15
ATOM     15  C   LIG    1       -6.071  -0.850   0.058  0.00  0.00    +0.230 C 
BRANCH  15  16
ATOM     16  C   LIG    1       -7.263   0.071   0.074  0.00  0.00    +0.370 C 
ATOM     17  O   LIG    1       -7.102   1.268   0.079  0.00  0.00    -0.420 OA
BRANCH  16  18
ATOM     18  C   LIG    1       -8.658  -0.501   0.085  0.00  0.00    -0.090 C 
ATOM     19  C   LIG    1       -8.868  -1.355  -1.167  0.00  0.00    +0.040 C 
ATOM     20  C   LIG    1      -10.284  -1.936  -1.156  0.00  0.00    +0.000 C 
ATOM     21  C   LIG    1      -10.469  -2.803   0.090  0.00  0.00    +0.030 C 
ATOM     22  C   LIG    1      -10.259  -1.949   1.342  0.00  0.00    +0.000 C 
ATOM     23  C   LIG    1      -11.278  -0.808   1.359  0.00  0.00    +0.020 C 
ATOM     24  C   LIG    1      -11.092   0.059   0.112  0.00  0.00    -0.010 C 
ATOM     25  C   LIG    1      -11.303  -0.795  -1.140  0.00  0.00    +0.020 C 
ATOM     26  C   LIG    1       -8.843  -1.368   1.331  0.00  0.00    +0.040 C 
ATOM     27  C   LIG    1       -9.677   0.640   0.101  0.00  0.00    +0.050 C 
ENDBRANCH  16  18
ENDBRANCH  15  16
ENDBRANCH   1  15
TORSDOF 6
