REMARK  Name = ZINCrH000004tlAq.0
REMARK                            x       y       z     vdW  Elec       q    Type
REMARK                         _______ _______ _______ _____ _____    ______ ____
ROOT
ATOM      1  N   LIG    1        3.046   4.210  -1.238  0.00  0.00    -0.530 NA
ATOM      2  C   LIG    1        3.417   2.937  -1.872  0.00  0.00    +0.170 C 
ATOM      3  C   LIG    1        3.551   3.144  -3.385  0.00  0.00    +0.290 C 
ATOM      4  N   LIG    1        4.486   4.253  -3.623  0.00  0.00    -0.590 N 
ATOM      5  C   LIG    1        4.258   5.521  -2.914  0.00  0.00    +0.300 C 
ATOM      6  C   LIG    1        5.526   4.111  -4.470  0.00  0.00    +0.590 C 
ATOM      7  O   LIG    1        6.280   5.045  -4.669  0.00  0.00    -0.540 OA
ATOM      8  C   LIG    1        4.096   5.221  -1.420  0.00  0.00    +0.170 C 
ENDROOT
BRANCH   6   9
ATOM      9  C   LIG    1        5.749   2.826  -5.153  0.00  0.00    +0.020 A 
ATOM     10  C   LIG    1        6.861   2.574  -5.877  0.00  0.00    -0.030 A 
ATOM     11  S   LIG    1        6.768   0.991  -6.516  0.00  0.00    +0.200 S 
ATOM     12  C   LIG    1        5.199   0.755  -5.753  0.00  0.00    +0.120 A 
ATOM     13  N   LIG    1        4.873   1.829  -5.098  0.00  0.00    -0.440 NA
BRANCH  12  14
ATOM     14  C   LIG    1        4.383  -0.474  -5.839  0.00  0.00    -0.060 A 
ATOM     15  C   LIG    1        3.189  -0.603  -5.230  0.00  0.00    -0.020 A 
ATOM     16  S   LIG    1        2.523  -2.142  -5.540  0.00  0.00    +0.210 S 
ATOM     17  C   LIG    1        3.912  -2.607  -6.510  0.00  0.00    -0.050 A 
ATOM     18  C   LIG    1        4.786  -1.604  -6.555  0.00  0.00    +0.030 A 
ENDBRANCH  12  14
ENDBRANCH   6   9
BRANCH   1  19
ATOM     19  C   LIG    1        2.740   4.019   0.186  0.00  0.00    +0.230 C 
BRANCH  19  23
ATOM     20  C   LIG    1       -0.767   1.603   0.572  0.00  0.00    -0.030 A 
ATOM     21  C   LIG    1        0.494   1.006   0.528  0.00  0.00    +0.060 A 
ATOM     22  C   LIG    1        1.621   1.791   0.402  0.00  0.00    +0.010 A 
ATOM     23  C   LIG    1        1.504   3.168   0.325  0.00  0.00    -0.050 A 
ATOM     24  C   LIG    1        0.258   3.767   0.373  0.00  0.00    +0.040 A 
ATOM     25  C   LIG    1       -0.877   2.994   0.499  0.00  0.00    +0.060 A 
BRANCH  20  27
ATOM     26  N   LIG    1       -2.874   0.152   0.796  0.00  0.00    -0.410 NA
ATOM     27  C   LIG    1       -1.942   0.794   0.697  0.00  0.00    +0.250 C 
ENDBRANCH  20  27
ENDBRANCH  19  23
ENDBRANCH   1  19
TORSDOF 5
