REMARK  Name = ZINCtV00000L6jnb.1
REMARK                            x       y       z     vdW  Elec       q    Type
REMARK                         _______ _______ _______ _____ _____    ______ ____
ROOT
ATOM      1  C   LIG    1        5.286   3.303   0.184  0.00  0.00    -0.060 A 
ATOM      2  C   LIG    1        5.613   4.517  -0.406  0.00  0.00    +0.010 A 
ATOM      3  C   LIG    1        4.613   5.336  -0.895  0.00  0.00    +0.090 A 
ATOM      4  C   LIG    1        3.282   4.952  -0.799  0.00  0.00    -0.140 A 
ATOM      5  S   LIG    1        2.031   6.018  -1.428  0.00  0.00    +0.040 S 
ATOM      6  C   LIG    1        0.564   5.432  -0.651  0.00  0.00    -0.130 A 
ATOM      7  C   LIG    1       -0.559   6.248  -0.613  0.00  0.00    +0.070 A 
ATOM      8  C   LIG    1       -1.719   5.807  -0.005  0.00  0.00    +0.030 A 
ATOM      9  C   LIG    1       -1.763   4.549   0.568  0.00  0.00    +0.050 A 
ATOM     10  C   LIG    1       -0.650   3.731   0.533  0.00  0.00    +0.000 A 
ATOM     11  C   LIG    1        0.522   4.164  -0.078  0.00  0.00    +0.150 A 
ATOM     12  N   LIG    1        1.625   3.311  -0.097  0.00  0.00    -0.500 N 
ATOM     13  C   LIG    1        1.396   1.986  -0.001  0.00  0.00    +0.510 C 
ATOM     14  O   LIG    1        2.326   1.218   0.127  0.00  0.00    -0.470 OA
ATOM     15  C   LIG    1        2.949   3.736  -0.205  0.00  0.00    +0.160 A 
ATOM     16  C   LIG    1        3.957   2.914   0.281  0.00  0.00    +0.070 A 
ENDROOT
BRANCH   1  18
ATOM     17  C   LIG    1        8.070   3.193   0.450  0.00  0.00    +0.140 C 
ATOM     18  S   LIG    1        6.558   2.257   0.810  0.00  0.00    -0.090 S 
ENDBRANCH   1  18
BRANCH  13  19
ATOM     19  C   LIG    1       -0.015   1.460  -0.051  0.00  0.00    +0.240 C 
BRANCH  19  20
ATOM     20  N   LIG    1       -0.020   0.130  -0.675  0.00  0.00    -0.670 NA
ATOM     21  H   LIG    1        0.403   0.159  -1.591  0.00  0.00    +0.350 HD
BRANCH  20  22
ATOM     22  C   LIG    1       -1.382  -0.416  -0.741  0.00  0.00    +0.220 C 
ATOM     23  C   LIG    1       -2.079   0.105  -1.999  0.00  0.00    +0.010 C 
BRANCH  22  24
ATOM     24  C   LIG    1       -1.318  -1.921  -0.788  0.00  0.00    -0.060 A 
ATOM     25  C   LIG    1       -2.232  -2.674  -0.075  0.00  0.00    +0.020 A 
ATOM     26  C   LIG    1       -2.175  -4.054  -0.118  0.00  0.00    +0.020 A 
ATOM     27  C   LIG    1       -1.204  -4.683  -0.875  0.00  0.00    +0.020 A 
ATOM     28  C   LIG    1       -0.289  -3.929  -1.589  0.00  0.00    -0.030 A 
ATOM     29 CL   LIG    1        0.931  -4.718  -2.540  0.00  0.00    -0.070 Cl
ATOM     30  C   LIG    1       -0.350  -2.548  -1.549  0.00  0.00    +0.040 A 
ENDBRANCH  22  24
ENDBRANCH  20  22
ENDBRANCH  19  20
ENDBRANCH  13  19
TORSDOF 5
