REMARK  Name = ZINCrH000004p20e.0
REMARK                            x       y       z     vdW  Elec       q    Type
REMARK                         _______ _______ _______ _____ _____    ______ ____
ROOT
ATOM      1  N   LIG    1       -0.390   1.528   1.037  0.00  0.00    -0.500 NA
ATOM      2  C   LIG    1        0.470   1.055  -0.056  0.00  0.00    +0.180 C 
ENDROOT
BRANCH   1   4
ATOM      3  C   LIG    1        1.540   1.602   2.543  0.00  0.00    +0.020 C 
ATOM      4  C   LIG    1        0.117   1.077   2.339  0.00  0.00    +0.180 C 
BRANCH   4   5
ATOM      5  C   LIG    1        0.128  -0.430   2.379  0.00  0.00    +0.520 C 
ATOM      6  N   LIG    1        0.558  -1.072   3.484  0.00  0.00    -0.680 N 
ATOM      7  H   LIG    1        0.931  -0.567   4.223  0.00  0.00    +0.410 HD
ATOM      8  O   LIG    1       -0.250  -1.065   1.417  0.00  0.00    -0.490 OA
BRANCH   6   9
ATOM      9  C   LIG    1        0.465  -2.466   3.564  0.00  0.00    +0.160 A 
ATOM     10  C   LIG    1       -0.592  -3.128   2.954  0.00  0.00    +0.030 A 
ATOM     11  C   LIG    1       -0.678  -4.505   3.030  0.00  0.00    +0.050 A 
ATOM     12  C   LIG    1        0.280  -5.222   3.721  0.00  0.00    +0.020 A 
ATOM     13  C   LIG    1        1.332  -4.565   4.334  0.00  0.00    -0.070 A 
ATOM     14 BR   LIG    1        2.642  -5.550   5.278  0.00  0.00    -0.050 Br
ATOM     15  C   LIG    1        1.427  -3.188   4.257  0.00  0.00    +0.010 A 
ENDBRANCH   6   9
ENDBRANCH   4   5
ENDBRANCH   1   4
BRANCH   1  16
ATOM     16  C   LIG    1       -0.527   2.990   1.003  0.00  0.00    +0.240 C 
BRANCH  16  17
ATOM     17  C   LIG    1       -1.272   3.397  -0.242  0.00  0.00    -0.060 A 
ATOM     18  C   LIG    1       -0.580   3.870  -1.339  0.00  0.00    +0.010 A 
ATOM     19  C   LIG    1       -1.264   4.238  -2.483  0.00  0.00    +0.000 A 
ATOM     20  C   LIG    1       -2.642   4.145  -2.529  0.00  0.00    +0.010 A 
ATOM     21  C   LIG    1       -3.341   3.678  -1.434  0.00  0.00    -0.030 A 
ATOM     22  C   LIG    1       -2.658   3.301  -0.285  0.00  0.00    +0.110 A 
BRANCH  22  23
ATOM     23  N   LIG    1       -3.362   2.829   0.825  0.00  0.00    -0.490 N 
ATOM     24  C   LIG    1       -4.059   1.573   0.511  0.00  0.00    +0.170 C 
ATOM     25  C   LIG    1       -4.767   1.061   1.769  0.00  0.00    +0.230 C 
ATOM     26  O   LIG    1       -5.658   2.069   2.252  0.00  0.00    -0.390 OA
ATOM     27  C   LIG    1       -5.012   3.305   2.569  0.00  0.00    +0.230 C 
ATOM     28  C   LIG    1       -4.307   3.840   1.320  0.00  0.00    +0.160 C 
ENDBRANCH  22  23
ENDBRANCH  16  17
ENDBRANCH   1  16
TORSDOF 6
