REMARK  Name = ZINCkj000005eU9h.1
REMARK                            x       y       z     vdW  Elec       q    Type
REMARK                         _______ _______ _______ _____ _____    ______ ____
ROOT
ATOM      1  C   LIG    1       -2.940   1.615   2.295  0.00  0.00    +0.200 C 
ATOM      2  C   LIG    1       -3.877   0.490   1.850  0.00  0.00    +0.080 C 
ATOM      3  C   LIG    1       -4.581   0.902   0.555  0.00  0.00    +0.060 C 
ATOM      4  C   LIG    1       -3.527   1.233  -0.506  0.00  0.00    +0.060 C 
ATOM      5  C   LIG    1       -2.603   2.330   0.026  0.00  0.00    +0.260 C 
ATOM      6  N   LIG    1       -1.939   1.865   1.250  0.00  0.00    -0.370 N 
ATOM      7  H   LIG    1       -1.438   1.012   1.055  0.00  0.00    +0.430 HD
ENDROOT
BRANCH   1   8
ATOM      8  C   LIG    1       -2.244   1.214   3.570  0.00  0.00    +0.460 C 
ATOM      9  O   LIG    1       -1.176   0.651   3.524  0.00  0.00    -0.480 OA
BRANCH   8  10
ATOM     10  O   LIG    1       -2.810   1.482   4.757  0.00  0.00    -0.330 OA
BRANCH  10  12
ATOM     11  C   LIG    1       -0.719   1.759   5.973  0.00  0.00    +0.050 C 
ATOM     12  C   LIG    1       -2.083   1.067   5.943  0.00  0.00    +0.120 C 
ATOM     13  C   LIG    1       -1.886  -0.450   5.916  0.00  0.00    +0.040 C 
ATOM     14  C   LIG    1       -2.880   1.455   7.191  0.00  0.00    +0.080 C 
ENDBRANCH  10  12
ENDBRANCH   8  10
ENDBRANCH   1   8
BRANCH   6  15
ATOM     15  C   LIG    1       -0.996   2.892   1.714  0.00  0.00    +0.270 C 
BRANCH  15  16
ATOM     16  C   LIG    1        0.173   2.990   0.731  0.00  0.00    -0.010 C 
ATOM     17  C   LIG    1        1.285   3.908   1.286  0.00  0.00    +0.290 C 
ATOM     18  N   LIG    1        1.820   4.622   0.121  0.00  0.00    -0.730 N 
ATOM     19  H   LIG    1        2.671   5.087   0.107  0.00  0.00    +0.420 HD
ATOM     20  C   LIG    1        0.979   4.550  -0.925  0.00  0.00    +0.520 C 
ATOM     21  O   LIG    1        1.173   5.059  -2.009  0.00  0.00    -0.510 OA
ATOM     22  C   LIG    1       -0.245   3.742  -0.554  0.00  0.00    +0.070 C 
ENDBRANCH  15  16
ENDBRANCH   6  15
TORSDOF 5
