REMARK  Name = ZINCkj000005eU9h.0
REMARK                            x       y       z     vdW  Elec       q    Type
REMARK                         _______ _______ _______ _____ _____    ______ ____
ROOT
ATOM      1  C   LIG    1       -3.664   5.615  -0.567  0.00  0.00    +0.210 C 
ATOM      2  C   LIG    1       -2.955   6.971  -0.558  0.00  0.00    +0.090 C 
ATOM      3  C   LIG    1       -2.845   7.474   0.884  0.00  0.00    +0.060 C 
ATOM      4  C   LIG    1       -2.107   6.428   1.724  0.00  0.00    +0.060 C 
ATOM      5  C   LIG    1       -2.848   5.092   1.631  0.00  0.00    +0.270 C 
ATOM      6  N   LIG    1       -2.896   4.652   0.232  0.00  0.00    -0.370 N 
ATOM      7  H   LIG    1       -3.338   3.747   0.180  0.00  0.00    +0.430 HD
ENDROOT
BRANCH   1   8
ATOM      8  C   LIG    1       -3.775   5.116  -1.985  0.00  0.00    +0.460 C 
ATOM      9  O   LIG    1       -3.266   4.065  -2.297  0.00  0.00    -0.490 OA
BRANCH   8  10
ATOM     10  O   LIG    1       -4.439   5.838  -2.901  0.00  0.00    -0.330 OA
BRANCH  10  12
ATOM     11  C   LIG    1       -5.201   3.934  -4.213  0.00  0.00    +0.040 C 
ATOM     12  C   LIG    1       -4.505   5.296  -4.246  0.00  0.00    +0.120 C 
ATOM     13  C   LIG    1       -3.088   5.132  -4.800  0.00  0.00    +0.040 C 
ATOM     14  C   LIG    1       -5.295   6.251  -5.142  0.00  0.00    +0.080 C 
ENDBRANCH  10  12
ENDBRANCH   8  10
ENDBRANCH   1   8
BRANCH   6  15
ATOM     15  C   LIG    1       -1.529   4.559  -0.298  0.00  0.00    +0.260 C 
BRANCH  15  16
ATOM     16  C   LIG    1       -0.768   3.460   0.446  0.00  0.00    -0.010 C 
ATOM     17  C   LIG    1        0.711   3.415   0.003  0.00  0.00    +0.290 C 
ATOM     18  N   LIG    1        1.077   1.993   0.003  0.00  0.00    -0.730 N 
ATOM     19  H   LIG    1        1.989   1.663  -0.002  0.00  0.00    +0.420 HD
ATOM     20  C   LIG    1       -0.014   1.209   0.009  0.00  0.00    +0.520 C 
ATOM     21  O   LIG    1        0.002  -0.004   0.002  0.00  0.00    -0.510 OA
ATOM     22  C   LIG    1       -1.266   2.058   0.019  0.00  0.00    +0.060 C 
ENDBRANCH  15  16
ENDBRANCH   6  15
TORSDOF 5
