REMARK  Name = ZINCpe000000SFdy.0
REMARK                            x       y       z     vdW  Elec       q    Type
REMARK                         _______ _______ _______ _____ _____    ______ ____
ROOT
ATOM      1  C   LIG    1       -1.211   2.210  -0.077  0.00  0.00    +0.590 C 
ATOM      2  N   LIG    1       -0.248   1.854   0.795  0.00  0.00    -0.620 N 
ATOM      3  C   LIG    1        1.053   2.540   0.804  0.00  0.00    +0.300 C 
ATOM      4  C   LIG    1        1.364   2.975   2.240  0.00  0.00    +0.190 C 
ATOM      5  N   LIG    1        1.269   1.812   3.132  0.00  0.00    -0.520 NA
ATOM      6  C   LIG    1       -0.096   1.269   3.157  0.00  0.00    +0.170 C 
ATOM      7  C   LIG    1       -0.467   0.764   1.758  0.00  0.00    +0.270 C 
ATOM      8  O   LIG    1       -1.042   3.162  -0.816  0.00  0.00    -0.520 OA
ENDROOT
BRANCH   1  13
ATOM      9  C   LIG    1       -4.610   0.881  -0.398  0.00  0.00    -0.250 A 
ATOM     10  C   LIG    1       -3.895  -0.243  -0.017  0.00  0.00    +0.100 A 
ATOM     11  N   LIG    1       -2.608   0.106   0.134  0.00  0.00    -0.530 N 
ATOM     12  H   LIG    1       -1.891  -0.493   0.393  0.00  0.00    +0.420 HD
ATOM     13  C   LIG    1       -2.467   1.450  -0.135  0.00  0.00    -0.060 A 
ATOM     14  C   LIG    1       -4.464  -1.623   0.188  0.00  0.00    +0.160 C 
ATOM     15  C   LIG    1       -3.688   1.953  -0.470  0.00  0.00    -0.040 A 
ATOM     16  C   LIG    1       -3.998   3.379  -0.845  0.00  0.00    +0.120 C 
BRANCH   9  18
ATOM     17  C   LIG    1       -6.549   0.821  -2.091  0.00  0.00    +0.070 C 
ATOM     18  C   LIG    1       -6.048   0.948  -0.676  0.00  0.00    +0.440 C 
ATOM     19  O   LIG    1       -6.835   1.105   0.234  0.00  0.00    -0.450 OA
ENDBRANCH   9  18
ENDBRANCH   1  13
BRANCH   5  20
ATOM     20  C   LIG    1        1.726   2.149   4.487  0.00  0.00    +0.220 C 
BRANCH  20  21
ATOM     21  C   LIG    1        3.199   2.466   4.456  0.00  0.00    +0.520 C 
ATOM     22  N   LIG    1        3.839   2.805   5.592  0.00  0.00    -0.710 N 
ATOM     23  H   LIG    1        3.352   2.845   6.430  0.00  0.00    +0.400 HD
ATOM     24  O   LIG    1        3.808   2.417   3.408  0.00  0.00    -0.520 OA
BRANCH  22  25
ATOM     25  C   LIG    1        5.271   3.114   5.562  0.00  0.00    +0.220 C 
ATOM     26  C   LIG    1        6.144   2.525   6.672  0.00  0.00    +0.010 C 
ATOM     27  C   LIG    1        5.821   4.021   6.665  0.00  0.00    +0.010 C 
ENDBRANCH  22  25
ENDBRANCH  20  21
ENDBRANCH   5  20
TORSDOF 5
