REMARK  Name = ZINCpe000000Xhh7.0
REMARK                            x       y       z     vdW  Elec       q    Type
REMARK                         _______ _______ _______ _____ _____    ______ ____
ROOT
ATOM      1  C   LIG    1        3.618   1.741   0.894  0.00  0.00    +0.510 C 
ATOM      2  N   LIG    1        4.768   1.080   0.658  0.00  0.00    -0.570 N 
ATOM      3  O   LIG    1        3.638   2.932   1.122  0.00  0.00    -0.520 OA
ENDROOT
BRANCH   2   4
ATOM      4  C   LIG    1        6.054   1.758   0.840  0.00  0.00    +0.270 C 
ATOM      5  C   LIG    1        6.213   2.237   2.297  0.00  0.00    +0.080 C 
ATOM      6  C   LIG    1        6.330   3.740   2.166  0.00  0.00    +0.540 C 
ATOM      7  N   LIG    1        6.252   4.077   0.873  0.00  0.00    -0.670 N 
ATOM      8  H   LIG    1        6.304   4.995   0.566  0.00  0.00    +0.420 HD
ATOM      9  O   LIG    1        6.470   4.516   3.087  0.00  0.00    -0.480 OA
ATOM     10  C   LIG    1        6.096   3.041   0.039  0.00  0.00    +0.530 C 
ATOM     11  O   LIG    1        6.004   3.120  -1.168  0.00  0.00    -0.470 OA
ENDBRANCH   2   4
BRANCH   2  12
ATOM     12  C   LIG    1        4.733  -0.318   0.219  0.00  0.00    +0.220 C 
ATOM     13  C   LIG    1        3.454  -0.814  -0.459  0.00  0.00    +0.010 C 
ATOM     14  C   LIG    1        3.792  -1.268   0.962  0.00  0.00    +0.020 C 
ENDBRANCH   2  12
BRANCH   1  16
ATOM     15  C   LIG    1        1.625   1.203  -0.480  0.00  0.00    +0.080 C 
ATOM     16  C   LIG    1        2.305   1.000   0.875  0.00  0.00    +0.230 C 
BRANCH  16  17
ATOM     17  N   LIG    1        1.439   1.514   1.939  0.00  0.00    -0.720 N 
ATOM     18  H   LIG    1        1.564   2.416   2.272  0.00  0.00    +0.410 HD
ATOM     19  C   LIG    1        0.469   0.733   2.455  0.00  0.00    +0.520 C 
ATOM     20  O   LIG    1        0.314  -0.396   2.038  0.00  0.00    -0.530 OA
BRANCH  19  21
ATOM     21  C   LIG    1       -0.426   1.264   3.545  0.00  0.00    +0.060 C 
BRANCH  21  22
ATOM     22  C   LIG    1       -1.437   0.187   3.944  0.00  0.00    +0.010 C 
ATOM     23  C   LIG    1       -2.365  -0.103   2.763  0.00  0.00    +0.010 C 
ATOM     24  C   LIG    1       -3.377  -1.180   3.162  0.00  0.00    +0.000 C 
ATOM     25  C   LIG    1       -4.203  -0.688   4.352  0.00  0.00    +0.000 C 
ATOM     26  C   LIG    1       -3.275  -0.397   5.533  0.00  0.00    +0.000 C 
ATOM     27  C   LIG    1       -2.263   0.679   5.134  0.00  0.00    +0.000 C 
ENDBRANCH  21  22
ENDBRANCH  19  21
ENDBRANCH  16  17
ENDBRANCH   1  16
TORSDOF 6
