REMARK  Name = ZINCvU000000071n.0
REMARK                            x       y       z     vdW  Elec       q    Type
REMARK                         _______ _______ _______ _____ _____    ______ ____
ROOT
ATOM      1  C   LIG    1        6.003   0.926   0.144  0.00  0.00    +0.600 C 
ATOM      2  N   LIG    1        6.567   2.114  -0.149  0.00  0.00    -0.590 N 
ATOM      3  O   LIG    1        6.695  -0.071   0.228  0.00  0.00    -0.500 OA
ENDROOT
BRANCH   1   5
ATOM      4  C   LIG    1        3.862  -0.320   0.554  0.00  0.00    -0.080 A 
ATOM      5  C   LIG    1        4.553   0.834   0.364  0.00  0.00    -0.010 A 
ATOM      6  O   LIG    1        3.707   1.885   0.408  0.00  0.00    -0.170 OA
ATOM      7  C   LIG    1        2.442   1.473   0.626  0.00  0.00    +0.070 A 
ATOM      8  C   LIG    1        1.232   2.143   0.753  0.00  0.00    +0.030 A 
ATOM      9  C   LIG    1        0.073   1.431   0.978  0.00  0.00    +0.060 A 
ATOM     10  C   LIG    1        0.100   0.047   1.080  0.00  0.00    -0.010 A 
ATOM     11  C   LIG    1        1.279  -0.634   0.958  0.00  0.00    +0.070 A 
ATOM     12  C   LIG    1        2.464   0.070   0.730  0.00  0.00    -0.130 A 
BRANCH   4  13
ATOM     13  C   LIG    1        4.424  -1.718   0.578  0.00  0.00    +0.260 C 
BRANCH  13  14
ATOM     14  O   LIG    1        4.406  -2.262  -0.743  0.00  0.00    -0.380 OA
BRANCH  14  16
ATOM     15  C   LIG    1        4.853  -4.070  -2.283  0.00  0.00    +0.040 C 
ATOM     16  C   LIG    1        4.920  -3.592  -0.831  0.00  0.00    +0.160 C 
ENDBRANCH  14  16
ENDBRANCH  13  14
ENDBRANCH   4  13
ENDBRANCH   1   5
BRANCH   2  17
ATOM     17  C   LIG    1        7.992   2.187  -0.482  0.00  0.00    +0.360 C 
BRANCH  17  18
ATOM     18  C   LIG    1        8.169   2.020  -1.970  0.00  0.00    -0.140 A 
ATOM     19  C   LIG    1        8.549   0.797  -2.487  0.00  0.00    +0.070 A 
ATOM     20  C   LIG    1        8.712   0.642  -3.852  0.00  0.00    -0.030 A 
ATOM     21  C   LIG    1        8.496   1.712  -4.701  0.00  0.00    +0.060 A 
ATOM     22  C   LIG    1        8.116   2.937  -4.188  0.00  0.00    -0.080 A 
ATOM     23  C   LIG    1        7.946   3.093  -2.821  0.00  0.00    +0.140 A 
BRANCH  23  24
ATOM     24  O   LIG    1        7.567   4.295  -2.314  0.00  0.00    -0.320 OA
ATOM     25  C   LIG    1        7.354   5.355  -3.249  0.00  0.00    +0.240 C 
ENDBRANCH  23  24
ENDBRANCH  17  18
ENDBRANCH   2  17
BRANCH   2  26
ATOM     26  C   LIG    1        5.755   3.333  -0.136  0.00  0.00    +0.390 C 
BRANCH  26  27
ATOM     27  C   LIG    1        5.694   3.881   1.266  0.00  0.00    -0.200 A 
ATOM     28  C   LIG    1        6.554   4.757   1.788  0.00  0.00    +0.020 A 
ATOM     29  C   LIG    1        6.297   5.117   3.100  0.00  0.00    +0.000 A 
ATOM     30  C   LIG    1        5.227   4.534   3.643  0.00  0.00    -0.060 A 
ATOM     31  S   LIG    1        4.473   3.469   2.464  0.00  0.00    +0.130 S 
ENDBRANCH  26  27
ENDBRANCH   2  26
TORSDOF 9
