REMARK  Name = ZINCpe00000yRYBo.0
REMARK                            x       y       z     vdW  Elec       q    Type
REMARK                         _______ _______ _______ _____ _____    ______ ____
ROOT
ATOM      1  C   LIG    1       -2.060   0.998  -8.448  0.00  0.00    +0.540 C 
ATOM      2  N   LIG    1       -1.623   1.669  -7.365  0.00  0.00    -0.640 N 
ATOM      3  C   LIG    1       -1.469   3.097  -7.025  0.00  0.00    +0.290 C 
ATOM      4  C   LIG    1       -1.584   2.653  -5.556  0.00  0.00    +0.000 C 
ATOM      5  C   LIG    1       -1.108   1.270  -6.038  0.00  0.00    +0.270 C 
ATOM      6  O   LIG    1       -2.438   1.606  -9.427  0.00  0.00    -0.530 OA
ENDROOT
BRANCH   1   7
ATOM      7  C   LIG    1       -2.079  -0.509  -8.444  0.00  0.00    +0.050 C 
BRANCH   7   9
ATOM      8  C   LIG    1       -4.077  -0.593  -9.942  0.00  0.00    +0.060 C 
ATOM      9  C   LIG    1       -2.615  -1.016  -9.784  0.00  0.00    +0.290 C 
BRANCH   9  10
ATOM     10  N   LIG    1       -2.523  -2.478  -9.826  0.00  0.00    -0.370 N 
ATOM     11  C   LIG    1       -3.432  -3.345  -9.334  0.00  0.00    +0.220 A 
ATOM     12  C   LIG    1       -2.977  -4.597  -9.571  0.00  0.00    -0.120 A 
ATOM     13  C   LIG    1       -1.748  -4.492 -10.231  0.00  0.00    +0.220 A 
ATOM     14  N   LIG    1       -1.478  -3.221 -10.389  0.00  0.00    -0.300 NA
ENDBRANCH   9  10
ENDBRANCH   7   9
ENDBRANCH   1   7
BRANCH   4  15
ATOM     15  C   LIG    1       -0.596   3.353  -4.621  0.00  0.00    +0.160 C 
BRANCH  15  16
ATOM     16  C   LIG    1       -0.841   2.905  -3.203  0.00  0.00    -0.020 A 
ATOM     17  C   LIG    1        0.067   2.370  -2.355  0.00  0.00    +0.140 A 
ATOM     18  N   LIG    1       -0.596   2.119  -1.202  0.00  0.00    -0.280 N 
ATOM     19  N   LIG    1       -1.820   2.489  -1.352  0.00  0.00    -0.080 NA
ATOM     20  N   LIG    1       -1.998   2.962  -2.535  0.00  0.00    -0.260 NA
BRANCH  18  21
ATOM     21  C   LIG    1       -0.019   1.534   0.011  0.00  0.00    +0.260 C 
ATOM     22  C   LIG    1        0.002  -0.004   0.002  0.00  0.00    +0.060 C 
ATOM     23  C   LIG    1        1.394   0.090   0.649  0.00  0.00    +0.180 C 
ATOM     24  C   LIG    1        1.518   1.476  -0.004  0.00  0.00    +0.020 C 
BRANCH  23  25
ATOM     25  O   LIG    1        1.360   0.129   2.077  0.00  0.00    -0.550 OA
ATOM     26  H   LIG    1        2.233   0.188   2.490  0.00  0.00    +0.390 HD
ENDBRANCH  23  25
ENDBRANCH  18  21
ENDBRANCH  15  16
ENDBRANCH   4  15
TORSDOF 7
