REMARK  Name = ZINCpk00000xIlqk.0
REMARK                            x       y       z     vdW  Elec       q    Type
REMARK                         _______ _______ _______ _____ _____    ______ ____
ROOT
ATOM      1  O   LIG    1        0.002  -0.004   0.002  0.00  0.00    -0.590 OA
ATOM      2  C   LIG    1       -0.014   1.212   0.009  0.00  0.00    +0.720 C 
ATOM      3  N   LIG    1        1.143   1.901   0.001  0.00  0.00    -0.640 N 
ATOM      4  C   LIG    1        1.272   3.376   0.002  0.00  0.00    +0.250 C 
ATOM      5  C   LIG    1        2.769   3.672   0.063  0.00  0.00    -0.010 C 
ATOM      6  C   LIG    1        3.238   4.870  -0.743  0.00  0.00    +0.080 C 
ATOM      7  C   LIG    1        4.745   4.794  -0.835  0.00  0.00    -0.050 C 
ATOM      8  C   LIG    1        5.438   3.720  -0.611  0.00  0.00    -0.040 C 
ATOM      9  C   LIG    1        4.841   2.380  -0.245  0.00  0.00    +0.080 C 
ATOM     10  C   LIG    1        3.372   2.413  -0.635  0.00  0.00    -0.020 C 
ATOM     11  C   LIG    1        2.505   1.310  -0.015  0.00  0.00    +0.280 C 
ATOM     12  N   LIG    1       -1.191   1.870   0.018  0.00  0.00    -0.740 N 
ATOM     13  H   LIG    1       -1.204   2.840   0.023  0.00  0.00    +0.400 HD
ENDROOT
BRANCH  12  14
ATOM     14  C   LIG    1       -2.449   1.120   0.020  0.00  0.00    +0.280 C 
BRANCH  14  15
ATOM     15  C   LIG    1       -3.626   2.098   0.031  0.00  0.00    +0.010 C 
BRANCH  15  16
ATOM     16  C   LIG    1       -4.940   1.315   0.033  0.00  0.00    +0.370 C 
BRANCH  16  17
ATOM     17  N   LIG    1       -6.066   2.252   0.043  0.00  0.00    -0.430 N 
ATOM     18  N   LIG    1       -6.697   2.776   1.180  0.00  0.00    -0.290 NA
ATOM     19  C   LIG    1       -7.657   3.575   0.776  0.00  0.00    +0.300 A 
ATOM     20  C   LIG    1       -8.600   4.360   1.487  0.00  0.00    +0.040 A 
ATOM     21  C   LIG    1       -9.496   5.107   0.797  0.00  0.00    +0.110 A 
ATOM     22  C   LIG    1       -9.481   5.096  -0.613  0.00  0.00    -0.020 A 
ATOM     23  C   LIG    1       -8.585   4.351  -1.282  0.00  0.00    +0.300 A 
ATOM     24  N   LIG    1       -7.665   3.584  -0.606  0.00  0.00    -0.480 N 
ATOM     25  C   LIG    1       -6.681   2.772  -1.040  0.00  0.00    +0.640 A 
ATOM     26  O   LIG    1       -6.397   2.545  -2.203  0.00  0.00    -0.540 OA
ENDBRANCH  16  17
ENDBRANCH  15  16
ENDBRANCH  14  15
ENDBRANCH  12  14
TORSDOF 4
