REMARK  Name = ZINCpk00001AZiIX.0
REMARK                            x       y       z     vdW  Elec       q    Type
REMARK                         _______ _______ _______ _____ _____    ______ ____
ROOT
ATOM      1  C   LIG    1       -2.407   1.015   0.139  0.00  0.00    +0.560 C 
ATOM      2  N   LIG    1       -3.583   1.673   0.161  0.00  0.00    -0.560 N 
ATOM      3  C   LIG    1       -4.858   0.946   0.267  0.00  0.00    +0.290 C 
ATOM      4  C   LIG    1       -5.465   0.737  -1.093  0.00  0.00    +0.010 C 
ATOM      5  C   LIG    1       -5.853   2.032  -1.794  0.00  0.00    +0.020 C 
ATOM      6  C   LIG    1       -4.617   2.824  -2.212  0.00  0.00    +0.060 C 
ATOM      7  C   LIG    1       -4.157   3.680  -1.045  0.00  0.00    -0.080 A 
ATOM      8  C   LIG    1       -4.248   5.054  -1.117  0.00  0.00    +0.020 A 
ATOM      9  C   LIG    1       -3.784   5.827  -0.067  0.00  0.00    +0.010 A 
ATOM     10  C   LIG    1       -3.232   5.223   1.048  0.00  0.00    +0.010 A 
ATOM     11  C   LIG    1       -3.153   3.846   1.127  0.00  0.00    +0.010 A 
ATOM     12  C   LIG    1       -3.629   3.068   0.078  0.00  0.00    +0.130 A 
ATOM     13  O   LIG    1       -2.388  -0.200   0.212  0.00  0.00    -0.540 OA
ENDROOT
BRANCH   1  15
ATOM     14  C   LIG    1       -0.013   1.076   0.008  0.00  0.00    +0.150 C 
ATOM     15  C   LIG    1       -1.193   1.737   0.030  0.00  0.00    -0.070 C 
BRANCH  14  19
ATOM     16  C   LIG    1        4.899   1.214   0.182  0.00  0.00    +0.360 C 
ATOM     17  N   LIG    1        3.611   1.904   0.083  0.00  0.00    -0.530 N 
ATOM     18  C   LIG    1        2.464   1.174   0.094  0.00  0.00    +0.390 A 
ATOM     19  C   LIG    1        1.247   1.825   0.000  0.00  0.00    -0.250 A 
ATOM     20  C   LIG    1        1.254   3.294  -0.115  0.00  0.00    +0.550 A 
ATOM     21  N   LIG    1        2.442   3.935  -0.112  0.00  0.00    -0.550 N 
ATOM     22  C   LIG    1        2.481   5.395  -0.219  0.00  0.00    +0.350 C 
ATOM     23  O   LIG    1        0.212   3.916  -0.204  0.00  0.00    -0.490 OA
ATOM     24  C   LIG    1        3.590   3.242  -0.017  0.00  0.00    +0.690 A 
ATOM     25  O   LIG    1        4.644   3.848  -0.023  0.00  0.00    -0.530 OA
ENDBRANCH  14  19
ENDBRANCH   1  15
TORSDOF 2
