REMARK  Name = ZINCrD00000740o3.0
REMARK                            x       y       z     vdW  Elec       q    Type
REMARK                         _______ _______ _______ _____ _____    ______ ____
ROOT
ATOM      1  C   LIG    1       -1.992  -0.208   1.392  0.00  0.00    +0.000 C 
ATOM      2  C   LIG    1       -2.082   1.317   1.300  0.00  0.00    +0.200 C 
ATOM      3  C   LIG    1       -2.942   1.708   0.094  0.00  0.00    +0.250 C 
ATOM      4  N   LIG    1       -2.222   1.330  -1.132  0.00  0.00    -0.610 N 
ATOM      5  C   LIG    1       -0.821   1.761  -1.274  0.00  0.00    +0.270 C 
ATOM      6  C   LIG    1       -0.065   1.367   0.000  0.00  0.00    +0.220 C 
ATOM      7  C   LIG    1       -2.827   0.610  -2.098  0.00  0.00    +0.530 C 
ATOM      8  O   LIG    1       -2.230   0.344  -3.120  0.00  0.00    -0.510 OA
ATOM      9  O   LIG    1       -0.770   1.864   1.140  0.00  0.00    -0.360 OA
ENDROOT
BRANCH   7  10
ATOM     10  C   LIG    1       -4.245   0.136  -1.909  0.00  0.00    -0.030 C 
ATOM     11  C   LIG    1       -4.692  -0.650  -3.145  0.00  0.00    +0.040 C 
ATOM     12  C   LIG    1       -4.685   0.284  -4.361  0.00  0.00    +0.230 C 
ATOM     13  O   LIG    1       -5.539   1.401  -4.108  0.00  0.00    -0.380 OA
ATOM     14  C   LIG    1       -5.142   2.198  -2.991  0.00  0.00    +0.210 C 
ATOM     15  C   LIG    1       -5.168   1.344  -1.721  0.00  0.00    +0.050 C 
BRANCH  10  16
ATOM     16  C   LIG    1       -4.322  -0.751  -0.693  0.00  0.00    +0.110 A 
ATOM     17  N   LIG    1       -5.168  -0.459   0.275  0.00  0.00    -0.450 NA
ATOM     18  C   LIG    1       -5.273  -1.208   1.355  0.00  0.00    +0.260 A 
ATOM     19  C   LIG    1       -4.484  -2.332   1.517  0.00  0.00    +0.010 A 
ATOM     20  C   LIG    1       -3.578  -2.670   0.524  0.00  0.00    +0.050 A 
ATOM     21  C   LIG    1       -3.498  -1.861  -0.601  0.00  0.00    +0.060 A 
ATOM     22  F   LIG    1       -2.629  -2.152  -1.594  0.00  0.00    -0.120 F 
ENDBRANCH  10  16
ENDBRANCH   7  10
BRANCH   6  23
ATOM     23  C   LIG    1        1.320   1.962  -0.033  0.00  0.00    -0.110 A 
ATOM     24  C   LIG    1        1.576   3.208   0.369  0.00  0.00    -0.010 A 
ATOM     25  S   LIG    1        3.292   3.545   0.188  0.00  0.00    +0.110 S 
ATOM     26  C   LIG    1        3.573   1.930  -0.450  0.00  0.00    -0.040 A 
ATOM     27  C   LIG    1        2.421   1.258  -0.488  0.00  0.00    +0.010 A 
ENDBRANCH   6  23
TORSDOF 3
