REMARK  Name = ZINCvU0000000GTr.1
REMARK                            x       y       z     vdW  Elec       q    Type
REMARK                         _______ _______ _______ _____ _____    ______ ____
ROOT
ATOM      1  C   LIG    1        4.072   2.591  -5.015  0.00  0.00    -0.010 C 
ATOM      2  C   LIG    1        4.296   1.147  -4.557  0.00  0.00    +0.060 C 
ATOM      3  C   LIG    1        4.087   1.059  -3.043  0.00  0.00    +0.180 C 
ATOM      4  N   LIG    1        2.724   1.491  -2.710  0.00  0.00    -0.530 NA
ATOM      5  C   LIG    1        2.500   2.890  -3.098  0.00  0.00    +0.180 C 
ATOM      6  C   LIG    1        2.662   3.032  -4.613  0.00  0.00    +0.040 C 
ENDROOT
BRANCH   1   8
ATOM      7  O   LIG    1        4.475   1.674  -7.152  0.00  0.00    -0.530 OA
ATOM      8  C   LIG    1        4.218   2.672  -6.513  0.00  0.00    +0.520 C 
ATOM      9  N   LIG    1        4.061   3.853  -7.142  0.00  0.00    -0.730 N 
ATOM     10  H   LIG    1        3.855   4.652  -6.630  0.00  0.00    +0.400 HD
BRANCH   9  11
ATOM     11  C   LIG    1        4.203   3.933  -8.598  0.00  0.00    +0.330 C 
BRANCH  11  12
ATOM     12  C   LIG    1        3.982   5.354  -9.047  0.00  0.00    -0.160 A 
ATOM     13  C   LIG    1        2.712   5.793  -9.388  0.00  0.00    +0.080 A 
ATOM     14  C   LIG    1        2.555   7.111  -9.791  0.00  0.00    -0.030 A 
ATOM     15  C   LIG    1        3.664   7.933  -9.851  0.00  0.00    +0.270 A 
ATOM     16  N   LIG    1        4.859   7.479  -9.524  0.00  0.00    -0.480 NA
ATOM     17  C   LIG    1        5.044   6.234  -9.131  0.00  0.00    +0.280 A 
ENDBRANCH  11  12
ENDBRANCH   9  11
ENDBRANCH   1   8
BRANCH   4  18
ATOM     18  C   LIG    1        2.441   1.289  -1.283  0.00  0.00    +0.240 C 
BRANCH  18  19
ATOM     19  C   LIG    1        1.140   1.962  -0.928  0.00  0.00    -0.110 A 
ATOM     20  C   LIG    1       -0.048   1.261  -1.025  0.00  0.00    +0.090 A 
ATOM     21  C   LIG    1       -1.243   1.877  -0.705  0.00  0.00    -0.040 A 
ATOM     22  C   LIG    1       -1.249   3.195  -0.276  0.00  0.00    +0.140 A 
ATOM     23  C   LIG    1       -0.055   3.897  -0.178  0.00  0.00    -0.060 A 
ATOM     24 CL   LIG    1       -0.059   5.550   0.352  0.00  0.00    -0.050 Cl
ATOM     25  C   LIG    1        1.137   3.279  -0.505  0.00  0.00    +0.070 A 
BRANCH  22  26
ATOM     26  O   LIG    1       -2.423   3.801   0.045  0.00  0.00    -0.250 OA
BRANCH  26  27
ATOM     27  C   LIG    1       -3.565   3.071  -0.052  0.00  0.00    +0.080 A 
ATOM     28  C   LIG    1       -4.282   3.058  -1.240  0.00  0.00    +0.010 A 
ATOM     29  C   LIG    1       -5.439   2.311  -1.339  0.00  0.00    +0.020 A 
ATOM     30  C   LIG    1       -5.890   1.585  -0.251  0.00  0.00    +0.020 A 
ATOM     31  C   LIG    1       -5.181   1.602   0.936  0.00  0.00    +0.020 A 
ATOM     32  C   LIG    1       -4.019   2.343   1.038  0.00  0.00    +0.010 A 
ENDBRANCH  26  27
ENDBRANCH  22  26
ENDBRANCH  18  19
ENDBRANCH   4  18
TORSDOF 7
