REMARK  Name = ZINCrH000004oNTd.0
REMARK                            x       y       z     vdW  Elec       q    Type
REMARK                         _______ _______ _______ _____ _____    ______ ____
ROOT
ATOM      1  C   LIG    1       -0.035   1.125  -2.471  0.00  0.00    +0.510 C 
ATOM      2  N   LIG    1       -0.513   1.448  -3.689  0.00  0.00    -0.730 N 
ATOM      3  H   LIG    1       -1.304   2.004  -3.768  0.00  0.00    +0.400 HD
ATOM      4  O   LIG    1        0.955   0.430  -2.373  0.00  0.00    -0.540 OA
ENDROOT
BRANCH   1   5
ATOM      5  C   LIG    1       -0.729   1.627  -1.232  0.00  0.00    +0.060 C 
BRANCH   5   6
ATOM      6  C   LIG    1        0.011   1.120   0.008  0.00  0.00    +0.170 C 
BRANCH   6  10
ATOM      7  C   LIG    1       -1.229   2.896   2.947  0.00  0.00    +0.030 A 
ATOM      8  C   LIG    1       -2.025   1.813   3.000  0.00  0.00    -0.060 A 
ATOM      9  C   LIG    1       -1.677   0.994   1.901  0.00  0.00    -0.050 A 
ATOM     10  C   LIG    1       -0.683   1.622   1.248  0.00  0.00    -0.020 A 
ATOM     11  O   LIG    1       -0.418   2.775   1.884  0.00  0.00    -0.170 OA
BRANCH   7  15
ATOM     12  C   LIG    1       -1.806   5.554   1.851  0.00  0.00    +0.060 C 
ATOM     13  C   LIG    1       -1.545   5.441   3.354  0.00  0.00    -0.030 C 
ATOM     14  C   LIG    1       -0.125   5.085   3.801  0.00  0.00    +0.030 C 
ATOM     15  C   LIG    1       -1.245   4.050   3.917  0.00  0.00    +0.040 C 
ENDBRANCH   7  15
ENDBRANCH   6  10
ENDBRANCH   5   6
ENDBRANCH   1   5
BRANCH   2  16
ATOM     16  C   LIG    1        0.162   0.960  -4.895  0.00  0.00    +0.320 C 
BRANCH  16  17
ATOM     17  C   LIG    1       -0.567   1.459  -6.115  0.00  0.00    -0.140 A 
ATOM     18  C   LIG    1       -1.586   0.705  -6.667  0.00  0.00    +0.060 A 
ATOM     19  C   LIG    1       -2.260   1.162  -7.783  0.00  0.00    +0.000 A 
ATOM     20  C   LIG    1       -1.905   2.375  -8.358  0.00  0.00    +0.170 A 
ATOM     21  C   LIG    1       -0.877   3.128  -7.804  0.00  0.00    -0.030 A 
ATOM     22  C   LIG    1       -0.211   2.668  -6.685  0.00  0.00    +0.060 A 
BRANCH  20  23
ATOM     23  N   LIG    1       -2.581   2.838  -9.492  0.00  0.00    -0.560 N 
ATOM     24  C   LIG    1       -2.368   4.156 -10.102  0.00  0.00    +0.260 C 
ATOM     25  C   LIG    1       -3.594   4.391 -11.012  0.00  0.00    +0.060 C 
ATOM     26  C   LIG    1       -4.036   2.943 -11.326  0.00  0.00    +0.070 C 
ATOM     27  C   LIG    1       -3.504   2.132 -10.165  0.00  0.00    +0.520 C 
ATOM     28  O   LIG    1       -3.861   1.008  -9.882  0.00  0.00    -0.510 OA
ENDBRANCH  20  23
ENDBRANCH  16  17
ENDBRANCH   2  16
TORSDOF 7
