REMARK  Name = ZINCqH00000044nC.0
REMARK                            x       y       z     vdW  Elec       q    Type
REMARK                         _______ _______ _______ _____ _____    ______ ____
ROOT
ATOM      1  N   LIG    1       -1.135   6.472   0.937  0.00  0.00    -0.720 N 
ATOM      2  H   LIG    1       -1.899   5.904   1.126  0.00  0.00    +0.400 HD
ATOM      3  C   LIG    1       -1.046   7.692   1.503  0.00  0.00    +0.520 C 
ATOM      4  O   LIG    1       -0.091   8.402   1.266  0.00  0.00    -0.530 OA
ENDROOT
BRANCH   1   5
ATOM      5  C   LIG    1       -0.079   6.003   0.036  0.00  0.00    +0.290 C 
BRANCH   5   6
ATOM      6  C   LIG    1       -0.059   4.497   0.027  0.00  0.00    -0.090 A 
ATOM      7  C   LIG    1        1.148   3.822   0.012  0.00  0.00    +0.050 A 
ATOM      8  C   LIG    1        1.167   2.440   0.004  0.00  0.00    +0.040 A 
ATOM      9  C   LIG    1       -0.021   1.732   0.012  0.00  0.00    -0.030 A 
ATOM     10  C   LIG    1       -1.229   2.407   0.021  0.00  0.00    +0.030 A 
ATOM     11 CL   LIG    1        0.002  -0.004   0.002  0.00  0.00    -0.070 Cl
ATOM     12  C   LIG    1       -1.247   3.789   0.035  0.00  0.00    +0.030 A 
ENDBRANCH   5   6
BRANCH   5  14
ATOM     13  C   LIG    1       -0.248   8.044  -1.395  0.00  0.00    +0.020 C 
ATOM     14  C   LIG    1       -0.351   6.518  -1.379  0.00  0.00    +0.010 C 
ENDBRANCH   5  14
ENDBRANCH   1   5
BRANCH   3  15
ATOM     15  C   LIG    1       -2.132   8.174   2.429  0.00  0.00    +0.040 C 
BRANCH  15  16
ATOM     16  C   LIG    1       -1.789   9.579   2.930  0.00  0.00    +0.330 C 
BRANCH  16  17
ATOM     17  N   LIG    1       -2.845  10.048   3.831  0.00  0.00    -0.550 N 
ATOM     18  C   LIG    1       -3.904  10.733   3.348  0.00  0.00    +0.490 C 
ATOM     19  C   LIG    1       -4.964  11.236   4.295  0.00  0.00    +0.300 C 
ATOM     20  O   LIG    1       -5.073  10.351   5.412  0.00  0.00    -0.300 OA
ATOM     21  C   LIG    1       -3.910   9.955   5.994  0.00  0.00    +0.080 A 
ATOM     22  C   LIG    1       -3.849   9.710   7.355  0.00  0.00    +0.030 A 
ATOM     23  C   LIG    1       -2.656   9.309   7.930  0.00  0.00    +0.030 A 
ATOM     24  C   LIG    1       -1.525   9.152   7.151  0.00  0.00    +0.020 A 
ATOM     25  C   LIG    1       -1.578   9.395   5.790  0.00  0.00    +0.000 A 
ATOM     26  O   LIG    1       -4.004  10.940   2.157  0.00  0.00    -0.500 OA
ATOM     27  C   LIG    1       -2.769   9.796   5.208  0.00  0.00    +0.090 A 
ENDBRANCH  16  17
ENDBRANCH  15  16
ENDBRANCH   3  15
TORSDOF 6
