REMARK  Name = ZINCqH000000702g.0
REMARK                            x       y       z     vdW  Elec       q    Type
REMARK                         _______ _______ _______ _____ _____    ______ ____
ROOT
ATOM      1  C   LIG    1       -3.375  -1.234   0.045  0.00  0.00    +0.220 A 
ATOM      2  N   LIG    1       -3.058  -1.209   1.314  0.00  0.00    -0.380 NA
ATOM      3  O   LIG    1       -1.921  -0.811   1.452  0.00  0.00    +0.090 OA
ATOM      4  C   LIG    1       -1.388  -0.527   0.259  0.00  0.00    +0.190 A 
ATOM      5  N   LIG    1       -2.298  -0.793  -0.644  0.00  0.00    -0.460 NA
ENDROOT
BRANCH   1   9
ATOM      6  C   LIG    1       -7.097  -2.468  -1.612  0.00  0.00    +0.120 A 
ATOM      7  C   LIG    1       -6.075  -2.037  -2.445  0.00  0.00    -0.040 A 
ATOM      8  C   LIG    1       -4.870  -1.631  -1.909  0.00  0.00    +0.070 A 
ATOM      9  C   LIG    1       -4.673  -1.664  -0.530  0.00  0.00    -0.020 A 
ATOM     10  C   LIG    1       -5.699  -2.097   0.308  0.00  0.00    +0.000 A 
ATOM     11  C   LIG    1       -6.907  -2.497  -0.232  0.00  0.00    +0.100 A 
BRANCH   6  13
ATOM     12  C   LIG    1       -8.411  -2.805  -3.565  0.00  0.00    +0.240 C 
ATOM     13  O   LIG    1       -8.285  -2.861  -2.142  0.00  0.00    -0.300 OA
ENDBRANCH   6  13
BRANCH  11  14
ATOM     14  O   LIG    1       -7.910  -2.920   0.584  0.00  0.00    -0.300 OA
ATOM     15  C   LIG    1       -7.646  -2.925   1.988  0.00  0.00    +0.240 C 
ENDBRANCH  11  14
ENDBRANCH   1   9
BRANCH   4  16
ATOM     16  C   LIG    1        0.002  -0.004   0.002  0.00  0.00    +0.360 C 
BRANCH  16  17
ATOM     17  N   LIG    1       -0.018   1.465   0.010  0.00  0.00    -0.480 N 
ATOM     18  C   LIG    1       -0.689   1.964  -1.113  0.00  0.00    +0.070 A 
ATOM     19  C   LIG    1       -2.055   2.031  -1.382  0.00  0.00    +0.030 A 
ATOM     20  C   LIG    1       -2.502   2.564  -2.574  0.00  0.00    +0.030 A 
ATOM     21  C   LIG    1       -1.599   3.038  -3.507  0.00  0.00    +0.010 A 
ATOM     22  C   LIG    1       -0.242   2.978  -3.246  0.00  0.00    +0.030 A 
ATOM     23  C   LIG    1        0.210   2.447  -2.056  0.00  0.00    -0.130 A 
ATOM     24  C   LIG    1        1.610   2.261  -1.505  0.00  0.00    +0.070 C 
ATOM     25  C   LIG    1        1.356   2.014  -0.000  0.00  0.00    +0.190 C 
ATOM     26  C   LIG    1        2.351   0.995   0.558  0.00  0.00    +0.050 C 
ENDBRANCH  16  17
ENDBRANCH   4  16
TORSDOF 5
