REMARK  Name = ZINCtV00000tRTm8.0
REMARK                            x       y       z     vdW  Elec       q    Type
REMARK                         _______ _______ _______ _____ _____    ______ ____
ROOT
ATOM      1  C   LIG    1       -2.929   3.302   1.479  0.00  0.00    +0.280 C 
ENDROOT
BRANCH   1   2
ATOM      2  N   LIG    1       -3.381   3.475   2.862  0.00  0.00    -0.490 N 
ATOM      3  C   LIG    1       -4.212   2.599   3.538  0.00  0.00    +0.160 A 
ATOM      4  C   LIG    1       -4.418   3.096   4.833  0.00  0.00    -0.090 A 
ATOM      5  C   LIG    1       -3.663   4.359   4.922  0.00  0.00    -0.100 A 
ATOM      6  C   LIG    1       -3.484   5.299   5.934  0.00  0.00    +0.110 A 
ATOM      7  C   LIG    1       -2.697   6.408   5.708  0.00  0.00    -0.120 A 
ATOM      8 BR   LIG    1       -2.452   7.686   7.080  0.00  0.00    -0.040 Br
ATOM      9  C   LIG    1       -2.084   6.590   4.477  0.00  0.00    +0.090 A 
ATOM     10  C   LIG    1       -2.253   5.667   3.467  0.00  0.00    +0.000 A 
ATOM     11  C   LIG    1       -5.221   2.395   5.730  0.00  0.00    +0.110 A 
ATOM     12  C   LIG    1       -5.807   1.208   5.342  0.00  0.00    -0.120 A 
ATOM     13  C   LIG    1       -5.599   0.713   4.063  0.00  0.00    +0.090 A 
ATOM     14 BR   LIG    1       -6.897   0.254   6.557  0.00  0.00    -0.040 Br
ATOM     15  C   LIG    1       -4.807   1.397   3.166  0.00  0.00    -0.010 A 
ATOM     16  C   LIG    1       -3.044   4.541   3.677  0.00  0.00    +0.170 A 
ENDBRANCH   1   2
BRANCH   1  17
ATOM     17  C   LIG    1       -1.616   2.517   1.466  0.00  0.00    +0.180 C 
BRANCH  17  18
ATOM     18  O   LIG    1       -0.595   3.287   2.104  0.00  0.00    -0.540 OA
ATOM     19  H   LIG    1       -0.422   4.139   1.681  0.00  0.00    +0.370 HD
ENDBRANCH  17  18
BRANCH  17  20
ATOM     20  C   LIG    1       -1.208   2.228   0.020  0.00  0.00    +0.280 C 
BRANCH  20  30
ATOM     21  C   LIG    1        1.714   3.241   0.003  0.00  0.00    +0.180 C 
ATOM     22  C   LIG    1        1.276   1.799  -0.001  0.00  0.00    +0.300 A 
ATOM     23  N   LIG    1        2.081   0.776  -0.014  0.00  0.00    -0.490 NA
ATOM     24  C   LIG    1        1.358  -0.373  -0.013  0.00  0.00    +0.050 A 
ATOM     25  C   LIG    1        1.701  -1.728  -0.023  0.00  0.00    +0.070 A 
ATOM     26  C   LIG    1        0.720  -2.679  -0.020  0.00  0.00    +0.000 A 
ATOM     27  C   LIG    1       -0.618  -2.315  -0.005  0.00  0.00    +0.030 A 
ATOM     28  C   LIG    1       -0.981  -0.984   0.006  0.00  0.00    +0.010 A 
ATOM     29  C   LIG    1        0.002  -0.004   0.002  0.00  0.00    +0.040 A 
ATOM     30  N   LIG    1       -0.017   1.376   0.010  0.00  0.00    -0.480 N 
ENDBRANCH  20  30
ENDBRANCH  17  20
ENDBRANCH   1  17
TORSDOF 5
