REMARK  Name = ZINCvU0000000BBl.0
REMARK                            x       y       z     vdW  Elec       q    Type
REMARK                         _______ _______ _______ _____ _____    ______ ____
ROOT
ATOM      1  C   LIG    1        3.639   1.844  -0.064  0.00  0.00    -0.120 A 
ATOM      2  C   LIG    1        2.490   1.190  -0.515  0.00  0.00    +0.090 A 
ATOM      3  C   LIG    1        1.207   1.902  -0.432  0.00  0.00    -0.110 A 
ATOM      4  C   LIG    1        0.027   1.293  -0.871  0.00  0.00    +0.130 A 
ATOM      5  C   LIG    1       -1.165   1.978  -0.792  0.00  0.00    -0.120 A 
ATOM      6  C   LIG    1       -1.202   3.263  -0.268  0.00  0.00    +0.120 A 
ATOM      7  C   LIG    1       -0.047   3.877   0.168  0.00  0.00    -0.010 A 
ATOM      8 BR   LIG    1       -2.762   1.160  -1.391  0.00  0.00    -0.030 Br
ATOM      9  C   LIG    1        1.170   3.206   0.092  0.00  0.00    +0.210 A 
ATOM     10  N   LIG    1        2.328   3.819   0.528  0.00  0.00    -0.630 N 
ATOM     11  H   LIG    1        2.279   4.720   0.885  0.00  0.00    +0.420 HD
ATOM     12  C   LIG    1        3.520   3.203   0.470  0.00  0.00    +0.560 A 
ATOM     13  O   LIG    1        4.516   3.782   0.866  0.00  0.00    -0.510 OA
ENDROOT
BRANCH   2  14
ATOM     14  C   LIG    1        2.563  -0.181  -1.060  0.00  0.00    -0.080 A 
ATOM     15  C   LIG    1        3.193  -0.416  -2.284  0.00  0.00    +0.040 A 
ATOM     16  C   LIG    1        3.261  -1.700  -2.785  0.00  0.00    +0.020 A 
ATOM     17  C   LIG    1        2.698  -2.751  -2.083  0.00  0.00    +0.030 A 
ATOM     18  C   LIG    1        2.068  -2.524  -0.872  0.00  0.00    +0.020 A 
ATOM     19  C   LIG    1        1.996  -1.246  -0.356  0.00  0.00    +0.040 A 
ENDBRANCH   2  14
BRANCH   1  22
ATOM     20  C   LIG    1        6.866   0.023  -0.961  0.00  0.00    +0.200 C 
ATOM     21  C   LIG    1        5.885   1.165  -1.316  0.00  0.00    +0.090 C 
ATOM     22  C   LIG    1        4.948   1.178  -0.123  0.00  0.00    +0.150 C 
ATOM     23  N   LIG    1        5.502   0.507   0.834  0.00  0.00    -0.260 NA
ATOM     24  O   LIG    1        6.767  -0.014   0.477  0.00  0.00    -0.190 OA
BRANCH  20  30
ATOM     25  C   LIG    1        8.676   0.096  -2.695  0.00  0.00    +0.140 A 
ATOM     26  C   LIG    1        9.966   0.415  -3.094  0.00  0.00    -0.080 A 
ATOM     27  C   LIG    1       10.845   0.985  -2.194  0.00  0.00    +0.060 A 
ATOM     28  C   LIG    1       10.439   1.244  -0.898  0.00  0.00    -0.020 A 
ATOM     29  C   LIG    1        9.152   0.932  -0.500  0.00  0.00    +0.080 A 
ATOM     30  C   LIG    1        8.269   0.362  -1.396  0.00  0.00    -0.130 A 
BRANCH  25  32
ATOM     31  C   LIG    1        8.299  -0.715  -4.898  0.00  0.00    +0.250 C 
ATOM     32  O   LIG    1        7.811  -0.470  -3.577  0.00  0.00    -0.320 OA
ENDBRANCH  25  32
ENDBRANCH  20  30
ENDBRANCH   1  22
TORSDOF 4
