REMARK  Name = ZINCrg00000Aun5k.0
REMARK                            x       y       z     vdW  Elec       q    Type
REMARK                         _______ _______ _______ _____ _____    ______ ____
ROOT
ATOM      1  C   LIG    1       -2.540   3.845   0.045  0.00  0.00    +0.570 C 
ATOM      2  N   LIG    1       -2.576   5.192   0.053  0.00  0.00    -0.730 N 
ATOM      3  H   LIG    1       -1.750   5.700   0.048  0.00  0.00    +0.410 HD
ATOM      4  O   LIG    1       -3.576   3.209   0.051  0.00  0.00    -0.510 OA
ENDROOT
BRANCH   1  10
ATOM      5  C   LIG    1        4.819   2.484  -0.028  0.00  0.00    +0.140 C 
ATOM      6  C   LIG    1        3.312   2.512  -0.015  0.00  0.00    +0.080 A 
ATOM      7  C   LIG    1        2.562   3.625  -0.003  0.00  0.00    -0.040 A 
ATOM      8  C   LIG    1        1.161   3.195   0.008  0.00  0.00    -0.120 A 
ATOM      9  C   LIG    1       -0.056   3.871   0.022  0.00  0.00    +0.130 A 
ATOM     10  C   LIG    1       -1.242   3.142   0.029  0.00  0.00    -0.160 A 
ATOM     11  C   LIG    1       -1.205   1.740   0.017  0.00  0.00    +0.030 A 
ATOM     12  C   LIG    1       -0.013   1.076   0.008  0.00  0.00    +0.010 A 
ATOM     13 CL   LIG    1       -2.690   0.840   0.019  0.00  0.00    -0.030 Cl
ATOM     14  C   LIG    1        1.185   1.786   0.000  0.00  0.00    +0.130 A 
ATOM     15  N   LIG    1        2.506   1.405  -0.013  0.00  0.00    -0.590 N 
ATOM     16  H   LIG    1        2.820   0.488  -0.021  0.00  0.00    +0.420 HD
ENDBRANCH   1  10
BRANCH   2  17
ATOM     17  C   LIG    1       -3.864   5.891   0.069  0.00  0.00    +0.410 C 
BRANCH  17  18
ATOM     18  C   LIG    1       -3.629   7.379   0.074  0.00  0.00    +0.080 C 
ATOM     19  N   LIG    1       -2.489   7.953   0.066  0.00  0.00    -0.280 NA
ATOM     20  O   LIG    1       -2.577   9.364   0.070  0.00  0.00    -0.180 OA
ATOM     21  C   LIG    1       -3.904   9.714   0.507  0.00  0.00    +0.160 C 
ATOM     22  C   LIG    1       -4.471  10.819  -0.397  0.00  0.00    +0.280 C 
ATOM     23  N   LIG    1       -4.959  10.163  -1.621  0.00  0.00    -0.620 N 
ATOM     24  C   LIG    1       -5.136   8.731  -1.365  0.00  0.00    +0.290 C 
ATOM     25  C   LIG    1       -5.208  10.781  -2.793  0.00  0.00    +0.530 C 
ATOM     26  O   LIG    1       -5.613  10.143  -3.741  0.00  0.00    -0.510 OA
ATOM     27  C   LIG    1       -4.708   8.447   0.084  0.00  0.00    +0.020 C 
BRANCH  25  28
ATOM     28  C   LIG    1       -4.983  12.265  -2.925  0.00  0.00    +0.230 C 
BRANCH  28  29
ATOM     29  O   LIG    1       -5.315  12.681  -4.251  0.00  0.00    -0.550 OA
ATOM     30  H   LIG    1       -5.194  13.628  -4.408  0.00  0.00    +0.390 HD
ENDBRANCH  28  29
ENDBRANCH  25  28
ENDBRANCH  17  18
ENDBRANCH   2  17
TORSDOF 5
