REMARK  Name = ZINCrD00000l0x9P.0
REMARK                            x       y       z     vdW  Elec       q    Type
REMARK                         _______ _______ _______ _____ _____    ______ ____
ROOT
ATOM      1  N   LIG    1       -1.110  -4.728   2.812  0.00  0.00    -0.720 N 
ATOM      2  H   LIG    1       -1.112  -4.102   3.552  0.00  0.00    +0.400 HD
ATOM      3  C   LIG    1       -1.087  -6.055   3.051  0.00  0.00    +0.510 C 
ATOM      4  O   LIG    1       -1.085  -6.838   2.124  0.00  0.00    -0.510 OA
ENDROOT
BRANCH   1   5
ATOM      5  C   LIG    1       -1.131  -4.233   1.433  0.00  0.00    +0.260 C 
BRANCH   5   6
ATOM      6  C   LIG    1       -1.153  -2.703   1.442  0.00  0.00    +0.000 C 
BRANCH   6   7
ATOM      7  C   LIG    1       -1.175  -2.185   0.002  0.00  0.00    +0.290 C 
BRANCH   7   8
ATOM      8  N   LIG    1       -1.197  -0.720   0.010  0.00  0.00    -0.630 N 
BRANCH   8   9
ATOM      9  C   LIG    1        0.002  -0.004   0.002  0.00  0.00    +0.210 A 
ATOM     10  C   LIG    1       -0.017   1.385   0.010  0.00  0.00    -0.080 A 
ATOM     11  C   LIG    1        1.171   2.090   0.002  0.00  0.00    +0.050 A 
ATOM     12  C   LIG    1        2.377   1.415  -0.013  0.00  0.00    -0.060 A 
ATOM     13  C   LIG    1        2.400   0.032  -0.021  0.00  0.00    +0.050 A 
ATOM     14  C   LIG    1        1.216  -0.679  -0.013  0.00  0.00    -0.080 A 
ENDBRANCH   8   9
BRANCH   8  16
ATOM     15  C   LIG    1       -2.936   0.249  -1.410  0.00  0.00    +0.010 C 
ATOM     16  C   LIG    1       -2.476  -0.007   0.027  0.00  0.00    +0.270 C 
ENDBRANCH   8  16
ENDBRANCH   7   8
ENDBRANCH   6   7
ENDBRANCH   5   6
ENDBRANCH   1   5
BRANCH   3  17
ATOM     17  C   LIG    1       -1.066  -6.564   4.468  0.00  0.00    +0.360 C 
BRANCH  17  18
ATOM     18  N   LIG    1       -1.044  -8.029   4.460  0.00  0.00    -0.480 N 
ATOM     19  C   LIG    1        0.060  -8.803   4.446  0.00  0.00    +0.480 A 
ATOM     20  N   LIG    1       -0.342 -10.090   4.443  0.00  0.00    -0.470 N 
ATOM     21  H   LIG    1        0.235 -10.870   4.434  0.00  0.00    +0.470 HD
ATOM     22  N   LIG    1       -1.743 -10.096   4.456  0.00  0.00    -0.260 NA
ATOM     23  S   LIG    1        1.680  -8.250   4.433  0.00  0.00    -0.560 S 
ATOM     24  C   LIG    1       -2.152  -8.856   4.473  0.00  0.00    +0.360 A 
BRANCH  24  25
ATOM     25  C   LIG    1       -3.556  -8.412   4.496  0.00  0.00    -0.170 A 
ATOM     26  C   LIG    1       -4.632  -9.229   4.502  0.00  0.00    +0.110 A 
ATOM     27  C   LIG    1       -5.847  -8.579   4.528  0.00  0.00    +0.020 A 
ATOM     28  C   LIG    1       -5.777  -7.244   4.534  0.00  0.00    +0.000 A 
ATOM     29  S   LIG    1       -4.093  -6.737   4.512  0.00  0.00    +0.150 S 
ENDBRANCH  24  25
ENDBRANCH  17  18
ENDBRANCH   3  17
TORSDOF 9
