REMARK  Name = ZINCpk00000KfKnw.2
REMARK                            x       y       z     vdW  Elec       q    Type
REMARK                         _______ _______ _______ _____ _____    ______ ____
ROOT
ATOM      1  N   LIG    1       -7.430  -1.593   0.966  0.00  0.00    -0.730 N 
ATOM      2  H   LIG    1       -7.353  -1.704   1.927  0.00  0.00    +0.400 HD
ATOM      3  C   LIG    1       -6.565  -0.797   0.308  0.00  0.00    +0.700 C 
ATOM      4  N   LIG    1       -5.593  -0.154   0.984  0.00  0.00    -0.740 N 
ATOM      5  H   LIG    1       -5.515  -0.264   1.944  0.00  0.00    +0.400 HD
ATOM      6  O   LIG    1       -6.662  -0.659  -0.896  0.00  0.00    -0.590 OA
ENDROOT
BRANCH   1   7
ATOM      7  C   LIG    1       -8.487  -2.293   0.231  0.00  0.00    +0.290 C 
BRANCH   7  13
ATOM      8  C   LIG    1      -11.466  -2.489   4.143  0.00  0.00    +0.190 C 
ATOM      9  N   LIG    1      -10.683  -3.261   3.169  0.00  0.00    -0.550 NA
ATOM     10  C   LIG    1       -9.735  -4.156   3.847  0.00  0.00    +0.170 C 
ATOM     11  C   LIG    1       -8.997  -4.998   2.803  0.00  0.00    +0.180 C 
ATOM     12  N   LIG    1       -8.299  -4.109   1.864  0.00  0.00    -0.540 NA
ATOM     13  C   LIG    1       -9.248  -3.215   1.186  0.00  0.00    +0.140 C 
ATOM     14  C   LIG    1       -7.517  -4.882   0.890  0.00  0.00    +0.190 C 
ATOM     15  C   LIG    1       -9.985  -2.372   2.230  0.00  0.00    +0.180 C 
ENDBRANCH   7  13
ENDBRANCH   1   7
BRANCH   4  16
ATOM     16  C   LIG    1       -4.652   0.712   0.268  0.00  0.00    +0.310 C 
BRANCH  16  17
ATOM     17  C   LIG    1       -3.658   1.317   1.261  0.00  0.00    -0.030 C 
ATOM     18  C   LIG    1       -3.667   2.838   1.435  0.00  0.00    +0.040 C 
ATOM     19  C   LIG    1       -2.521   2.159   0.695  0.00  0.00    -0.080 C 
ATOM     20  C   LIG    1       -1.106   2.098   1.301  0.00  0.00    +0.080 C 
ATOM     21  C   LIG    1       -0.268   1.573   0.114  0.00  0.00    +0.080 C 
ATOM     22  C   LIG    1       -1.027   1.992  -1.128  0.00  0.00    -0.090 A 
ATOM     23  C   LIG    1       -0.614   2.071  -2.447  0.00  0.00    +0.010 A 
ATOM     24  C   LIG    1       -1.495   2.484  -3.428  0.00  0.00    +0.000 A 
ATOM     25  C   LIG    1       -2.793   2.820  -3.092  0.00  0.00    +0.000 A 
ATOM     26  C   LIG    1       -3.207   2.742  -1.777  0.00  0.00    +0.020 A 
ATOM     27  C   LIG    1       -2.327   2.328  -0.791  0.00  0.00    -0.060 A 
ENDBRANCH  16  17
ENDBRANCH   4  16
TORSDOF 4
