REMARK  Name = ZINCvU0000000I6D.0
REMARK                            x       y       z     vdW  Elec       q    Type
REMARK                         _______ _______ _______ _____ _____    ______ ____
ROOT
ATOM      1  C   LIG    1        4.234   2.280   1.318  0.00  0.00    +0.060 C 
ATOM      2  C   LIG    1        3.607   1.823  -0.001  0.00  0.00    +0.170 C 
ENDROOT
BRANCH   2   3
ATOM      3  C   LIG    1        4.638   1.088  -0.819  0.00  0.00    +0.520 C 
ATOM      4  N   LIG    1        5.771   1.713  -1.195  0.00  0.00    -0.670 N 
ATOM      5  H   LIG    1        5.957   2.611  -0.880  0.00  0.00    +0.410 HD
ATOM      6  O   LIG    1        4.448  -0.067  -1.137  0.00  0.00    -0.490 OA
BRANCH   4   7
ATOM      7  C   LIG    1        6.679   1.066  -2.041  0.00  0.00    +0.140 A 
ATOM      8  C   LIG    1        8.040   1.307  -1.915  0.00  0.00    -0.010 A 
ATOM      9  C   LIG    1        8.934   0.663  -2.748  0.00  0.00    +0.030 A 
ATOM     10  C   LIG    1        8.474  -0.213  -3.713  0.00  0.00    -0.080 A 
ATOM     11  C   LIG    1        7.118  -0.451  -3.845  0.00  0.00    +0.040 A 
ATOM     12  C   LIG    1        6.219   0.186  -3.012  0.00  0.00    +0.010 A 
BRANCH  10  13
ATOM     13  C   LIG    1        9.452  -0.910  -4.624  0.00  0.00    -0.030 C 
ATOM     14  C   LIG    1        9.322  -2.424  -4.449  0.00  0.00    +0.040 C 
ATOM     15  C   LIG    1       10.876  -0.475  -4.272  0.00  0.00    +0.030 C 
ATOM     16  C   LIG    1        9.150  -0.537  -6.077  0.00  0.00    +0.040 C 
ENDBRANCH  10  13
ENDBRANCH   4   7
ENDBRANCH   2   3
BRANCH   2  17
ATOM     17  O   LIG    1        2.506   0.954   0.271  0.00  0.00    -0.270 OA
BRANCH  17  18
ATOM     18  C   LIG    1        1.306   1.539   0.518  0.00  0.00    +0.200 A 
ATOM     19  C   LIG    1        0.170   0.747   0.673  0.00  0.00    +0.000 A 
ATOM     20  C   LIG    1       -1.043   1.320   0.922  0.00  0.00    +0.140 A 
ATOM     21  C   LIG    1       -1.148   2.712   1.022  0.00  0.00    -0.180 A 
ATOM     22  C   LIG    1       -0.003   3.517   0.872  0.00  0.00    +0.200 A 
ATOM     23  O   LIG    1       -0.107   4.859   0.975  0.00  0.00    -0.260 OA
ATOM     24  C   LIG    1       -1.284   5.454   1.225  0.00  0.00    +0.510 A 
ATOM     25  C   LIG    1       -2.469   4.708   1.392  0.00  0.00    +0.000 A 
ATOM     26  O   LIG    1       -1.330   6.668   1.309  0.00  0.00    -0.440 OA
ATOM     27  C   LIG    1       -2.436   3.354   1.289  0.00  0.00    -0.060 A 
ATOM     28  C   LIG    1        1.221   2.919   0.614  0.00  0.00    -0.070 A 
BRANCH  27  29
ATOM     29  C   LIG    1       -3.689   2.534   1.463  0.00  0.00    +0.510 C 
ATOM     30  F   LIG    1       -3.529   1.662   2.544  0.00  0.00    -0.160 F 
ATOM     31  F   LIG    1       -3.927   1.795   0.299  0.00  0.00    -0.160 F 
ATOM     32  F   LIG    1       -4.773   3.384   1.706  0.00  0.00    -0.160 F 
ENDBRANCH  27  29
ENDBRANCH  17  18
ENDBRANCH   2  17
TORSDOF 6
