REMARK  Name = ZINCtj0000001y4G.1
REMARK                            x       y       z     vdW  Elec       q    Type
REMARK                         _______ _______ _______ _____ _____    ______ ____
ROOT
ATOM      1  C   LIG    1       -3.632  11.614  -1.850  0.00  0.00    +0.230 C 
ATOM      2  C   LIG    1       -4.742  11.991  -2.854  0.00  0.00    +0.050 C 
ATOM      3  C   LIG    1       -5.515  10.658  -3.035  0.00  0.00    +0.050 C 
ATOM      4  C   LIG    1       -4.364   9.620  -2.952  0.00  0.00    +0.270 C 
ATOM      5  N   LIG    1       -3.448  10.157  -1.930  0.00  0.00    -0.610 N 
ATOM      6  C   LIG    1       -2.582   9.433  -1.194  0.00  0.00    +0.540 C 
ATOM      7  O   LIG    1       -1.869   9.984  -0.381  0.00  0.00    -0.520 OA
ENDROOT
BRANCH   1  14
ATOM      8  C   LIG    1       -6.774  16.637   0.163  0.00  0.00    +0.330 C 
ATOM      9  N   LIG    1       -5.628  15.718   0.184  0.00  0.00    -0.390 N 
ATOM     10  C   LIG    1       -5.919  14.598   1.088  0.00  0.00    +0.260 C 
ATOM     11  C   LIG    1       -4.683  13.699   1.200  0.00  0.00    +0.330 C 
ATOM     12  N   LIG    1       -4.274  13.297  -0.155  0.00  0.00    -0.640 N 
ATOM     13  C   LIG    1       -4.113  14.348  -1.171  0.00  0.00    +0.310 C 
ATOM     14  C   LIG    1       -4.050  12.002  -0.455  0.00  0.00    +0.520 C 
ATOM     15  O   LIG    1       -4.183  11.150   0.397  0.00  0.00    -0.480 OA
ATOM     16  C   LIG    1       -5.381  15.215  -1.173  0.00  0.00    +0.260 C 
ATOM     17  H   LIG    1       -4.811  16.210   0.513  0.00  0.00    +0.430 HD
ENDBRANCH   1  14
BRANCH   6  18
ATOM     18  C   LIG    1       -2.498   7.940  -1.380  0.00  0.00    +0.070 C 
BRANCH  18  19
ATOM     19  C   LIG    1       -1.445   7.366  -0.431  0.00  0.00    +0.080 C 
BRANCH  19  20
ATOM     20  C   LIG    1       -1.450   5.839  -0.528  0.00  0.00    +0.010 C 
ATOM     21  C   LIG    1       -0.992   5.417  -1.924  0.00  0.00    +0.100 C 
ATOM     22  C   LIG    1       -0.719   3.935  -1.942  0.00  0.00    -0.130 A 
ATOM     23  C   LIG    1       -0.954   3.204  -3.091  0.00  0.00    +0.050 A 
ATOM     24  C   LIG    1       -0.689   1.847  -3.114  0.00  0.00    -0.010 A 
ATOM     25  C   LIG    1       -0.183   1.219  -1.991  0.00  0.00    +0.040 A 
ATOM     26  C   LIG    1        0.048   1.944  -0.838  0.00  0.00    -0.020 A 
ATOM     27  C   LIG    1       -0.220   3.306  -0.810  0.00  0.00    +0.160 A 
ATOM     28  N   LIG    1       -0.002   4.036   0.362  0.00  0.00    -0.660 N 
ATOM     29  H   LIG    1        0.528   3.649   1.077  0.00  0.00    +0.410 HD
ATOM     30  C   LIG    1       -0.518   5.269   0.509  0.00  0.00    +0.520 C 
ATOM     31  O   LIG    1       -0.231   5.927   1.486  0.00  0.00    -0.520 OA
ENDBRANCH  19  20
ENDBRANCH  18  19
ENDBRANCH   6  18
TORSDOF 4
