REMARK  Name = ZINCqH00000059j8.0
REMARK                            x       y       z     vdW  Elec       q    Type
REMARK                         _______ _______ _______ _____ _____    ______ ____
ROOT
ATOM      1  C   LIG    1        3.538   3.658  -0.407  0.00  0.00    +0.500 C 
ATOM      2  N   LIG    1        2.889   2.549  -0.813  0.00  0.00    -0.720 N 
ATOM      3  H   LIG    1        3.183   2.078  -1.609  0.00  0.00    +0.400 HD
ATOM      4  O   LIG    1        3.171   4.246   0.588  0.00  0.00    -0.520 OA
ENDROOT
BRANCH   2   5
ATOM      5  C   LIG    1        1.739   2.053  -0.052  0.00  0.00    +0.290 C 
ATOM      6  C   LIG    1        1.582   0.554  -0.297  0.00  0.00    +0.020 C 
ATOM      7  C   LIG    1        0.257   0.099   0.327  0.00  0.00    +0.030 C 
ATOM      8  C   LIG    1       -0.889   0.680  -0.498  0.00  0.00    +0.080 C 
ATOM      9  C   LIG    1       -0.707   2.164  -0.685  0.00  0.00    -0.070 A 
ATOM     10  C   LIG    1       -1.813   2.905  -1.082  0.00  0.00    +0.020 A 
ATOM     11  C   LIG    1       -1.713   4.268  -1.268  0.00  0.00    +0.020 A 
ATOM     12  C   LIG    1       -0.498   4.901  -1.070  0.00  0.00    -0.040 A 
ATOM     13  C   LIG    1        0.603   4.164  -0.680  0.00  0.00    +0.050 A 
ATOM     14 CL   LIG    1       -0.359   6.615  -1.311  0.00  0.00    -0.070 Cl
ATOM     15  C   LIG    1        0.501   2.794  -0.484  0.00  0.00    -0.090 A 
ENDBRANCH   2   5
BRANCH   1  16
ATOM     16  C   LIG    1        4.721   4.167  -1.190  0.00  0.00    +0.330 C 
BRANCH  16  18
ATOM     17  C   LIG    1        6.285   5.267   0.479  0.00  0.00    +0.300 C 
ATOM     18  N   LIG    1        5.247   5.375  -0.549  0.00  0.00    -0.600 N 
ATOM     19  C   LIG    1        4.775   6.587  -0.905  0.00  0.00    +0.570 C 
ATOM     20  O   LIG    1        3.828   6.672  -1.663  0.00  0.00    -0.520 OA
BRANCH  19  21
ATOM     21  C   LIG    1        5.409   7.811  -0.375  0.00  0.00    -0.150 A 
ATOM     22  C   LIG    1        6.710   7.764   0.130  0.00  0.00    +0.080 A 
ATOM     23  C   LIG    1        7.299   8.911   0.619  0.00  0.00    -0.020 A 
ATOM     24  C   LIG    1        6.597  10.107   0.620  0.00  0.00    +0.130 A 
ATOM     25  C   LIG    1        5.303  10.158   0.125  0.00  0.00    -0.020 A 
ATOM     26  F   LIG    1        7.177  11.227   1.105  0.00  0.00    -0.130 F 
ATOM     27  C   LIG    1        4.707   9.018  -0.372  0.00  0.00    +0.110 A 
ENDBRANCH  19  21
ENDBRANCH  16  18
ENDBRANCH   1  16
TORSDOF 4
