REMARK  Name = ZINCrD000000fHTe.0
REMARK                            x       y       z     vdW  Elec       q    Type
REMARK                         _______ _______ _______ _____ _____    ______ ____
ROOT
ATOM      1  C   LIG    1       -2.091   0.227  -0.694  0.00  0.00    +0.570 C 
ATOM      2  N   LIG    1       -2.243  -0.712   0.260  0.00  0.00    -0.670 N 
ATOM      3  H   LIG    1       -1.590  -0.790   0.973  0.00  0.00    +0.410 HD
ATOM      4  O   LIG    1       -2.955   0.385  -1.535  0.00  0.00    -0.500 OA
ENDROOT
BRANCH   2   5
ATOM      5  C   LIG    1       -3.346  -1.576   0.223  0.00  0.00    +0.140 A 
ATOM      6  C   LIG    1       -3.153  -2.915   0.139  0.00  0.00    +0.220 A 
ATOM      7  N   LIG    1       -4.220  -3.767   0.103  0.00  0.00    -0.380 N 
ATOM      8  C   LIG    1       -5.502  -3.280   0.151  0.00  0.00    +0.190 A 
ATOM      9  C   LIG    1       -5.721  -1.891   0.238  0.00  0.00    +0.100 A 
ATOM     10  N   LIG    1       -6.312  -4.325   0.099  0.00  0.00    -0.280 NA
ATOM     11  N   LIG    1       -5.615  -5.404   0.024  0.00  0.00    -0.240 NA
ATOM     12  C   LIG    1       -4.338  -5.120   0.023  0.00  0.00    +0.160 A 
ATOM     13  C   LIG    1       -4.654  -1.050   0.279  0.00  0.00    +0.070 A 
BRANCH  12  14
ATOM     14  C   LIG    1       -3.204  -6.110  -0.053  0.00  0.00    +0.080 C 
ATOM     15  C   LIG    1       -3.473  -7.282  -1.011  0.00  0.00    +0.050 C 
ATOM     16  C   LIG    1       -2.803  -8.188   0.039  0.00  0.00    +0.020 C 
ATOM     17  C   LIG    1       -3.209  -7.140   1.089  0.00  0.00    +0.040 C 
ENDBRANCH  12  14
ENDBRANCH   2   5
BRANCH   1  20
ATOM     18  C   LIG    1        0.429   2.819  -1.725  0.00  0.00    +0.110 A 
ATOM     19  C   LIG    1       -0.716   2.041  -1.704  0.00  0.00    +0.120 A 
ATOM     20  C   LIG    1       -0.874   1.064  -0.719  0.00  0.00    -0.130 A 
ATOM     21  C   LIG    1        0.119   0.884   0.246  0.00  0.00    +0.060 A 
ATOM     22  C   LIG    1        1.257   1.663   0.218  0.00  0.00    +0.020 A 
ATOM     23  C   LIG    1        1.417   2.628  -0.762  0.00  0.00    +0.100 A 
ATOM     24  F   LIG    1        2.534   3.388  -0.784  0.00  0.00    -0.130 F 
BRANCH  18  27
ATOM     25  C   LIG    1       -0.308   5.293  -4.465  0.00  0.00    +0.110 C 
ATOM     26  C   LIG    1       -0.485   4.336  -3.315  0.00  0.00    +0.510 C 
ATOM     27  N   LIG    1        0.594   3.797  -2.714  0.00  0.00    -0.670 N 
ATOM     28  H   LIG    1        1.484   4.085  -2.967  0.00  0.00    +0.420 HD
ATOM     29  O   LIG    1       -1.600   4.051  -2.930  0.00  0.00    -0.510 OA
ENDBRANCH  18  27
ENDBRANCH   1  20
TORSDOF 4
