REMARK  Name = ZINCkj00000dEizO.0
REMARK                            x       y       z     vdW  Elec       q    Type
REMARK                         _______ _______ _______ _____ _____    ______ ____
ROOT
ATOM      1  O   LIG    1        1.353   3.614  -1.538  0.00  0.00    -0.570 OA
ATOM      2  C   LIG    1        1.970   2.868  -0.802  0.00  0.00    +0.700 C 
ATOM      3  N   LIG    1        3.309   2.858  -0.719  0.00  0.00    -0.740 N 
ATOM      4  H   LIG    1        3.911   3.382  -1.271  0.00  0.00    +0.440 HD
ATOM      5  C   LIG    1        3.721   1.927   0.345  0.00  0.00    +0.280 C 
ATOM      6  C   LIG    1        2.391   1.427   0.929  0.00  0.00    +0.230 C 
ATOM      7  C   LIG    1        2.294  -0.098   0.836  0.00  0.00    +0.220 C 
ATOM      8  N   LIG    1        0.895  -0.495   1.057  0.00  0.00    -0.530 NA
ATOM      9  C   LIG    1        0.002  -0.004   0.002  0.00  0.00    +0.210 C 
ATOM     10  C   LIG    1       -0.019   1.533   0.011  0.00  0.00    +0.360 C 
ATOM     11  N   LIG    1        1.381   1.981  -0.001  0.00  0.00    -0.640 N 
ENDROOT
BRANCH   8  12
ATOM     12  C   LIG    1        0.785  -1.875   1.202  0.00  0.00    +0.280 C 
ATOM     13  C   LIG    1        1.151  -2.734   0.166  0.00  0.00    +0.020 C 
ATOM     14  C   LIG    1        1.027  -4.096   0.349  0.00  0.00    +0.400 C 
ATOM     15  N   LIG    1        0.569  -4.586   1.486  0.00  0.00    -0.450 NA
ATOM     16  C   LIG    1        0.213  -3.806   2.489  0.00  0.00    +0.420 C 
ATOM     17  H   LIG    1        0.493  -5.548   1.587  0.00  0.00    +0.460 HD
ATOM     18  C   LIG    1        0.311  -2.435   2.388  0.00  0.00    -0.190 C 
BRANCH  18  19
ATOM     19  C   LIG    1       -0.092  -1.553   3.542  0.00  0.00    +0.530 C 
ATOM     20  F   LIG    1       -1.128  -0.703   3.138  0.00  0.00    -0.150 F 
ATOM     21  F   LIG    1        1.006  -0.788   3.950  0.00  0.00    -0.150 F 
ATOM     22  F   LIG    1       -0.529  -2.348   4.606  0.00  0.00    -0.170 F 
ENDBRANCH  18  19
ENDBRANCH   8  12
TORSDOF 2
