REMARK  Name = ZINCvU00000009OD.0
REMARK                            x       y       z     vdW  Elec       q    Type
REMARK                         _______ _______ _______ _____ _____    ______ ____
ROOT
ATOM      1  C   LIG    1        1.154   3.171   0.007  0.00  0.00    +0.150 A 
ATOM      2  C   LIG    1       -0.030   3.873   0.022  0.00  0.00    -0.010 A 
ATOM      3  C   LIG    1       -1.249   3.176   0.031  0.00  0.00    +0.190 A 
ATOM      4  N   LIG    1       -2.414   3.835   0.045  0.00  0.00    -0.500 NA
ATOM      5  C   LIG    1       -3.570   3.199   0.053  0.00  0.00    +0.140 A 
ATOM      6  C   LIG    1       -3.638   1.802   0.047  0.00  0.00    -0.020 A 
ATOM      7  C   LIG    1       -2.469   1.060   0.032  0.00  0.00    +0.050 A 
ATOM      8  C   LIG    1       -1.234   1.761   0.017  0.00  0.00    -0.130 A 
ATOM      9  C   LIG    1       -0.013   1.076   0.008  0.00  0.00    +0.090 A 
ATOM     10  C   LIG    1        1.157   1.774   0.001  0.00  0.00    -0.060 A 
ENDROOT
BRANCH   7  11
ATOM     11  C   LIG    1       -2.505  -0.421   0.026  0.00  0.00    -0.060 A 
ATOM     12  C   LIG    1       -1.760  -1.136  -0.913  0.00  0.00    +0.030 A 
ATOM     13  C   LIG    1       -1.794  -2.515  -0.910  0.00  0.00    +0.010 A 
ATOM     14  C   LIG    1       -2.572  -3.189   0.014  0.00  0.00    +0.020 A 
ATOM     15  C   LIG    1       -3.317  -2.486   0.944  0.00  0.00    +0.010 A 
ATOM     16  C   LIG    1       -3.287  -1.107   0.955  0.00  0.00    +0.030 A 
ENDBRANCH   7  11
BRANCH   1  18
ATOM     17  C   LIG    1        3.529   3.061  -0.016  0.00  0.00    +0.240 C 
ATOM     18  O   LIG    1        2.334   3.845  -0.001  0.00  0.00    -0.310 OA
ENDBRANCH   1  18
BRANCH   5  19
ATOM     19  S   LIG    1       -5.064   4.132   0.073  0.00  0.00    +0.070 S 
BRANCH  19  20
ATOM     20  C   LIG    1       -4.387   5.811   0.075  0.00  0.00    +0.170 C 
BRANCH  20  21
ATOM     21  C   LIG    1       -5.516   6.808   0.091  0.00  0.00    +0.460 A 
ATOM     22  N   LIG    1       -6.739   6.356   0.100  0.00  0.00    -0.590 NA
ATOM     23  C   LIG    1       -7.801   7.185   0.115  0.00  0.00    +0.540 A 
ATOM     24  C   LIG    1       -7.547   8.637   0.120  0.00  0.00    -0.210 A 
ATOM     25  C   LIG    1       -8.582   9.569   0.135  0.00  0.00    +0.110 A 
ATOM     26  C   LIG    1       -8.282  10.914   0.140  0.00  0.00    -0.010 A 
ATOM     27  C   LIG    1       -6.962  11.341   0.129  0.00  0.00    +0.080 A 
ATOM     28  C   LIG    1       -5.927  10.430   0.114  0.00  0.00    -0.020 A 
ATOM     29  C   LIG    1       -6.208   9.070   0.109  0.00  0.00    +0.180 A 
ATOM     30  O   LIG    1       -8.938   6.747   0.123  0.00  0.00    -0.470 OA
ATOM     31  N   LIG    1       -5.210   8.117   0.100  0.00  0.00    -0.620 N 
ATOM     32  H   LIG    1       -4.280   8.394   0.096  0.00  0.00    +0.420 HD
ENDBRANCH  20  21
ENDBRANCH  19  20
ENDBRANCH   5  19
TORSDOF 5
