REMARK  Name = ZINCvU00000009PM.0
REMARK                            x       y       z     vdW  Elec       q    Type
REMARK                         _______ _______ _______ _____ _____    ______ ____
ROOT
ATOM      1  C   LIG    1        3.711  -0.707  -0.037  0.00  0.00    +0.310 C 
ENDROOT
BRANCH   1   2
ATOM      2  C   LIG    1        4.256  -0.730  -1.441  0.00  0.00    +0.150 A 
ATOM      3  N   LIG    1        4.790   0.352  -1.957  0.00  0.00    -0.460 NA
ATOM      4  C   LIG    1        5.286   0.392  -3.186  0.00  0.00    +0.230 A 
ATOM      5  C   LIG    1        5.275  -0.698  -4.002  0.00  0.00    +0.000 A 
ATOM      6  C   LIG    1        4.718  -1.897  -3.520  0.00  0.00    -0.030 A 
ATOM      7  C   LIG    1        4.668  -3.063  -4.295  0.00  0.00    +0.020 A 
ATOM      8  C   LIG    1        4.130  -4.198  -3.766  0.00  0.00    +0.030 A 
ATOM      9  C   LIG    1        3.616  -4.212  -2.471  0.00  0.00    +0.020 A 
ATOM     10  C   LIG    1        3.644  -3.096  -1.691  0.00  0.00    +0.040 A 
ATOM     11  C   LIG    1        4.200  -1.911  -2.198  0.00  0.00    -0.090 A 
ENDBRANCH   1   2
BRANCH   1  15
ATOM     12  C   LIG    1       -0.017   1.383   0.010  0.00  0.00    +0.140 A 
ATOM     13  C   LIG    1        1.177   2.091   0.002  0.00  0.00    -0.080 A 
ATOM     14  C   LIG    1        2.380   1.413  -0.013  0.00  0.00    +0.110 A 
ATOM     15  C   LIG    1        2.396   0.030  -0.021  0.00  0.00    -0.140 A 
ATOM     16  C   LIG    1        1.208  -0.677  -0.013  0.00  0.00    +0.070 A 
ATOM     17  C   LIG    1        0.002  -0.004   0.002  0.00  0.00    -0.010 A 
BRANCH  12  19
ATOM     18  C   LIG    1       -1.145   3.475   0.026  0.00  0.00    +0.250 C 
ATOM     19  O   LIG    1       -1.202   2.048   0.019  0.00  0.00    -0.320 OA
ENDBRANCH  12  19
ENDBRANCH   1  15
BRANCH   1  20
ATOM     20  O   LIG    1        4.654  -0.033   0.838  0.00  0.00    -0.320 OA
BRANCH  20  21
ATOM     21  C   LIG    1        5.590  -0.798   1.433  0.00  0.00    +0.510 C 
ATOM     22  O   LIG    1        5.617  -1.994   1.227  0.00  0.00    -0.490 OA
BRANCH  21  23
ATOM     23  C   LIG    1        6.583  -0.181   2.336  0.00  0.00    -0.120 A 
ATOM     24  C   LIG    1        6.558   1.195   2.571  0.00  0.00    +0.150 A 
ATOM     25  C   LIG    1        7.484   1.764   3.420  0.00  0.00    +0.030 A 
ATOM     26  C   LIG    1        8.444   0.976   4.029  0.00  0.00    +0.140 A 
ATOM     27  C   LIG    1        8.478  -0.388   3.797  0.00  0.00    -0.050 A 
ATOM     28  C   LIG    1        7.554  -0.971   2.955  0.00  0.00    +0.180 A 
BRANCH  27  29
ATOM     29  N   LIG    1        9.509  -1.224   4.453  0.00  0.00    +0.030 N 
ATOM     30  O   LIG    1       10.326  -0.711   5.197  0.00  0.00    -0.150 OA
ATOM     31  O   LIG    1        9.540  -2.424   4.249  0.00  0.00    -0.150 OA
ENDBRANCH  27  29
ENDBRANCH  21  23
ENDBRANCH  20  21
ENDBRANCH   1  20
TORSDOF 7
