REMARK  Name = ZINCrH000004uFcz.0
REMARK                            x       y       z     vdW  Elec       q    Type
REMARK                         _______ _______ _______ _____ _____    ______ ____
ROOT
ATOM      1  C   LIG    1       -3.432   3.440  -0.472  0.00  0.00    -0.010 C 
ATOM      2  C   LIG    1       -3.397   1.928  -0.706  0.00  0.00    +0.060 C 
ATOM      3  C   LIG    1       -2.444   1.281   0.304  0.00  0.00    +0.280 C 
ATOM      4  N   LIG    1       -1.133   1.938   0.205  0.00  0.00    -0.610 N 
ATOM      5  C   LIG    1       -1.064   3.400   0.331  0.00  0.00    +0.270 C 
ATOM      6  C   LIG    1       -0.014   1.212   0.009  0.00  0.00    +0.580 C 
ATOM      7  O   LIG    1       -0.093   0.015  -0.190  0.00  0.00    -0.530 OA
ATOM      8  C   LIG    1       -2.033   4.024  -0.685  0.00  0.00    +0.030 C 
ENDROOT
BRANCH   6   9
ATOM      9  C   LIG    1        1.302   1.869   0.029  0.00  0.00    -0.140 A 
ATOM     10  C   LIG    1        1.670   2.767   0.977  0.00  0.00    -0.050 A 
ATOM     11  S   LIG    1        3.254   3.326   0.701  0.00  0.00    +0.190 S 
ATOM     12  C   LIG    1        3.438   2.337  -0.739  0.00  0.00    -0.200 A 
ATOM     13  C   LIG    1        4.678   2.290  -1.610  0.00  0.00    +0.110 C 
ATOM     14  C   LIG    1        4.612   1.040  -2.492  0.00  0.00    +0.020 C 
ATOM     15  C   LIG    1        3.245   0.986  -3.180  0.00  0.00    +0.020 C 
ATOM     16  C   LIG    1        2.169   0.669  -2.138  0.00  0.00    +0.100 C 
ATOM     17  C   LIG    1        2.327   1.624  -0.966  0.00  0.00    -0.060 A 
ENDBRANCH   6   9
BRANCH   1  19
ATOM     18  O   LIG    1       -4.993   3.388  -2.241  0.00  0.00    -0.530 OA
ATOM     19  C   LIG    1       -4.394   4.076  -1.442  0.00  0.00    +0.520 C 
ATOM     20  N   LIG    1       -4.590   5.410  -1.421  0.00  0.00    -0.730 N 
ATOM     21  H   LIG    1       -4.111   5.960  -0.781  0.00  0.00    +0.400 HD
BRANCH  20  22
ATOM     22  C   LIG    1       -5.525   6.028  -2.364  0.00  0.00    +0.320 C 
BRANCH  22  23
ATOM     23  C   LIG    1       -5.560   7.517  -2.134  0.00  0.00    -0.110 A 
ATOM     24  C   LIG    1       -6.469   8.057  -1.244  0.00  0.00    +0.020 A 
ATOM     25  C   LIG    1       -6.498   9.422  -1.029  0.00  0.00    +0.010 A 
ATOM     26  C   LIG    1       -5.624  10.248  -1.712  0.00  0.00    +0.010 A 
ATOM     27  C   LIG    1       -4.719   9.708  -2.606  0.00  0.00    +0.010 A 
ATOM     28  C   LIG    1       -4.686   8.342  -2.817  0.00  0.00    +0.020 A 
ENDBRANCH  22  23
ENDBRANCH  20  22
ENDBRANCH   1  19
TORSDOF 4
