REMARK  Name = ZINCrg000000nGY0.0
REMARK                            x       y       z     vdW  Elec       q    Type
REMARK                         _______ _______ _______ _____ _____    ______ ____
ROOT
ATOM      1  C   LIG    1       -2.121   7.346   5.877  0.00  0.00    +0.330 C 
ATOM      2  N   LIG    1       -3.414   7.508   5.908  0.00  0.00    -0.260 NA
ATOM      3  N   LIG    1       -4.088   7.664   7.124  0.00  0.00    -0.400 N 
ATOM      4  C   LIG    1       -3.414   7.955   8.255  0.00  0.00    +0.490 C 
ATOM      5  C   LIG    1       -1.916   8.135   8.200  0.00  0.00    +0.270 C 
ATOM      6  C   LIG    1       -1.580   9.612   7.983  0.00  0.00    +0.060 C 
ATOM      7  O   LIG    1       -4.006   8.071   9.307  0.00  0.00    -0.500 OA
ATOM      8  N   LIG    1       -1.401   7.332   7.076  0.00  0.00    -0.740 N 
ATOM      9  H   LIG    1       -0.588   6.811   7.163  0.00  0.00    +0.420 HD
ENDROOT
BRANCH   3  10
ATOM     10  C   LIG    1       -5.479   7.516   7.167  0.00  0.00    +0.150 A 
ATOM     11  C   LIG    1       -6.061   6.681   8.113  0.00  0.00    +0.020 A 
ATOM     12  C   LIG    1       -7.434   6.542   8.157  0.00  0.00    +0.020 A 
ATOM     13  C   LIG    1       -8.229   7.223   7.253  0.00  0.00    +0.010 A 
ATOM     14  C   LIG    1       -7.653   8.050   6.306  0.00  0.00    +0.020 A 
ATOM     15  C   LIG    1       -6.281   8.198   6.261  0.00  0.00    +0.020 A 
ENDBRANCH   3  10
BRANCH   1  17
ATOM     16  N   LIG    1       -2.099   7.320   3.433  0.00  0.00    -0.570 N 
ATOM     17  C   LIG    1       -1.424   7.173   4.590  0.00  0.00    +0.590 C 
ATOM     18  O   LIG    1       -0.240   6.897   4.571  0.00  0.00    -0.520 OA
BRANCH  16  19
ATOM     19  C   LIG    1       -1.388   7.241   2.154  0.00  0.00    +0.340 C 
BRANCH  19  22
ATOM     20  N   LIG    1       -0.775   5.498   0.509  0.00  0.00    -0.730 N 
ATOM     21  H   LIG    1       -0.348   6.191  -0.018  0.00  0.00    +0.400 HD
ATOM     22  C   LIG    1       -1.378   5.812   1.673  0.00  0.00    +0.500 C 
ATOM     23  O   LIG    1       -1.911   4.946   2.333  0.00  0.00    -0.520 OA
BRANCH  20  24
ATOM     24  C   LIG    1       -0.765   4.109   0.042  0.00  0.00    +0.260 C 
BRANCH  24  26
ATOM     25  C   LIG    1       -0.011   2.576  -1.781  0.00  0.00    +0.030 C 
ATOM     26  C   LIG    1       -0.022   4.026  -1.293  0.00  0.00    +0.000 C 
ENDBRANCH  24  26
ENDBRANCH  20  24
ENDBRANCH  19  22
ENDBRANCH  16  19
BRANCH  16  27
ATOM     27  C   LIG    1       -3.545   7.560   3.453  0.00  0.00    +0.300 C 
BRANCH  27  28
ATOM     28  C   LIG    1       -4.280   6.227   3.603  0.00  0.00    +0.000 C 
ATOM     29  C   LIG    1       -5.788   6.460   3.482  0.00  0.00    +0.010 C 
ENDBRANCH  27  28
ENDBRANCH  16  27
ENDBRANCH   1  17
TORSDOF 8
