REMARK  Name = ZINCpk00000xI8BS.0
REMARK                            x       y       z     vdW  Elec       q    Type
REMARK                         _______ _______ _______ _____ _____    ______ ____
ROOT
ATOM      1  N   LIG    1       -2.557   2.994   0.602  0.00  0.00    -0.540 NA
ATOM      2  C   LIG    1       -1.183   2.999   1.101  0.00  0.00    +0.180 C 
ATOM      3  C   LIG    1       -0.720   1.572   1.286  0.00  0.00    +0.030 C 
ATOM      4  C   LIG    1       -0.012   1.088   0.009  0.00  0.00    +0.270 C 
ATOM      5  N   LIG    1       -0.709   1.563  -1.202  0.00  0.00    -0.600 N 
ATOM      6  C   LIG    1       -2.154   1.566  -1.319  0.00  0.00    +0.290 C 
ATOM      7  C   LIG    1        0.025   2.011  -2.239  0.00  0.00    +0.540 C 
ATOM      8  O   LIG    1        1.234   2.101  -2.135  0.00  0.00    -0.540 OA
ATOM      9  C   LIG    1       -2.716   2.912  -0.801  0.00  0.00    +0.170 C 
ENDROOT
BRANCH   7  10
ATOM     10  C   LIG    1       -0.632   2.392  -3.494  0.00  0.00    -0.070 C 
ATOM     11  C   LIG    1        0.108   2.740  -4.563  0.00  0.00    +0.110 C 
BRANCH  11  12
ATOM     12  C   LIG    1       -0.553   3.123  -5.824  0.00  0.00    -0.030 A 
ATOM     13  C   LIG    1       -1.950   3.125  -5.934  0.00  0.00    -0.020 A 
ATOM     14  C   LIG    1       -2.526   3.495  -7.132  0.00  0.00    +0.260 A 
ATOM     15  N   LIG    1       -1.780   3.832  -8.166  0.00  0.00    -0.480 NA
ATOM     16  C   LIG    1       -0.463   3.839  -8.109  0.00  0.00    +0.260 A 
ATOM     17  C   LIG    1        0.198   3.489  -6.949  0.00  0.00    -0.010 A 
ENDBRANCH  11  12
ENDBRANCH   7  10
BRANCH   1  18
ATOM     18  C   LIG    1       -3.321   4.121   1.153  0.00  0.00    +0.200 C 
BRANCH  18  20
ATOM     19  N   LIG    1       -5.695   4.770   1.406  0.00  0.00    -0.620 N 
ATOM     20  C   LIG    1       -4.795   3.865   0.973  0.00  0.00    +0.510 C 
ATOM     21  O   LIG    1       -5.172   2.843   0.438  0.00  0.00    -0.520 OA
BRANCH  19  23
ATOM     22  C   LIG    1       -5.038   7.090   0.992  0.00  0.00    +0.020 C 
ATOM     23  C   LIG    1       -5.239   6.004   2.051  0.00  0.00    +0.260 C 
ENDBRANCH  19  23
BRANCH  19  24
ATOM     24  C   LIG    1       -7.128   4.521   1.231  0.00  0.00    +0.270 C 
ATOM     25  C   LIG    1       -7.669   3.778   2.454  0.00  0.00    +0.010 C 
ENDBRANCH  19  24
ENDBRANCH  18  20
ENDBRANCH   1  18
TORSDOF 6
