REMARK  Name = ZINCqH0000051Eeh.0
REMARK                            x       y       z     vdW  Elec       q    Type
REMARK                         _______ _______ _______ _____ _____    ______ ____
ROOT
ATOM      1  C   LIG    1        2.179   6.011   0.120  0.00  0.00    +0.370 A 
ATOM      2  N   LIG    1        2.405   5.275  -0.940  0.00  0.00    -0.530 NA
ATOM      3  C   LIG    1        2.630   5.832  -2.154  0.00  0.00    +0.170 A 
ATOM      4  C   LIG    1        2.870   5.046  -3.285  0.00  0.00    +0.030 A 
ATOM      5  C   LIG    1        3.094   5.652  -4.500  0.00  0.00    +0.070 A 
ATOM      6  C   LIG    1        3.083   7.036  -4.618  0.00  0.00    +0.000 A 
ATOM      7  C   LIG    1        2.849   7.832  -3.519  0.00  0.00    +0.100 A 
ATOM      8  C   LIG    1        2.620   7.240  -2.278  0.00  0.00    -0.200 A 
ATOM      9  C   LIG    1        2.364   8.041  -1.073  0.00  0.00    +0.560 A 
ATOM     10  O   LIG    1        2.343   9.257  -1.117  0.00  0.00    -0.490 OA
ATOM     11  N   LIG    1        2.147   7.377   0.086  0.00  0.00    -0.480 N 
ENDROOT
BRANCH  11  12
ATOM     12  C   LIG    1        1.893   8.096   1.262  0.00  0.00    +0.040 A 
ATOM     13  C   LIG    1        2.942   8.493   2.087  0.00  0.00    +0.100 A 
ATOM     14  C   LIG    1        2.641   9.202   3.239  0.00  0.00    -0.010 A 
ATOM     15  C   LIG    1        1.321   9.491   3.528  0.00  0.00    +0.290 A 
ATOM     16  N   LIG    1        0.350   9.101   2.725  0.00  0.00    -0.470 NA
ATOM     17  C   LIG    1        0.593   8.429   1.617  0.00  0.00    +0.300 A 
ENDBRANCH  11  12
BRANCH   1  18
ATOM     18  S   LIG    1        1.897   5.201   1.660  0.00  0.00    +0.030 S 
BRANCH  18  26
ATOM     19  O   LIG    1       -0.131   3.746   0.316  0.00  0.00    -0.440 OA
ATOM     20  C   LIG    1        0.932   3.183   0.203  0.00  0.00    +0.380 C 
ATOM     21  C   LIG    1        1.158   2.146  -0.921  0.00  0.00    +0.050 C 
ATOM     22  C   LIG    1        1.307   0.845  -0.267  0.00  0.00    +0.010 C 
ATOM     23  C   LIG    1        2.450   0.764   0.736  0.00  0.00    +0.030 C 
ATOM     24  C   LIG    1        1.829   1.117   2.059  0.00  0.00    +0.030 C 
ATOM     25  C   LIG    1        2.118   2.595   2.409  0.00  0.00    +0.080 C 
ATOM     26  C   LIG    1        2.041   3.474   1.138  0.00  0.00    +0.000 C 
ENDBRANCH  18  26
ENDBRANCH   1  18
TORSDOF 3
