REMARK  Name = ZINCqH0000003svw.1
REMARK                            x       y       z     vdW  Elec       q    Type
REMARK                         _______ _______ _______ _____ _____    ______ ____
ROOT
ATOM      1  N   LIG    1       -1.401   4.220   9.291  0.00  0.00    -0.670 N 
ATOM      2  H   LIG    1       -2.245   3.919   9.661  0.00  0.00    +0.430 HD
ATOM      3  C   LIG    1       -1.185   4.156   7.963  0.00  0.00    +0.510 C 
ATOM      4  O   LIG    1       -0.172   4.625   7.489  0.00  0.00    -0.500 OA
ENDROOT
BRANCH   1  10
ATOM      5  C   LIG    1       -0.756   5.287  11.370  0.00  0.00    -0.180 A 
ATOM      6  C   LIG    1        0.248   5.779  12.208  0.00  0.00    +0.100 A 
ATOM      7  C   LIG    1        1.566   5.714  11.813  0.00  0.00    -0.030 A 
ATOM      8  C   LIG    1        1.903   5.158  10.590  0.00  0.00    +0.070 A 
ATOM      9  C   LIG    1        0.923   4.663   9.753  0.00  0.00    +0.010 A 
ATOM     10  C   LIG    1       -0.410   4.719  10.134  0.00  0.00    +0.220 A 
BRANCH   5  11
ATOM     11  C   LIG    1       -2.169   5.358  11.784  0.00  0.00    +0.520 C 
ATOM     12  O   LIG    1       -3.030   4.845  11.097  0.00  0.00    -0.520 OA
BRANCH  11  13
ATOM     13  O   LIG    1       -2.506   5.992  12.925  0.00  0.00    -0.350 OA
BRANCH  13  15
ATOM     14  C   LIG    1       -4.102   6.780  14.586  0.00  0.00    +0.070 C 
ATOM     15  C   LIG    1       -3.916   6.023  13.270  0.00  0.00    +0.200 C 
ENDBRANCH  13  15
ENDBRANCH  11  13
ENDBRANCH   5  11
ENDBRANCH   1  10
BRANCH   3  16
ATOM     16  C   LIG    1       -2.204   3.503   7.065  0.00  0.00    +0.220 C 
BRANCH  16  17
ATOM     17  N   LIG    1       -1.739   3.561   5.673  0.00  0.00    -0.660 NA
ATOM     18  H   LIG    1       -1.549   4.512   5.394  0.00  0.00    +0.350 HD
BRANCH  17  19
ATOM     19  C   LIG    1       -2.709   2.932   4.767  0.00  0.00    +0.220 C 
ATOM     20  C   LIG    1       -3.783   3.952   4.382  0.00  0.00    +0.010 C 
BRANCH  19  21
ATOM     21  C   LIG    1       -2.001   2.455   3.525  0.00  0.00    -0.080 A 
ATOM     22  C   LIG    1       -2.343   1.242   2.957  0.00  0.00    +0.010 A 
ATOM     23  C   LIG    1       -1.693   0.804   1.818  0.00  0.00    +0.000 A 
ATOM     24  C   LIG    1       -0.702   1.580   1.247  0.00  0.00    -0.080 A 
ATOM     25  C   LIG    1       -0.357   2.791   1.817  0.00  0.00    +0.000 A 
ATOM     26  C   LIG    1       -1.010   3.231   2.953  0.00  0.00    +0.030 A 
BRANCH  24  27
ATOM     27  C   LIG    1        0.007   1.103   0.005  0.00  0.00    +0.050 C 
ATOM     28  C   LIG    1       -0.741   1.601  -1.232  0.00  0.00    +0.030 C 
ENDBRANCH  24  27
ENDBRANCH  19  21
ENDBRANCH  17  19
ENDBRANCH  16  17
ENDBRANCH   3  16
TORSDOF 9
