REMARK  Name = ZINCpk00000xVyFt.0
REMARK                            x       y       z     vdW  Elec       q    Type
REMARK                         _______ _______ _______ _____ _____    ______ ____
ROOT
ATOM      1  S   LIG    1        0.310  -1.577  -2.200  0.00  0.00    +2.620 S 
ATOM      2  O   LIG    1       -0.657  -2.325  -1.476  0.00  0.00    -0.930 OA
ATOM      3  O   LIG    1        1.494  -2.190  -2.689  0.00  0.00    -0.940 OA
ENDROOT
BRANCH   1   9
ATOM      4  C   LIG    1        2.197   0.134  -1.235  0.00  0.00    +0.350 C 
ATOM      5  C   LIG    1        2.069   1.660  -1.167  0.00  0.00    +0.250 C 
ATOM      6  O   LIG    1        1.325   2.018   0.000  0.00  0.00    -0.360 OA
ATOM      7  C   LIG    1       -0.019   1.529   0.010  0.00  0.00    +0.220 C 
ATOM      8  C   LIG    1        0.002  -0.004   0.002  0.00  0.00    +0.280 C 
ATOM      9  N   LIG    1        0.852  -0.451  -1.113  0.00  0.00    -1.000 NA
BRANCH   4  14
ATOM     10  C   LIG    1        5.407  -1.453  -4.775  0.00  0.00    +0.240 C 
ATOM     11  C   LIG    1        4.178  -0.945  -4.067  0.00  0.00    +0.180 A 
ATOM     12  N   LIG    1        3.034  -0.656  -4.619  0.00  0.00    -0.260 NA
ATOM     13  N   LIG    1        2.212  -0.256  -3.713  0.00  0.00    -0.300 NA
ATOM     14  C   LIG    1        2.806  -0.267  -2.554  0.00  0.00    +0.160 A 
ATOM     15  O   LIG    1        4.061  -0.705  -2.750  0.00  0.00    -0.200 OA
ENDBRANCH   4  14
ENDBRANCH   1   9
BRANCH   1  16
ATOM     16  C   LIG    1       -0.487  -0.601  -3.505  0.00  0.00    -0.220 C 
BRANCH  16  17
ATOM     17  C   LIG    1       -1.027  -1.525  -4.565  0.00  0.00    +0.130 A 
ATOM     18  N   LIG    1       -0.394  -1.935  -5.621  0.00  0.00    -0.240 NA
ATOM     19  O   LIG    1       -1.228  -2.793  -6.375  0.00  0.00    -0.080 OA
ATOM     20  C   LIG    1       -2.423  -2.906  -5.761  0.00  0.00    +0.090 A 
ATOM     21  C   LIG    1       -3.588  -3.602  -6.058  0.00  0.00    +0.020 A 
ATOM     22  C   LIG    1       -4.672  -3.515  -5.212  0.00  0.00    +0.080 A 
ATOM     23  C   LIG    1       -4.612  -2.740  -4.063  0.00  0.00    +0.000 A 
ATOM     24  C   LIG    1       -3.475  -2.048  -3.752  0.00  0.00    +0.100 A 
ATOM     25  C   LIG    1       -2.365  -2.122  -4.596  0.00  0.00    -0.200 A 
ENDBRANCH  16  17
ENDBRANCH   1  16
TORSDOF 4
