REMARK  Name = ZINCvU000000057d.0
REMARK                            x       y       z     vdW  Elec       q    Type
REMARK                         _______ _______ _______ _____ _____    ______ ____
ROOT
ATOM      1  N   LIG    1       -8.848   3.614  -0.463  0.00  0.00    -0.480 N 
ATOM      2  C   LIG    1       -9.892   4.472  -0.535  0.00  0.00    +0.560 A 
ATOM      3  C   LIG    1       -9.594   5.910  -0.508  0.00  0.00    -0.200 A 
ATOM      4  C   LIG    1      -10.601   6.871  -0.582  0.00  0.00    +0.130 A 
ATOM      5  C   LIG    1      -10.274   8.198  -0.553  0.00  0.00    +0.020 A 
ATOM      6  C   LIG    1       -8.947   8.600  -0.449  0.00  0.00    +0.010 A 
ATOM      7  C   LIG    1       -7.932   7.671  -0.373  0.00  0.00    +0.040 A 
ATOM      8 CL   LIG    1       -8.565  10.293  -0.413  0.00  0.00    -0.050 Cl
ATOM      9  C   LIG    1       -8.241   6.309  -0.402  0.00  0.00    +0.180 A 
ATOM     10  N   LIG    1       -7.277   5.362  -0.330  0.00  0.00    -0.530 NA
ATOM     11  O   LIG    1      -11.036   4.067  -0.625  0.00  0.00    -0.480 OA
ATOM     12  C   LIG    1       -7.568   4.085  -0.356  0.00  0.00    +0.370 A 
ENDROOT
BRANCH   1  19
ATOM     13  C   LIG    1       -8.869   2.304  -2.990  0.00  0.00    +0.100 C 
ATOM     14  C   LIG    1       -9.100   1.555  -1.703  0.00  0.00    -0.050 A 
ATOM     15  C   LIG    1       -9.329   0.194  -1.727  0.00  0.00    +0.030 A 
ATOM     16  C   LIG    1       -9.540  -0.495  -0.546  0.00  0.00    +0.040 A 
ATOM     17  C   LIG    1       -9.522   0.177   0.662  0.00  0.00    +0.020 A 
ATOM     18  C   LIG    1       -9.287   1.538   0.693  0.00  0.00    +0.050 A 
ATOM     19  C   LIG    1       -9.081   2.233  -0.491  0.00  0.00    +0.080 A 
ENDBRANCH   1  19
BRANCH  12  20
ATOM     20  S   LIG    1       -6.250   2.920  -0.258  0.00  0.00    +0.110 S 
BRANCH  20  21
ATOM     21  C   LIG    1       -4.840   4.049  -0.145  0.00  0.00    +0.120 C 
BRANCH  21  22
ATOM     22  C   LIG    1       -3.565   3.253  -0.048  0.00  0.00    +0.540 C 
ATOM     23  N   LIG    1       -2.379   3.887   0.046  0.00  0.00    -0.660 N 
ATOM     24  H   LIG    1       -2.351   4.854   0.113  0.00  0.00    +0.420 HD
ATOM     25  O   LIG    1       -3.605   2.041  -0.055  0.00  0.00    -0.500 OA
BRANCH  23  26
ATOM     26  C   LIG    1       -1.189   3.150   0.046  0.00  0.00    +0.110 A 
ATOM     27  C   LIG    1       -1.137   1.892   0.637  0.00  0.00    +0.100 A 
ATOM     28  C   LIG    1        0.065   1.203   0.617  0.00  0.00    +0.000 A 
ATOM     29  C   LIG    1        1.163   1.778   0.006  0.00  0.00    +0.280 A 
ATOM     30  N   LIG    1        1.081   2.971  -0.551  0.00  0.00    -0.460 NA
ATOM     31  C   LIG    1       -0.042   3.663  -0.550  0.00  0.00    +0.150 A 
ATOM     32 CL   LIG    1       -0.088   5.228  -1.299  0.00  0.00    -0.020 Cl
ENDBRANCH  23  26
ENDBRANCH  21  22
ENDBRANCH  20  21
ENDBRANCH  12  20
TORSDOF 5
