REMARK  Name = ZINCvU00000008hw.0
REMARK                            x       y       z     vdW  Elec       q    Type
REMARK                         _______ _______ _______ _____ _____    ______ ____
ROOT
ATOM      1  N   LIG    1        6.851   2.502   1.666  0.00  0.00    -0.560 N 
ATOM      2  C   LIG    1        7.446   1.340   1.333  0.00  0.00    +0.560 C 
ATOM      3  O   LIG    1        6.772   0.385   0.999  0.00  0.00    -0.490 OA
ENDROOT
BRANCH   1   8
ATOM      4  C   LIG    1       10.001   7.083   2.794  0.00  0.00    +0.090 C 
ATOM      5  C   LIG    1        9.164   5.866   2.494  0.00  0.00    -0.070 A 
ATOM      6  C   LIG    1        8.704   5.073   3.529  0.00  0.00    +0.010 A 
ATOM      7  C   LIG    1        7.932   3.960   3.258  0.00  0.00    +0.020 A 
ATOM      8  C   LIG    1        7.628   3.631   1.944  0.00  0.00    +0.110 A 
ATOM      9  C   LIG    1        8.092   4.430   0.906  0.00  0.00    -0.070 A 
ATOM     10  C   LIG    1        7.758   4.080  -0.522  0.00  0.00    +0.090 C 
ATOM     11  C   LIG    1        8.858   5.544   1.184  0.00  0.00    +0.020 A 
ENDBRANCH   1   8
BRANCH   2  12
ATOM     12  C   LIG    1        8.919   1.226   1.374  0.00  0.00    -0.100 A 
ATOM     13  C   LIG    1        9.620   1.611   2.518  0.00  0.00    +0.060 A 
ATOM     14  C   LIG    1       10.995   1.502   2.549  0.00  0.00    +0.030 A 
ATOM     15  C   LIG    1       11.680   1.012   1.451  0.00  0.00    +0.050 A 
ATOM     16  C   LIG    1       10.992   0.628   0.314  0.00  0.00    +0.040 A 
ATOM     17  C   LIG    1        9.615   0.727   0.270  0.00  0.00    -0.050 A 
ATOM     18 BR   LIG    1        8.675   0.195  -1.282  0.00  0.00    -0.030 Br
ENDBRANCH   2  12
BRANCH   1  19
ATOM     19  C   LIG    1        5.390   2.583   1.736  0.00  0.00    +0.300 C 
BRANCH  19  20
ATOM     20  C   LIG    1        4.835   2.986   0.368  0.00  0.00    +0.290 C 
BRANCH  20  21
ATOM     21  N   LIG    1        3.374   3.066   0.439  0.00  0.00    -0.570 N 
ATOM     22  C   LIG    1        2.542   2.038   0.190  0.00  0.00    +0.570 C 
ATOM     23  C   LIG    1        1.150   2.506   0.363  0.00  0.00    -0.140 A 
ATOM     24  C   LIG    1       -0.093   1.908   0.244  0.00  0.00    +0.100 A 
ATOM     25  C   LIG    1       -1.239   2.653   0.478  0.00  0.00    +0.050 A 
ATOM     26  C   LIG    1       -1.149   3.983   0.839  0.00  0.00    +0.040 A 
ATOM     27  C   LIG    1        0.089   4.596   0.961  0.00  0.00    +0.100 A 
ATOM     28  C   LIG    1        1.243   3.866   0.726  0.00  0.00    -0.140 A 
ATOM     29  O   LIG    1        2.878   0.914  -0.122  0.00  0.00    -0.450 OA
ATOM     30  C   LIG    1        2.687   4.178   0.760  0.00  0.00    +0.570 C 
ATOM     31  O   LIG    1        3.173   5.256   1.033  0.00  0.00    -0.460 OA
ENDBRANCH  20  21
ENDBRANCH  19  20
ENDBRANCH   1  19
TORSDOF 5
