REMARK  Name = ZINCnE000001Qgp7.0
REMARK                            x       y       z     vdW  Elec       q    Type
REMARK                         _______ _______ _______ _____ _____    ______ ____
ROOT
ATOM      1  N   LIG    1        3.131   1.839   4.182  0.00  0.00    -0.620 N 
ATOM      2  H   LIG    1        3.793   1.539   3.539  0.00  0.00    +0.430 HD
ATOM      3  C   LIG    1        3.504   2.157   5.437  0.00  0.00    +0.570 C 
ATOM      4  O   LIG    1        2.675   2.533   6.242  0.00  0.00    -0.490 OA
ENDROOT
BRANCH   1   9
ATOM      5  C   LIG    1       -0.013   1.086   0.008  0.00  0.00    +0.100 C 
ATOM      6  C   LIG    1       -0.718   1.572   1.248  0.00  0.00    -0.040 A 
ATOM      7  C   LIG    1        0.020   1.809   2.427  0.00  0.00    +0.110 A 
ATOM      8  N   LIG    1        1.343   1.661   2.638  0.00  0.00    -0.510 NA
ATOM      9  C   LIG    1        1.801   1.940   3.809  0.00  0.00    +0.330 A 
ATOM     10  S   LIG    1        0.499   2.467   4.867  0.00  0.00    +0.180 S 
ATOM     11  C   LIG    1       -0.664   2.260   3.560  0.00  0.00    -0.220 A 
ATOM     12  C   LIG    1       -2.041   2.466   3.516  0.00  0.00    +0.060 A 
ATOM     13  C   LIG    1       -2.740   2.227   2.354  0.00  0.00    +0.020 A 
ATOM     14  C   LIG    1       -2.073   1.786   1.221  0.00  0.00    +0.020 A 
ENDBRANCH   1   9
BRANCH   3  15
ATOM     15  C   LIG    1        4.924   2.049   5.835  0.00  0.00    -0.070 A 
ATOM     16  C   LIG    1        5.878   1.612   4.915  0.00  0.00    -0.110 A 
ATOM     17  C   LIG    1        7.203   1.518   5.288  0.00  0.00    +0.120 A 
ATOM     18  C   LIG    1        7.588   1.844   6.575  0.00  0.00    -0.180 A 
ATOM     19  C   LIG    1        6.645   2.274   7.500  0.00  0.00    +0.300 A 
ATOM     20  O   LIG    1        7.029   2.592   8.764  0.00  0.00    -0.630 OA
ATOM     21  C   LIG    1        5.314   2.377   7.134  0.00  0.00    -0.010 A 
BRANCH  18  22
ATOM     22  N   LIG    1        9.010   1.734   6.970  0.00  0.00    +0.060 N 
ATOM     23  O   LIG    1        9.352   2.020   8.104  0.00  0.00    -0.160 OA
ATOM     24  O   LIG    1        9.839   1.357   6.161  0.00  0.00    -0.260 OA
ENDBRANCH  18  22
ENDBRANCH   3  15
TORSDOF 3
