REMARK  Name = ZINCpk000000mUcL.0
REMARK                            x       y       z     vdW  Elec       q    Type
REMARK                         _______ _______ _______ _____ _____    ______ ____
ROOT
ATOM      1  N   LIG    1        6.728   0.397  -1.835  0.00  0.00    -0.740 N 
ATOM      2  H   LIG    1        6.666   1.361  -1.745  0.00  0.00    +0.400 HD
ATOM      3  C   LIG    1        5.780  -0.393  -1.294  0.00  0.00    +0.710 C 
ATOM      4  N   LIG    1        4.746   0.156  -0.626  0.00  0.00    -0.720 N 
ATOM      5  H   LIG    1        4.684   1.120  -0.536  0.00  0.00    +0.400 HD
ATOM      6  O   LIG    1        5.858  -1.601  -1.407  0.00  0.00    -0.590 OA
ENDROOT
BRANCH   1   7
ATOM      7  C   LIG    1        7.852  -0.200  -2.561  0.00  0.00    +0.280 C 
BRANCH   7   8
ATOM      8  C   LIG    1        8.776   0.908  -3.071  0.00  0.00    +0.020 C 
BRANCH   8   9
ATOM      9  C   LIG    1        9.950   0.284  -3.829  0.00  0.00    +0.260 C 
BRANCH   9  12
ATOM     10  C   LIG    1       12.852   2.121  -5.519  0.00  0.00    +0.090 C 
ATOM     11  C   LIG    1       11.942   1.030  -5.017  0.00  0.00    +0.510 C 
ATOM     12  N   LIG    1       10.835   1.345  -4.317  0.00  0.00    -0.730 N 
ATOM     13  H   LIG    1       10.623   2.274  -4.136  0.00  0.00    +0.400 HD
ATOM     14  O   LIG    1       12.206  -0.132  -5.243  0.00  0.00    -0.540 OA
ENDBRANCH   9  12
ENDBRANCH   8   9
ENDBRANCH   7   8
ENDBRANCH   1   7
BRANCH   4  15
ATOM     15  C   LIG    1        3.716  -0.703  -0.037  0.00  0.00    +0.410 C 
BRANCH  15  16
ATOM     16  C   LIG    1        2.417   0.057   0.048  0.00  0.00    -0.130 A 
ATOM     17  C   LIG    1        2.428   1.433   0.166  0.00  0.00    +0.060 A 
ATOM     18  C   LIG    1        1.236   2.131   0.244  0.00  0.00    +0.020 A 
ATOM     19  C   LIG    1        0.033   1.451   0.203  0.00  0.00    +0.060 A 
ATOM     20  C   LIG    1        0.019   0.074   0.085  0.00  0.00    -0.010 A 
ATOM     21  C   LIG    1        1.212  -0.625   0.007  0.00  0.00    +0.110 A 
ATOM     22  F   LIG    1        1.200  -1.971  -0.109  0.00  0.00    -0.140 F 
ENDBRANCH  15  16
BRANCH  15  23
ATOM     23  C   LIG    1        4.142  -1.123   1.346  0.00  0.00    +0.190 A 
ATOM     24  N   LIG    1        4.659  -0.340   2.253  0.00  0.00    -0.470 NA
ATOM     25  C   LIG    1        4.913  -1.054   3.360  0.00  0.00    +0.140 A 
ATOM     26  C   LIG    1        4.548  -2.329   3.127  0.00  0.00    +0.130 A 
ATOM     27  N   LIG    1        4.059  -2.373   1.849  0.00  0.00    -0.440 N 
ATOM     28  C   LIG    1        3.542  -3.557   1.157  0.00  0.00    +0.320 C 
ENDBRANCH  15  23
ENDBRANCH   4  15
TORSDOF 7
