REMARK  Name = ZINCpk00000eaWJi.0
REMARK                            x       y       z     vdW  Elec       q    Type
REMARK                         _______ _______ _______ _____ _____    ______ ____
ROOT
ATOM      1  N   LIG    1       -0.011   0.966   0.007  0.00  0.00    -0.720 N 
ATOM      2  H   LIG    1        0.002  -0.004   0.002  0.00  0.00    +0.400 HD
ATOM      3  C   LIG    1        1.147   1.655   0.000  0.00  0.00    +0.490 C 
ATOM      4  O   LIG    1        1.130   2.868   0.007  0.00  0.00    -0.520 OA
ENDROOT
BRANCH   1   9
ATOM      5  N   LIG    1       -3.664   1.499  -0.558  0.00  0.00    -0.460 N 
ATOM      6  C   LIG    1       -4.070   1.806   0.819  0.00  0.00    +0.180 C 
ATOM      7  C   LIG    1       -3.033   2.726   1.466  0.00  0.00    +0.050 C 
ATOM      8  C   LIG    1       -1.667   2.033   1.459  0.00  0.00    +0.010 C 
ATOM      9  C   LIG    1       -1.290   1.681   0.017  0.00  0.00    +0.250 C 
ATOM     10  C   LIG    1       -2.378   0.791  -0.588  0.00  0.00    +0.190 C 
BRANCH   5  15
ATOM     11  C   LIG    1       -7.069   0.084  -3.919  0.00  0.00    +0.160 C 
ATOM     12  C   LIG    1       -6.177   0.113  -2.704  0.00  0.00    +0.080 A 
ATOM     13  N   LIG    1       -6.136  -0.794  -1.762  0.00  0.00    -0.290 NA
ATOM     14  N   LIG    1       -5.178  -0.406  -0.817  0.00  0.00    -0.390 N 
ATOM     15  C   LIG    1       -4.649   0.771  -1.220  0.00  0.00    +0.240 A 
ATOM     16  C   LIG    1       -4.815  -1.145   0.395  0.00  0.00    +0.340 C 
ATOM     17  C   LIG    1       -5.252   1.113  -2.392  0.00  0.00    -0.080 A 
ENDBRANCH   5  15
ENDBRANCH   1   9
BRANCH   3  18
ATOM     18  C   LIG    1        2.462   0.920  -0.017  0.00  0.00    +0.230 C 
BRANCH  18  19
ATOM     19  O   LIG    1        3.532   1.859  -0.139  0.00  0.00    -0.530 OA
ATOM     20  H   LIG    1        3.574   2.503   0.581  0.00  0.00    +0.380 HD
ENDBRANCH  18  19
BRANCH  18  21
ATOM     21  C   LIG    1        2.622   0.132   1.285  0.00  0.00    +0.060 C 
BRANCH  21  22
ATOM     22  C   LIG    1        3.877  -0.700   1.218  0.00  0.00    -0.080 A 
ATOM     23  C   LIG    1        3.826  -1.989   0.721  0.00  0.00    +0.000 A 
ATOM     24  C   LIG    1        4.979  -2.749   0.654  0.00  0.00    +0.000 A 
ATOM     25  C   LIG    1        6.179  -2.225   1.096  0.00  0.00    +0.000 A 
ATOM     26  C   LIG    1        6.229  -0.938   1.597  0.00  0.00    +0.000 A 
ATOM     27  C   LIG    1        5.078  -0.175   1.659  0.00  0.00    +0.020 A 
ENDBRANCH  21  22
ENDBRANCH  18  21
ENDBRANCH   3  18
TORSDOF 6
