REMARK  Name = ZINCkj000005hGHW.0
REMARK                            x       y       z     vdW  Elec       q    Type
REMARK                         _______ _______ _______ _____ _____    ______ ____
ROOT
ATOM      1  C   LIG    1       -1.081   3.858   4.302  0.00  0.00    +0.400 C 
ENDROOT
BRANCH   1   4
ATOM      2  N   LIG    1       -0.704   1.975   1.216  0.00  0.00    -0.280 N 
ATOM      3  C   LIG    1       -0.198   2.834   2.130  0.00  0.00    +0.210 A 
ATOM      4  C   LIG    1       -1.159   2.994   3.070  0.00  0.00    -0.100 A 
ATOM      5  N   LIG    1       -2.193   2.235   2.689  0.00  0.00    -0.240 NA
ATOM      6  N   LIG    1       -1.893   1.649   1.584  0.00  0.00    -0.020 NA
BRANCH   2   7
ATOM      7  C   LIG    1       -0.018   1.503   0.010  0.00  0.00    +0.440 C 
BRANCH   7   8
ATOM      8  C   LIG    1        0.002  -0.004   0.002  0.00  0.00    +0.450 C 
ATOM      9  O   LIG    1       -0.504  -0.620   0.910  0.00  0.00    -0.480 OA
BRANCH   8  11
ATOM     10  C   LIG    1        0.565  -2.112  -0.956  0.00  0.00    +0.290 C 
ATOM     11  O   LIG    1        0.583  -0.662  -1.014  0.00  0.00    -0.350 OA
ENDBRANCH   8  11
ENDBRANCH   7   8
ENDBRANCH   2   7
ENDBRANCH   1   4
BRANCH   1  12
ATOM     12  N   LIG    1       -1.686   5.167   4.022  0.00  0.00    -0.510 N 
ATOM     13  H   LIG    1       -2.652   5.042   3.760  0.00  0.00    +0.430 HD
ATOM     14  H   LIG    1       -1.187   5.613   3.266  0.00  0.00    +0.420 HD
BRANCH  12  15
ATOM     15  C   LIG    1       -1.609   6.009   5.223  0.00  0.00    +0.170 C 
ATOM     16  C   LIG    1       -2.468   5.396   6.331  0.00  0.00    +0.040 C 
ATOM     17  C   LIG    1       -2.388   6.273   7.582  0.00  0.00    +0.040 C 
ATOM     18  C   LIG    1       -2.904   7.676   7.255  0.00  0.00    +0.020 C 
ATOM     19  C   LIG    1       -2.046   8.289   6.147  0.00  0.00    +0.000 C 
ATOM     20  C   LIG    1       -2.561   9.692   5.821  0.00  0.00    +0.030 C 
ATOM     21  C   LIG    1       -2.125   7.412   4.896  0.00  0.00    -0.010 C 
ATOM     22  C   LIG    1       -1.267   8.025   3.788  0.00  0.00    +0.040 C 
ENDBRANCH  12  15
ENDBRANCH   1  12
TORSDOF 6
