REMARK  Name = ZINCpk00000e9Rzk.0
REMARK                            x       y       z     vdW  Elec       q    Type
REMARK                         _______ _______ _______ _____ _____    ______ ____
ROOT
ATOM      1  C   LIG    1       -1.162   3.515   0.119  0.00  0.00    +0.150 A 
ATOM      2  C   LIG    1        0.055   4.185   0.115  0.00  0.00    +0.020 A 
ATOM      3  C   LIG    1        0.083   5.562   0.210  0.00  0.00    +0.050 A 
ATOM      4  C   LIG    1       -1.098   6.274   0.318  0.00  0.00    -0.130 A 
ATOM      5  C   LIG    1       -2.311   5.609   0.328  0.00  0.00    +0.070 A 
ATOM      6  C   LIG    1       -2.346   4.232   0.229  0.00  0.00    -0.010 A 
ENDROOT
BRANCH   1   8
ATOM      7  C   LIG    1       -0.264   1.476  -0.713  0.00  0.00    +0.580 C 
ATOM      8  N   LIG    1       -1.194   2.121   0.019  0.00  0.00    -0.650 N 
ATOM      9  H   LIG    1       -1.885   1.617   0.477  0.00  0.00    +0.420 HD
ATOM     10  O   LIG    1        0.543   2.110  -1.367  0.00  0.00    -0.500 OA
BRANCH   7  14
ATOM     11  C   LIG    1       -2.285  -2.785   0.417  0.00  0.00    +0.350 C 
ATOM     12  N   LIG    1       -1.089  -2.057  -0.015  0.00  0.00    -0.460 N 
ATOM     13  N   LIG    1       -1.091  -0.658  -0.024  0.00  0.00    -0.200 NA
ATOM     14  C   LIG    1       -0.229   0.009  -0.728  0.00  0.00    +0.080 C 
ATOM     15  C   LIG    1        0.809  -0.701  -1.554  0.00  0.00    +0.110 C 
ATOM     16  C   LIG    1        1.237  -1.988  -0.846  0.00  0.00    +0.090 C 
ATOM     17  C   LIG    1        0.009  -2.738  -0.397  0.00  0.00    +0.500 C 
ATOM     18  O   LIG    1        0.009  -3.951  -0.379  0.00  0.00    -0.510 OA
ENDBRANCH   7  14
ENDBRANCH   1   8
BRANCH   4  19
ATOM     19  C   LIG    1       -1.063   7.777   0.426  0.00  0.00    +0.340 C 
BRANCH  19  20
ATOM     20  N   LIG    1       -0.986   8.163   1.837  0.00  0.00    -0.490 N 
ATOM     21  C   LIG    1        0.228   8.317   2.425  0.00  0.00    +0.290 A 
ATOM     22  C   LIG    1        0.325   8.672   3.728  0.00  0.00    -0.080 A 
ATOM     23  C   LIG    1       -0.837   8.887   4.483  0.00  0.00    +0.110 A 
ATOM     24  C   LIG    1       -2.055   8.732   3.890  0.00  0.00    -0.090 A 
ATOM     25  C   LIG    1       -2.119   8.367   2.535  0.00  0.00    +0.510 A 
ATOM     26  O   LIG    1       -3.203   8.230   1.991  0.00  0.00    -0.550 OA
ENDBRANCH  19  20
ENDBRANCH   4  19
TORSDOF 4
