REMARK  Name = ZINCvU00000006xL.0
REMARK                            x       y       z     vdW  Elec       q    Type
REMARK                         _______ _______ _______ _____ _____    ______ ____
ROOT
ATOM      1  C   LIG    1       -9.403   9.064  -4.262  0.00  0.00    +0.160 C 
ATOM      2  C   LIG    1       -8.617   9.199  -2.983  0.00  0.00    +0.100 A 
ATOM      3  N   LIG    1       -8.903  10.003  -1.991  0.00  0.00    -0.280 NA
ATOM      4  N   LIG    1       -7.940   9.830  -0.989  0.00  0.00    -0.350 N 
ATOM      5  C   LIG    1       -7.054   8.892  -1.422  0.00  0.00    +0.310 A 
ATOM      6  C   LIG    1       -7.460   8.486  -2.656  0.00  0.00    -0.080 A 
ENDROOT
BRANCH   4   7
ATOM      7  C   LIG    1       -7.895  10.504   0.239  0.00  0.00    +0.160 A 
ATOM      8  C   LIG    1       -7.441   9.848   1.376  0.00  0.00    +0.020 A 
ATOM      9  C   LIG    1       -7.398  10.515   2.585  0.00  0.00    +0.060 A 
ATOM     10  C   LIG    1       -7.807  11.834   2.664  0.00  0.00    +0.070 A 
ATOM     11  C   LIG    1       -8.259  12.489   1.533  0.00  0.00    -0.160 A 
ATOM     12  C   LIG    1       -8.299  11.830   0.321  0.00  0.00    +0.090 A 
BRANCH  11  13
ATOM     13  C   LIG    1       -8.704  13.926   1.623  0.00  0.00    +0.510 C 
ATOM     14  F   LIG    1      -10.044  14.026   1.234  0.00  0.00    -0.170 F 
ATOM     15  F   LIG    1       -7.913  14.713   0.779  0.00  0.00    -0.170 F 
ATOM     16  F   LIG    1       -8.567  14.375   2.942  0.00  0.00    -0.170 F 
ENDBRANCH  11  13
ENDBRANCH   4   7
BRANCH   5  17
ATOM     17  N   LIG    1       -5.938   8.428  -0.727  0.00  0.00    -0.650 N 
ATOM     18  H   LIG    1       -5.732   8.782   0.153  0.00  0.00    +0.410 HD
ATOM     19  C   LIG    1       -5.145   7.487  -1.276  0.00  0.00    +0.520 C 
ATOM     20  O   LIG    1       -5.402   7.044  -2.376  0.00  0.00    -0.470 OA
BRANCH  19  21
ATOM     21  C   LIG    1       -3.939   6.985  -0.525  0.00  0.00    +0.190 C 
ATOM     22  C   LIG    1       -2.990   8.152  -0.247  0.00  0.00    +0.070 C 
BRANCH  21  23
ATOM     23  O   LIG    1       -3.265   6.000  -1.310  0.00  0.00    -0.280 OA
BRANCH  23  24
ATOM     24  C   LIG    1       -2.509   5.089  -0.641  0.00  0.00    +0.130 A 
ATOM     25  C   LIG    1       -2.327   5.209   0.729  0.00  0.00    -0.080 A 
ATOM     26  C   LIG    1       -1.559   4.282   1.404  0.00  0.00    +0.050 A 
ATOM     27  C   LIG    1       -0.969   3.232   0.720  0.00  0.00    -0.130 A 
ATOM     28  C   LIG    1       -0.091   2.102   1.225  0.00  0.00    +0.070 C 
ATOM     29  C   LIG    1        0.593   1.533  -0.036  0.00  0.00    +0.030 C 
ATOM     30  C   LIG    1       -0.409   1.891  -1.154  0.00  0.00    +0.080 C 
ATOM     31  C   LIG    1       -1.149   3.111  -0.646  0.00  0.00    -0.060 A 
ATOM     32  C   LIG    1       -1.918   4.039  -1.326  0.00  0.00    +0.000 A 
ENDBRANCH  23  24
ENDBRANCH  21  23
ENDBRANCH  19  21
ENDBRANCH   5  17
TORSDOF 6
