REMARK  Name = ZINCrH00000No4Sf.0
REMARK                            x       y       z     vdW  Elec       q    Type
REMARK                         _______ _______ _______ _____ _____    ______ ____
ROOT
ATOM      1  N   LIG    1       -3.018  -0.761   4.707  0.00  0.00    -0.980 NA
ENDROOT
BRANCH   1   2
ATOM      2  C   LIG    1       -4.472  -0.584   4.665  0.00  0.00    +0.280 C 
ATOM      3  C   LIG    1       -5.089  -0.892   6.046  0.00  0.00    +0.060 C 
ATOM      4  C   LIG    1       -5.448  -2.388   5.923  0.00  0.00    -0.030 C 
ATOM      5  C   LIG    1       -5.657  -2.624   4.443  0.00  0.00    -0.070 A 
ATOM      6  C   LIG    1       -6.288  -3.664   3.781  0.00  0.00    +0.000 A 
ATOM      7  C   LIG    1       -6.360  -3.668   2.401  0.00  0.00    +0.010 A 
ATOM      8  C   LIG    1       -5.799  -2.631   1.679  0.00  0.00    +0.000 A 
ATOM      9  C   LIG    1       -5.169  -1.593   2.337  0.00  0.00    +0.090 A 
ATOM     10  C   LIG    1       -4.299  -3.256   6.442  0.00  0.00    +0.040 C 
ATOM     11  C   LIG    1       -6.732  -2.691   6.696  0.00  0.00    +0.040 C 
ATOM     12  C   LIG    1       -5.097  -1.587   3.720  0.00  0.00    -0.120 A 
ENDBRANCH   1   2
BRANCH   1  13
ATOM     13  S   LIG    1       -2.081   0.289   5.579  0.00  0.00    +2.670 S 
ATOM     14  O   LIG    1       -0.882  -0.406   5.890  0.00  0.00    -0.950 OA
ATOM     15  O   LIG    1       -2.929   0.858   6.567  0.00  0.00    -0.950 OA
BRANCH  13  17
ATOM     16  C   LIG    1       -1.947   2.839   4.796  0.00  0.00    +0.230 C 
ATOM     17  C   LIG    1       -1.627   1.604   4.497  0.00  0.00    -0.600 C 
ENDBRANCH  13  17
ENDBRANCH   1  13
BRANCH   1  18
ATOM     18  C   LIG    1       -2.394  -1.868   3.978  0.00  0.00    +0.420 C 
BRANCH  18  19
ATOM     19  C   LIG    1       -2.032  -1.412   2.587  0.00  0.00    -0.040 A 
ATOM     20  C   LIG    1       -0.838  -0.923   2.181  0.00  0.00    +0.140 A 
ATOM     21  N   LIG    1       -0.972  -0.648   0.863  0.00  0.00    -0.280 N 
ATOM     22  N   LIG    1       -2.172  -0.949   0.508  0.00  0.00    -0.080 NA
ATOM     23  N   LIG    1       -2.828  -1.413   1.512  0.00  0.00    -0.240 NA
BRANCH  21  24
ATOM     24  C   LIG    1        0.068  -0.096  -0.009  0.00  0.00    +0.250 C 
ATOM     25  C   LIG    1        0.158   1.438   0.034  0.00  0.00    +0.040 C 
ATOM     26  C   LIG    1        1.686   1.272  -0.007  0.00  0.00    +0.040 C 
ATOM     27  C   LIG    1        1.472  -0.117   0.618  0.00  0.00    +0.040 C 
ENDBRANCH  21  24
ENDBRANCH  18  19
ENDBRANCH   1  18
TORSDOF 6
