REMARK  Name = ZINCvU0000000BwR.0
REMARK                            x       y       z     vdW  Elec       q    Type
REMARK                         _______ _______ _______ _____ _____    ______ ____
ROOT
ATOM      1  C   LIG    1       -3.546   1.738   0.010  0.00  0.00    +0.370 A 
ATOM      2  N   LIG    1       -2.406   1.092  -0.006  0.00  0.00    -0.540 NA
ATOM      3  C   LIG    1       -1.221   1.747  -0.029  0.00  0.00    +0.170 A 
ATOM      4  C   LIG    1       -0.005   1.058  -0.041  0.00  0.00    +0.020 A 
ATOM      5  C   LIG    1        1.177   1.763  -0.058  0.00  0.00    +0.060 A 
ATOM      6  C   LIG    1        1.178   3.152  -0.059  0.00  0.00    -0.010 A 
ATOM      7  C   LIG    1       -0.007   3.854  -0.043  0.00  0.00    +0.100 A 
ATOM      8  C   LIG    1       -1.216   3.161  -0.025  0.00  0.00    -0.200 A 
ATOM      9  C   LIG    1       -2.509   3.859  -0.007  0.00  0.00    +0.560 A 
ATOM     10  O   LIG    1       -2.570   5.075  -0.007  0.00  0.00    -0.510 OA
ATOM     11  N   LIG    1       -3.630   3.101   0.010  0.00  0.00    -0.520 N 
ENDROOT
BRANCH   1  12
ATOM     12  S   LIG    1       -5.040   0.804   0.033  0.00  0.00    +0.100 S 
BRANCH  12  14
ATOM     13  C   LIG    1       -3.625  -1.119  -1.295  0.00  0.00    +0.100 C 
ATOM     14  C   LIG    1       -4.362  -0.874   0.024  0.00  0.00    +0.010 C 
BRANCH  14  15
ATOM     15  C   LIG    1       -5.484  -1.870   0.165  0.00  0.00    +0.540 C 
ATOM     16  N   LIG    1       -5.240  -3.092   0.678  0.00  0.00    -0.660 N 
ATOM     17  H   LIG    1       -4.332  -3.354   0.896  0.00  0.00    +0.420 HD
ATOM     18  O   LIG    1       -6.607  -1.572  -0.183  0.00  0.00    -0.500 OA
BRANCH  16  19
ATOM     19  C   LIG    1       -6.297  -3.983   0.897  0.00  0.00    +0.170 A 
ATOM     20  C   LIG    1       -7.379  -4.004   0.029  0.00  0.00    +0.060 A 
ATOM     21  C   LIG    1       -8.422  -4.886   0.247  0.00  0.00    -0.010 A 
ATOM     22  C   LIG    1       -8.386  -5.747   1.330  0.00  0.00    +0.040 A 
ATOM     23  C   LIG    1       -7.309  -5.728   2.197  0.00  0.00    +0.070 A 
ATOM     24 CL   LIG    1       -9.776  -4.913  -0.838  0.00  0.00    -0.050 Cl
ATOM     25  C   LIG    1       -6.261  -4.853   1.981  0.00  0.00    -0.060 A 
ATOM     26 CL   LIG    1       -4.906  -4.835   3.066  0.00  0.00    -0.050 Cl
ENDBRANCH  16  19
ENDBRANCH  14  15
ENDBRANCH  12  14
ENDBRANCH   1  12
BRANCH  11  27
ATOM     27  C   LIG    1       -4.944   3.748   0.029  0.00  0.00    +0.300 C 
BRANCH  27  28
ATOM     28  C   LIG    1       -5.423   3.972  -1.407  0.00  0.00    +0.150 C 
ATOM     29  C   LIG    1       -6.750   4.761  -1.399  0.00  0.00    +0.020 C 
ATOM     30  C   LIG    1       -7.549   4.071  -2.540  0.00  0.00    +0.010 C 
ATOM     31  C   LIG    1       -7.057   2.608  -2.402  0.00  0.00    +0.210 C 
ATOM     32  O   LIG    1       -5.671   2.711  -2.039  0.00  0.00    -0.360 OA
ENDBRANCH  27  28
ENDBRANCH  11  27
TORSDOF 6
