REMARK  Name = ZINCqH0000005rpH.0
REMARK                            x       y       z     vdW  Elec       q    Type
REMARK                         _______ _______ _______ _____ _____    ______ ____
ROOT
ATOM      1  C   LIG    1        2.360   0.518  -1.548  0.00  0.00    -0.020 C 
ATOM      2  C   LIG    1        0.925   0.040  -1.783  0.00  0.00    +0.050 C 
ATOM      3  C   LIG    1        0.068   0.374  -0.560  0.00  0.00    +0.010 C 
ATOM      4  C   LIG    1        0.045   1.893  -0.356  0.00  0.00    +0.270 C 
ATOM      5  N   LIG    1        1.429   2.380  -0.275  0.00  0.00    -0.630 N 
ATOM      6  C   LIG    1        1.834   3.126   0.772  0.00  0.00    +0.710 C 
ATOM      7  N   LIG    1        0.941   3.528   1.698  0.00  0.00    -0.740 N 
ATOM      8  H   LIG    1        0.022   3.220   1.652  0.00  0.00    +0.400 HD
ATOM      9  O   LIG    1        3.004   3.436   0.881  0.00  0.00    -0.580 OA
ATOM     10  C   LIG    1        2.363   2.038  -1.357  0.00  0.00    +0.310 C 
ENDROOT
BRANCH   1  14
ATOM     11  C   LIG    1        5.345   0.134  -3.914  0.00  0.00    +0.290 C 
ATOM     12  N   LIG    1        4.518   0.483  -2.756  0.00  0.00    -0.730 N 
ATOM     13  H   LIG    1        4.912   0.948  -2.001  0.00  0.00    +0.400 HD
ATOM     14  C   LIG    1        3.210   0.159  -2.740  0.00  0.00    +0.520 C 
ATOM     15  O   LIG    1        2.717  -0.422  -3.684  0.00  0.00    -0.530 OA
ENDBRANCH   1  14
BRANCH   7  16
ATOM     16  C   LIG    1        1.359   4.430   2.774  0.00  0.00    +0.300 C 
ATOM     17  C   LIG    1        1.999   3.618   3.901  0.00  0.00    +0.040 C 
BRANCH  16  18
ATOM     18  C   LIG    1        0.157   5.167   3.306  0.00  0.00    -0.070 A 
ATOM     19  C   LIG    1       -1.080   4.603   3.231  0.00  0.00    +0.020 A 
ATOM     20  C   LIG    1       -2.203   5.266   3.722  0.00  0.00    +0.040 A 
ATOM     21  C   LIG    1       -2.097   6.503   4.282  0.00  0.00    -0.020 A 
ATOM     22  C   LIG    1       -0.836   7.120   4.372  0.00  0.00    -0.040 A 
ATOM     23  C   LIG    1       -0.687   8.395   4.943  0.00  0.00    +0.030 A 
ATOM     24  C   LIG    1        0.549   8.962   5.013  0.00  0.00    +0.020 A 
ATOM     25  C   LIG    1        1.672   8.295   4.527  0.00  0.00    +0.020 A 
ATOM     26  C   LIG    1        1.565   7.059   3.967  0.00  0.00    +0.020 A 
ATOM     27 CL   LIG    1       -3.510   7.314   4.882  0.00  0.00    -0.060 Cl
ATOM     28  C   LIG    1        0.306   6.442   3.877  0.00  0.00    -0.030 A 
ENDBRANCH  16  18
ENDBRANCH   7  16
TORSDOF 3
