REMARK  Name = ZINCwl0000000vNF.1
REMARK                            x       y       z     vdW  Elec       q    Type
REMARK                         _______ _______ _______ _____ _____    ______ ____
ROOT
ATOM      1  O   LIG    1       -1.345   2.080   3.265  0.00  0.00    -0.530 OA
ATOM      2  C   LIG    1       -0.514   1.231   3.507  0.00  0.00    +0.500 C 
ATOM      3  N   LIG    1       -0.213   0.927   4.785  0.00  0.00    -0.580 N 
ATOM      4  C   LIG    1        0.787  -0.104   5.101  0.00  0.00    +0.290 C 
ATOM      5  C   LIG    1        1.798   0.493   6.093  0.00  0.00    +0.190 C 
ATOM      6  N   LIG    1        1.077   1.034   7.253  0.00  0.00    -0.510 NA
ATOM      7  C   LIG    1        0.192   2.139   6.861  0.00  0.00    +0.190 C 
ATOM      8  C   LIG    1       -0.881   1.614   5.901  0.00  0.00    +0.310 C 
ENDROOT
BRANCH   6   9
ATOM      9  C   LIG    1        2.013   1.457   8.303  0.00  0.00    +0.250 C 
BRANCH   9  10
ATOM     10  C   LIG    1        2.935   2.517   7.759  0.00  0.00    +0.490 C 
ATOM     11  N   LIG    1        3.951   2.979   8.514  0.00  0.00    -0.610 N 
ATOM     12  C   LIG    1        4.178   2.466   9.875  0.00  0.00    +0.260 C 
ATOM     13  C   LIG    1        5.655   2.059   9.994  0.00  0.00    +0.220 C 
ATOM     14  O   LIG    1        6.478   3.154   9.583  0.00  0.00    -0.370 OA
ATOM     15  C   LIG    1        6.305   3.535   8.216  0.00  0.00    +0.220 C 
ATOM     16  C   LIG    1        4.864   4.014   8.004  0.00  0.00    +0.250 C 
ATOM     17  O   LIG    1        2.761   2.956   6.641  0.00  0.00    -0.540 OA
ENDBRANCH   9  10
ENDBRANCH   6   9
BRANCH   2  18
ATOM     18  C   LIG    1        0.183   0.515   2.379  0.00  0.00    +0.300 C 
BRANCH  18  19
ATOM     19  N   LIG    1       -0.317   1.022   1.094  0.00  0.00    -0.500 N 
ATOM     20  H   LIG    1       -1.311   0.861   1.032  0.00  0.00    +0.440 HD
ATOM     21  H   LIG    1       -0.133   2.012   1.029  0.00  0.00    +0.430 HD
BRANCH  19  22
ATOM     22  C   LIG    1        0.362   0.324  -0.006  0.00  0.00    +0.340 C 
BRANCH  22  23
ATOM     23  C   LIG    1       -0.237   0.755  -1.320  0.00  0.00    -0.160 A 
ATOM     24  C   LIG    1       -0.582   2.079  -1.521  0.00  0.00    +0.050 A 
ATOM     25  C   LIG    1       -1.125   2.477  -2.727  0.00  0.00    +0.010 A 
ATOM     26  C   LIG    1       -1.335   1.547  -3.732  0.00  0.00    +0.140 A 
ATOM     27  C   LIG    1       -0.994   0.220  -3.527  0.00  0.00    +0.010 A 
ATOM     28  F   LIG    1       -1.871   1.933  -4.910  0.00  0.00    -0.120 F 
ATOM     29  C   LIG    1       -0.446  -0.174  -2.322  0.00  0.00    +0.100 A 
ENDBRANCH  22  23
BRANCH  22  30
ATOM     30  C   LIG    1        1.830   0.664   0.013  0.00  0.00    -0.280 A 
ATOM     31  C   LIG    1        2.822  -0.197  -0.217  0.00  0.00    +0.100 A 
ATOM     32  C   LIG    1        4.093   0.346  -0.148  0.00  0.00    +0.020 A 
ATOM     33  C   LIG    1        4.134   1.646   0.147  0.00  0.00    +0.020 A 
ATOM     34  S   LIG    1        2.497   2.256   0.350  0.00  0.00    +0.110 S 
ENDBRANCH  22  30
ENDBRANCH  19  22
ENDBRANCH  18  19
ENDBRANCH   2  18
TORSDOF 7
