REMARK  Name = ZINCrg00001Jdv1E.0
REMARK                            x       y       z     vdW  Elec       q    Type
REMARK                         _______ _______ _______ _____ _____    ______ ____
ROOT
ATOM      1  C   LIG    1       -6.431   0.989   1.922  0.00  0.00    +0.230 C 
ATOM      2  C   LIG    1       -7.167   1.581   3.126  0.00  0.00    +0.030 C 
ENDROOT
BRANCH   1   4
ATOM      3  C   LIG    1       -4.088   0.947   2.592  0.00  0.00    +0.520 C 
ATOM      4  N   LIG    1       -5.069   1.526   1.871  0.00  0.00    -0.720 N 
ATOM      5  H   LIG    1       -4.873   2.298   1.318  0.00  0.00    +0.400 HD
ATOM      6  O   LIG    1       -4.333  -0.019   3.283  0.00  0.00    -0.520 OA
BRANCH   3   7
ATOM      7  C   LIG    1       -2.687   1.499   2.539  0.00  0.00    +0.240 C 
BRANCH   7   8
ATOM      8  C   LIG    1       -1.992   1.006   1.268  0.00  0.00    +0.000 C 
ATOM      9  C   LIG    1       -2.005  -0.524   1.241  0.00  0.00    +0.030 C 
BRANCH   8  11
ATOM     10  C   LIG    1       -1.954   1.175  -1.224  0.00  0.00    +0.030 C 
ATOM     11  C   LIG    1       -2.731   1.544   0.041  0.00  0.00    +0.010 C 
ENDBRANCH   8  11
ENDBRANCH   7   8
BRANCH   7  12
ATOM     12  N   LIG    1       -1.938   1.045   3.713  0.00  0.00    -1.100 NA
ATOM     13  H   LIG    1       -2.088   0.155   4.069  0.00  0.00    +0.430 HD
BRANCH  12  14
ATOM     14  S   LIG    1       -0.836   2.050   4.431  0.00  0.00    +2.610 S 
ATOM     15  O   LIG    1       -0.006   2.482   3.362  0.00  0.00    -0.950 OA
ATOM     16  O   LIG    1       -0.307   1.282   5.504  0.00  0.00    -0.950 OA
ATOM     17  C   LIG    1       -1.827   3.430   5.066  0.00  0.00    -0.290 C 
ENDBRANCH  12  14
ENDBRANCH   7  12
ENDBRANCH   3   7
ENDBRANCH   1   4
BRANCH   1  18
ATOM     18  C   LIG    1       -7.174   1.359   0.637  0.00  0.00    +0.240 C 
ATOM     19  C   LIG    1       -6.438   0.767  -0.566  0.00  0.00    +0.030 C 
BRANCH  18  20
ATOM     20  N   LIG    1       -8.536   0.822   0.689  0.00  0.00    -0.720 N 
ATOM     21  H   LIG    1       -8.732   0.050   1.242  0.00  0.00    +0.400 HD
ATOM     22  C   LIG    1       -9.517   1.401  -0.032  0.00  0.00    +0.590 C 
ATOM     23  O   LIG    1       -9.271   2.370  -0.726  0.00  0.00    -0.490 OA
BRANCH  22  24
ATOM     24  C   LIG    1      -10.884   0.862   0.020  0.00  0.00    -0.010 A 
ATOM     25  C   LIG    1      -11.994   1.345  -0.653  0.00  0.00    -0.130 A 
ATOM     26  C   LIG    1      -13.046   0.501  -0.283  0.00  0.00    +0.060 A 
ATOM     27  N   LIG    1      -12.572  -0.392   0.547  0.00  0.00    -0.250 NA
ATOM     28  C   LIG    1      -14.474   0.606  -0.753  0.00  0.00    +0.160 C 
ATOM     29 BR   LIG    1      -12.070   2.826  -1.826  0.00  0.00    +0.020 Br
ATOM     30  N   LIG    1      -11.316  -0.212   0.747  0.00  0.00    -0.370 N 
ATOM     31  H   LIG    1      -10.758  -0.756   1.325  0.00  0.00    +0.450 HD
ENDBRANCH  22  24
ENDBRANCH  18  20
ENDBRANCH   1  18
TORSDOF 9
