REMARK  Name = ZINCqH00000372UX.0
REMARK                            x       y       z     vdW  Elec       q    Type
REMARK                         _______ _______ _______ _____ _____    ______ ____
ROOT
ATOM      1  C   LIG    1        3.788   1.483  -1.148  0.00  0.00    +0.510 C 
ATOM      2  N   LIG    1        5.128   1.404  -1.270  0.00  0.00    -0.600 N 
ATOM      3  C   LIG    1        5.910   0.673  -0.268  0.00  0.00    +0.350 C 
ATOM      4  C   LIG    1        6.514   1.670   0.701  0.00  0.00    -0.140 A 
ATOM      5  C   LIG    1        6.131   1.687   2.023  0.00  0.00    +0.050 A 
ATOM      6  C   LIG    1        6.722   2.584   2.897  0.00  0.00    +0.000 A 
ATOM      7  C   LIG    1        7.695   3.454   2.441  0.00  0.00    +0.030 A 
ATOM      8  C   LIG    1        8.070   3.446   1.111  0.00  0.00    -0.010 A 
ATOM      9  C   LIG    1        7.465   2.562   0.228  0.00  0.00    +0.110 A 
ATOM     10  O   LIG    1        7.754   2.615  -1.096  0.00  0.00    -0.320 OA
ATOM     11  C   LIG    1        6.729   3.155  -1.937  0.00  0.00    +0.100 C 
ATOM     12  C   LIG    1        7.371   3.820  -3.156  0.00  0.00    +0.080 C 
ATOM     13  C   LIG    1        5.928   4.198  -1.154  0.00  0.00    +0.030 C 
ATOM     14  C   LIG    1        5.794   2.044  -2.407  0.00  0.00    +0.270 C 
ATOM     15  O   LIG    1        3.242   1.032  -0.164  0.00  0.00    -0.510 OA
ENDROOT
BRANCH   1  17
ATOM     16  C   LIG    1        2.889   1.193  -3.441  0.00  0.00    +0.090 C 
ATOM     17  C   LIG    1        2.970   2.131  -2.235  0.00  0.00    +0.240 C 
BRANCH  17  18
ATOM     18  N   LIG    1        1.619   2.400  -1.734  0.00  0.00    -0.480 N 
ATOM     19  C   LIG    1        0.732   1.478  -1.272  0.00  0.00    +0.500 A 
ATOM     20  N   LIG    1       -0.371   2.063  -0.906  0.00  0.00    -0.500 NA
ATOM     21  C   LIG    1       -0.267   3.401  -1.110  0.00  0.00    +0.050 A 
ATOM     22  C   LIG    1       -1.132   4.478  -0.899  0.00  0.00    +0.070 A 
ATOM     23  C   LIG    1       -0.730   5.746  -1.210  0.00  0.00    +0.000 A 
ATOM     24  C   LIG    1        0.532   5.978  -1.737  0.00  0.00    +0.030 A 
ATOM     25  C   LIG    1        1.403   4.931  -1.955  0.00  0.00    +0.010 A 
ATOM     26  C   LIG    1        1.011   3.636  -1.644  0.00  0.00    +0.050 A 
ENDBRANCH  17  18
ENDBRANCH   1  17
TORSDOF 2
