REMARK  Name = ZINCkj000005hxOa.0
REMARK                            x       y       z     vdW  Elec       q    Type
REMARK                         _______ _______ _______ _____ _____    ______ ____
ROOT
ATOM      1  C   LIG    1       -0.731   1.749  -1.224  0.00  0.00    -0.030 C 
ATOM      2  C   LIG    1       -2.207   1.673  -0.754  0.00  0.00    +0.070 C 
ATOM      3  C   LIG    1       -2.103   1.957   0.759  0.00  0.00    +0.260 C 
ATOM      4  N   LIG    1       -0.725   1.638   1.171  0.00  0.00    -0.620 N 
ATOM      5  C   LIG    1       -0.223   1.771   2.415  0.00  0.00    +0.590 C 
ATOM      6  O   LIG    1        0.905   1.391   2.659  0.00  0.00    -0.520 OA
ATOM      7  C   LIG    1        0.015   1.149  -0.006  0.00  0.00    +0.270 C 
ENDROOT
BRANCH   5   8
ATOM      8  C   LIG    1       -1.045   2.381   3.482  0.00  0.00    -0.060 A 
ATOM      9  C   LIG    1       -2.390   2.670   3.251  0.00  0.00    -0.030 A 
ATOM     10  C   LIG    1       -3.158   3.235   4.256  0.00  0.00    +0.160 A 
ATOM     11  C   LIG    1       -2.588   3.524   5.487  0.00  0.00    -0.130 A 
ATOM     12  C   LIG    1       -1.249   3.243   5.720  0.00  0.00    +0.170 A 
ATOM     13  C   LIG    1       -0.476   2.673   4.722  0.00  0.00    +0.020 A 
BRANCH  12  14
ATOM     14  O   LIG    1       -0.696   3.529   6.928  0.00  0.00    -0.310 OA
ATOM     15  C   LIG    1       -1.551   4.116   7.910  0.00  0.00    +0.250 C 
ENDBRANCH  12  14
BRANCH  10  16
ATOM     16  O   LIG    1       -4.469   3.512   4.033  0.00  0.00    -0.310 OA
ATOM     17  C   LIG    1       -5.200   4.100   5.111  0.00  0.00    +0.250 C 
ENDBRANCH  10  16
ENDBRANCH   5   8
BRANCH   1  18
ATOM     18  C   LIG    1       -0.509   0.898  -2.477  0.00  0.00    +0.280 C 
BRANCH  18  20
ATOM     19  C   LIG    1        1.117   0.153  -4.076  0.00  0.00    +0.320 C 
ATOM     20  N   LIG    1        0.904   0.970  -2.873  0.00  0.00    -0.510 N 
ATOM     21  H   LIG    1        1.481   0.621  -2.123  0.00  0.00    +0.430 HD
ATOM     22  H   LIG    1        1.150   1.928  -3.070  0.00  0.00    +0.430 HD
ENDBRANCH  18  20
ENDBRANCH   1  18
TORSDOF 5
