REMARK  Name = ZINC550000002J02.1
REMARK                            x       y       z     vdW  Elec       q    Type
REMARK                         _______ _______ _______ _____ _____    ______ ____
ROOT
ATOM      1  C   LIG    1       -0.368  -0.729   1.297  0.00  0.00    +0.220 C 
ENDROOT
BRANCH   1   2
ATOM      2  C   LIG    1        0.002  -0.004   0.002  0.00  0.00    +0.120 C 
ATOM      3  C   LIG    1       -0.019   1.526   0.010  0.00  0.00    +0.200 C 
ATOM      4  O   LIG    1        1.198   0.777  -0.005  0.00  0.00    -0.360 OA
ENDBRANCH   1   2
BRANCH   1   5
ATOM      5  O   LIG    1       -0.404  -2.138   1.061  0.00  0.00    -0.570 OA
ATOM      6  H   LIG    1       -0.633  -2.662   1.841  0.00  0.00    +0.390 HD
ENDBRANCH   1   5
TORSDOF 2
