REMARK  Name = ZINCtV00000ROolL.0
REMARK                            x       y       z     vdW  Elec       q    Type
REMARK                         _______ _______ _______ _____ _____    ______ ____
ROOT
ATOM      1  C   LIG    1       -0.498   7.329  -0.593  0.00  0.00    +0.480 A 
ATOM      2  C   LIG    1        0.196   8.223  -1.447  0.00  0.00    -0.220 A 
ATOM      3  C   LIG    1        1.108   7.955  -2.551  0.00  0.00    -0.030 A 
ATOM      4  C   LIG    1        1.587   9.046  -3.146  0.00  0.00    -0.010 A 
ATOM      5  S   LIG    1        0.949  10.504  -2.411  0.00  0.00    +0.200 S 
ATOM      6  C   LIG    1        0.007   9.590  -1.242  0.00  0.00    +0.120 A 
ATOM      7  N   LIG    1       -0.802   9.995  -0.255  0.00  0.00    -0.520 NA
ATOM      8  C   LIG    1       -1.419   9.128   0.514  0.00  0.00    +0.570 A 
ATOM      9  N   LIG    1       -1.278   7.825   0.357  0.00  0.00    -0.570 NA
ENDROOT
BRANCH   3  10
ATOM     10  C   LIG    1        1.471   6.583  -2.978  0.00  0.00    -0.030 A 
ATOM     11  C   LIG    1        2.053   5.699  -2.070  0.00  0.00    +0.020 A 
ATOM     12  C   LIG    1        2.385   4.421  -2.471  0.00  0.00    +0.060 A 
ATOM     13  C   LIG    1        2.151   4.019  -3.775  0.00  0.00    -0.090 A 
ATOM     14  C   LIG    1        1.579   4.895  -4.682  0.00  0.00    +0.060 A 
ATOM     15 BR   LIG    1        2.616   2.269  -4.320  0.00  0.00    -0.040 Br
ATOM     16  C   LIG    1        1.238   6.173  -4.290  0.00  0.00    +0.050 A 
ENDBRANCH   3  10
BRANCH   1  17
ATOM     17  N   LIG    1       -0.359   5.961  -0.746  0.00  0.00    -0.640 N 
ATOM     18  H   LIG    1        0.143   5.605  -1.496  0.00  0.00    +0.420 HD
BRANCH  17  21
ATOM     19  C   LIG    1       -1.999   2.993   0.686  0.00  0.00    +0.140 A 
ATOM     20  C   LIG    1       -1.416   3.851  -0.232  0.00  0.00    -0.070 A 
ATOM     21  C   LIG    1       -0.944   5.090   0.181  0.00  0.00    +0.170 A 
ATOM     22  C   LIG    1       -1.046   5.463   1.515  0.00  0.00    +0.030 A 
ATOM     23  C   LIG    1       -1.623   4.604   2.432  0.00  0.00    +0.010 A 
ATOM     24  C   LIG    1       -2.100   3.370   2.022  0.00  0.00    +0.060 A 
BRANCH  19  26
ATOM     25  C   LIG    1       -2.330   1.461  -1.103  0.00  0.00    +0.240 C 
ATOM     26  O   LIG    1       -2.467   1.782   0.283  0.00  0.00    -0.300 OA
ENDBRANCH  19  26
BRANCH  24  27
ATOM     27  O   LIG    1       -2.667   2.526   2.926  0.00  0.00    -0.310 OA
BRANCH  27  28
ATOM     28  C   LIG    1       -2.737   2.977   4.280  0.00  0.00    +0.590 C 
ATOM     29  F   LIG    1       -3.491   4.154   4.340  0.00  0.00    -0.200 F 
ATOM     30  F   LIG    1       -1.446   3.226   4.757  0.00  0.00    -0.200 F 
ENDBRANCH  27  28
ENDBRANCH  24  27
ENDBRANCH  17  21
ENDBRANCH   1  17
TORSDOF 6
