REMARK  Name = ZINCrg000000tosT.0
REMARK                            x       y       z     vdW  Elec       q    Type
REMARK                         _______ _______ _______ _____ _____    ______ ____
ROOT
ATOM      1  O   LIG    1       -2.491  -0.208   0.012  0.00  0.00    -0.530 OA
ATOM      2  C   LIG    1       -2.503   1.007   0.019  0.00  0.00    +0.560 C 
ATOM      3  N   LIG    1       -3.677   1.669   0.028  0.00  0.00    -0.730 N 
ATOM      4  H   LIG    1       -3.686   2.639   0.034  0.00  0.00    +0.400 HD
ENDROOT
BRANCH   2   5
ATOM      5  C   LIG    1       -1.230   1.759   0.017  0.00  0.00    -0.130 A 
ATOM      6  C   LIG    1       -0.013   1.076   0.008  0.00  0.00    +0.080 A 
ATOM      7  C   LIG    1        1.172   1.783   0.000  0.00  0.00    +0.040 A 
ATOM      8  C   LIG    1        1.155   3.167   0.008  0.00  0.00    -0.080 A 
ATOM      9  C   LIG    1       -0.048   3.850   0.023  0.00  0.00    +0.020 A 
ATOM     10  C   LIG    1       -1.240   3.154   0.031  0.00  0.00    +0.040 A 
BRANCH   8  11
ATOM     11  C   LIG    1        2.452   3.933  -0.001  0.00  0.00    +0.380 C 
BRANCH  11  12
ATOM     12  N   LIG    1        2.859   4.188  -1.385  0.00  0.00    -0.370 N 
ATOM     13  C   LIG    1        3.130   5.396  -1.923  0.00  0.00    +0.220 A 
ATOM     14  C   LIG    1        3.471   5.203  -3.218  0.00  0.00    -0.120 A 
ATOM     15  C   LIG    1        3.397   3.832  -3.484  0.00  0.00    +0.220 A 
ATOM     16  N   LIG    1        3.030   3.223  -2.385  0.00  0.00    -0.290 NA
ENDBRANCH  11  12
ENDBRANCH   8  11
ENDBRANCH   2   5
BRANCH   3  17
ATOM     17  C   LIG    1       -4.938   0.925   0.029  0.00  0.00    +0.270 C 
BRANCH  17  18
ATOM     18  C   LIG    1       -6.111   1.907   0.040  0.00  0.00    +0.260 C 
BRANCH  18  19
ATOM     19  N   LIG    1       -7.372   1.163   0.042  0.00  0.00    -1.110 NA
ATOM     20  H   LIG    1       -7.378   0.218  -0.181  0.00  0.00    +0.420 HD
BRANCH  19  21
ATOM     21  S   LIG    1       -8.788   1.932   0.424  0.00  0.00    +2.710 S 
ATOM     22  O   LIG    1       -8.540   2.657   1.620  0.00  0.00    -0.950 OA
ATOM     23  O   LIG    1       -9.818   0.961   0.303  0.00  0.00    -0.950 OA
BRANCH  21  24
ATOM     24  C   LIG    1       -9.085   3.132  -0.832  0.00  0.00    -0.740 A 
ATOM     25  C   LIG    1       -8.597   4.422  -0.700  0.00  0.00    +0.170 A 
ATOM     26  C   LIG    1       -8.850   5.331  -1.716  0.00  0.00    -0.040 A 
ATOM     27  C   LIG    1       -9.585   4.926  -2.814  0.00  0.00    +0.330 A 
ATOM     28  N   LIG    1      -10.039   3.691  -2.904  0.00  0.00    -0.490 NA
ATOM     29  C   LIG    1       -9.812   2.799  -1.960  0.00  0.00    +0.370 A 
ENDBRANCH  21  24
ENDBRANCH  19  21
ENDBRANCH  18  19
ENDBRANCH  17  18
ENDBRANCH   3  17
TORSDOF 8
