REMARK  Name = ZINCrD00000l4AYc.1
REMARK                            x       y       z     vdW  Elec       q    Type
REMARK                         _______ _______ _______ _____ _____    ______ ____
ROOT
ATOM      1  C   LIG    1        0.002  -0.004   0.002  0.00  0.00    +0.590 C 
ATOM      2  N   LIG    1       -0.021   1.343  -0.031  0.00  0.00    -0.620 N 
ATOM      3  C   LIG    1        1.160   2.219  -0.073  0.00  0.00    +0.240 C 
ATOM      4  C   LIG    1        0.649   3.675  -0.074  0.00  0.00    +0.060 C 
ATOM      5  C   LIG    1       -0.771   3.547   0.538  0.00  0.00    +0.050 C 
ATOM      6  C   LIG    1       -1.233   2.182  -0.038  0.00  0.00    +0.280 C 
ATOM      7  O   LIG    1       -1.034  -0.626   0.137  0.00  0.00    -0.520 OA
ENDROOT
BRANCH   1  12
ATOM      8  C   LIG    1        5.753  -1.575  -0.434  0.00  0.00    +0.050 A 
ATOM      9  C   LIG    1        5.097  -0.414  -0.305  0.00  0.00    -0.020 A 
ATOM     10  C   LIG    1        3.671  -0.757  -0.256  0.00  0.00    -0.190 A 
ATOM     11  C   LIG    1        2.495  -0.023  -0.139  0.00  0.00    +0.150 A 
ATOM     12  C   LIG    1        1.285  -0.725  -0.125  0.00  0.00    -0.210 A 
ATOM     13  C   LIG    1        1.308  -2.119  -0.239  0.00  0.00    +0.400 A 
ATOM     14  N   LIG    1        2.440  -2.778  -0.353  0.00  0.00    -0.470 NA
ATOM     15  C   LIG    1        3.613  -2.159  -0.366  0.00  0.00    +0.280 A 
ATOM     16  O   LIG    1        4.882  -2.599  -0.469  0.00  0.00    -0.170 OA
BRANCH   8  17
ATOM     17  C   LIG    1        7.251  -1.714  -0.526  0.00  0.00    +0.300 C 
BRANCH  17  18
ATOM     18  N   LIG    1        7.812  -1.870   0.823  0.00  0.00    -0.850 NA
ATOM     19  H   LIG    1        7.542  -1.101   1.418  0.00  0.00    +0.350 HD
ATOM     20  H   LIG    1        8.816  -1.965   0.788  0.00  0.00    +0.360 HD
ENDBRANCH  17  18
ENDBRANCH   8  17
ENDBRANCH   1  12
BRANCH   5  21
ATOM     21  C   LIG    1       -1.667   4.662   0.063  0.00  0.00    -0.030 A 
ATOM     22  C   LIG    1       -1.917   4.818  -1.287  0.00  0.00    +0.030 A 
ATOM     23  C   LIG    1       -2.744   5.839  -1.724  0.00  0.00    +0.110 A 
ATOM     24  C   LIG    1       -3.312   6.710  -0.808  0.00  0.00    +0.030 A 
ATOM     25  C   LIG    1       -3.055   6.555   0.545  0.00  0.00    +0.110 A 
ATOM     26  F   LIG    1       -3.608   7.403   1.440  0.00  0.00    -0.120 F 
ATOM     27  F   LIG    1       -4.114   7.710  -1.234  0.00  0.00    -0.110 F 
ATOM     28  F   LIG    1       -2.993   5.988  -3.044  0.00  0.00    -0.120 F 
ATOM     29  C   LIG    1       -2.232   5.530   0.979  0.00  0.00    +0.030 A 
ENDBRANCH   5  21
TORSDOF 4
