REMARK  Name = ZINCrH000004vA4z.0
REMARK                            x       y       z     vdW  Elec       q    Type
REMARK                         _______ _______ _______ _____ _____    ______ ____
ROOT
ATOM      1  C   LIG    1       -2.007   2.438   3.541  0.00  0.00    -0.110 A 
ATOM      2  C   LIG    1       -2.200   1.122   3.118  0.00  0.00    +0.050 A 
ATOM      3  C   LIG    1       -1.544   0.658   1.996  0.00  0.00    +0.050 A 
ATOM      4  C   LIG    1       -0.697   1.495   1.291  0.00  0.00    -0.100 A 
ATOM      5  C   LIG    1       -0.497   2.799   1.708  0.00  0.00    +0.030 A 
ATOM      6  C   LIG    1       -1.151   3.277   2.825  0.00  0.00    +0.070 A 
ENDROOT
BRANCH   1   8
ATOM      7  O   LIG    1       -2.100   3.590   5.572  0.00  0.00    -0.530 OA
ATOM      8  C   LIG    1       -2.707   2.942   4.742  0.00  0.00    +0.570 C 
ATOM      9  N   LIG    1       -4.018   2.684   4.916  0.00  0.00    -0.610 N 
ATOM     10  C   LIG    1       -4.752   3.241   6.062  0.00  0.00    +0.310 C 
ATOM     11  C   LIG    1       -5.813   4.213   5.537  0.00  0.00    +0.110 C 
ATOM     12  C   LIG    1       -6.534   3.574   4.369  0.00  0.00    -0.170 A 
ATOM     13  C   LIG    1       -6.079   2.525   3.658  0.00  0.00    -0.130 A 
ATOM     14  C   LIG    1       -6.928   2.133   2.628  0.00  0.00    +0.020 A 
ATOM     15  C   LIG    1       -8.049   2.838   2.507  0.00  0.00    -0.040 A 
ATOM     16  S   LIG    1       -8.093   4.091   3.738  0.00  0.00    +0.110 S 
ATOM     17  C   LIG    1       -4.754   1.842   3.962  0.00  0.00    +0.360 C 
ENDBRANCH   1   8
BRANCH   4  18
ATOM     18  C   LIG    1        0.015   0.981   0.067  0.00  0.00    +0.400 C 
BRANCH  18  19
ATOM     19  N   LIG    1       -0.812   1.223  -1.118  0.00  0.00    -0.390 N 
ATOM     20  N   LIG    1       -1.771   0.356  -1.663  0.00  0.00    -0.000 NA
ATOM     21  N   LIG    1       -2.302   0.903  -2.699  0.00  0.00    -0.220 NA
ATOM     22  C   LIG    1       -1.758   2.116  -2.920  0.00  0.00    -0.020 A 
ATOM     23  C   LIG    1       -1.971   3.098  -3.896  0.00  0.00    +0.110 A 
ATOM     24  C   LIG    1       -1.252   4.257  -3.865  0.00  0.00    +0.010 A 
ATOM     25  C   LIG    1       -0.305   4.479  -2.874  0.00  0.00    +0.080 A 
ATOM     26  C   LIG    1       -0.076   3.530  -1.903  0.00  0.00    +0.000 A 
ATOM     27  C   LIG    1       -0.799   2.342  -1.916  0.00  0.00    +0.090 A 
ENDBRANCH  18  19
ENDBRANCH   4  18
TORSDOF 3
