REMARK  Name = ZINCpk00000xIcm0.1
REMARK                            x       y       z     vdW  Elec       q    Type
REMARK                         _______ _______ _______ _____ _____    ______ ____
ROOT
ATOM      1  C   LIG    1        0.498   4.211   0.020  0.00  0.00    +0.290 C 
ATOM      2  N   LIG    1        1.625   3.275   0.004  0.00  0.00    -0.610 N 
ATOM      3  C   LIG    1        1.397   1.946  -0.001  0.00  0.00    +0.510 C 
ATOM      4  O   LIG    1        2.329   1.171  -0.014  0.00  0.00    -0.510 OA
ENDROOT
BRANCH   3   5
ATOM      5  C   LIG    1       -0.017   1.425   0.010  0.00  0.00    +0.240 C 
BRANCH   5   6
ATOM      6  O   LIG    1        0.002  -0.004   0.002  0.00  0.00    -0.280 OA
BRANCH   6   7
ATOM      7  C   LIG    1       -1.201  -0.638   0.010  0.00  0.00    +0.090 A 
ATOM      8  C   LIG    1       -2.374   0.100   0.025  0.00  0.00    -0.010 A 
ATOM      9  C   LIG    1       -3.596  -0.545   0.033  0.00  0.00    +0.030 A 
ATOM     10  C   LIG    1       -3.651  -1.928   0.026  0.00  0.00    +0.090 A 
ATOM     11  C   LIG    1       -2.481  -2.668   0.011  0.00  0.00    +0.010 A 
ATOM     12  F   LIG    1       -4.847  -2.556   0.034  0.00  0.00    -0.130 F 
ATOM     13  C   LIG    1       -1.256  -2.026  -0.003  0.00  0.00    +0.110 A 
ATOM     14  F   LIG    1       -0.114  -2.748  -0.023  0.00  0.00    -0.120 F 
ENDBRANCH   6   7
ENDBRANCH   5   6
ENDBRANCH   3   5
BRANCH   2  15
ATOM     15  C   LIG    1        2.999   3.782  -0.006  0.00  0.00    +0.310 C 
BRANCH  15  16
ATOM     16  C   LIG    1        3.464   3.966  -1.452  0.00  0.00    +0.160 C 
ATOM     17  O   LIG    1        2.759   5.064  -2.071  0.00  0.00    -0.360 OA
ATOM     18  C   LIG    1        3.582   5.463  -3.189  0.00  0.00    +0.210 C 
ATOM     19  C   LIG    1        5.031   5.388  -2.659  0.00  0.00    +0.020 C 
ATOM     20  C   LIG    1        4.952   4.381  -1.490  0.00  0.00    +0.080 C 
BRANCH  20  21
ATOM     21  C   LIG    1        5.350   5.038  -0.194  0.00  0.00    +0.230 A 
ATOM     22  N   LIG    1        6.282   4.615   0.618  0.00  0.00    -0.310 NA
ATOM     23  N   LIG    1        6.324   5.516   1.694  0.00  0.00    -0.480 N 
ATOM     24  H   LIG    1        6.913   5.476   2.463  0.00  0.00    +0.440 HD
ATOM     25  C   LIG    1        5.385   6.446   1.445  0.00  0.00    +0.480 A 
ATOM     26  N   LIG    1        4.812   6.150   0.307  0.00  0.00    -0.530 NA
ENDBRANCH  20  21
ENDBRANCH  15  16
ENDBRANCH   2  15
TORSDOF 6
