REMARK  Name = ZINCpk00000xIcm0.0
REMARK                            x       y       z     vdW  Elec       q    Type
REMARK                         _______ _______ _______ _____ _____    ______ ____
ROOT
ATOM      1  C   LIG    1       -1.296   2.176   0.020  0.00  0.00    +0.290 C 
ATOM      2  N   LIG    1       -0.018   1.461   0.010  0.00  0.00    -0.610 N 
ATOM      3  C   LIG    1        1.140   2.151   0.003  0.00  0.00    +0.510 C 
ATOM      4  O   LIG    1        2.199   1.558  -0.011  0.00  0.00    -0.500 OA
ENDROOT
BRANCH   3   5
ATOM      5  C   LIG    1        1.120   3.657   0.011  0.00  0.00    +0.240 C 
BRANCH   5   6
ATOM      6  O   LIG    1        2.460   4.152   0.001  0.00  0.00    -0.280 OA
BRANCH   6   7
ATOM      7  C   LIG    1        2.620   5.503   0.007  0.00  0.00    +0.090 A 
ATOM      8  C   LIG    1        1.510   6.332   0.016  0.00  0.00    -0.010 A 
ATOM      9  C   LIG    1        1.674   7.705   0.027  0.00  0.00    +0.030 A 
ATOM     10  C   LIG    1        2.945   8.252   0.017  0.00  0.00    +0.100 A 
ATOM     11  C   LIG    1        4.056   7.425   0.003  0.00  0.00    +0.010 A 
ATOM     12  F   LIG    1        3.103   9.594   0.022  0.00  0.00    -0.130 F 
ATOM     13  C   LIG    1        3.896   6.052  -0.003  0.00  0.00    +0.110 A 
ATOM     14  F   LIG    1        4.980   5.245  -0.017  0.00  0.00    -0.120 F 
ENDBRANCH   6   7
ENDBRANCH   5   6
ENDBRANCH   3   5
BRANCH   2  15
ATOM     15  C   LIG    1        0.002  -0.004   0.002  0.00  0.00    +0.310 C 
BRANCH  15  16
ATOM     16  C   LIG    1        0.023  -0.522   1.442  0.00  0.00    +0.160 C 
ATOM     17  O   LIG    1       -1.215  -0.196   2.096  0.00  0.00    -0.370 OA
ATOM     18  C   LIG    1       -1.507  -1.277   3.007  0.00  0.00    +0.220 C 
ATOM     19  C   LIG    1       -1.104  -2.542   2.208  0.00  0.00    +0.020 C 
ATOM     20  C   LIG    1        0.152  -2.057   1.444  0.00  0.00    +0.100 C 
BRANCH  20  21
ATOM     21  C   LIG    1        0.151  -2.589   0.035  0.00  0.00    +0.180 A 
ATOM     22  N   LIG    1        1.201  -2.855  -0.693  0.00  0.00    -0.280 NA
ATOM     23  N   LIG    1        0.831  -3.296  -1.843  0.00  0.00    -0.290 NA
ATOM     24  C   LIG    1       -0.472  -3.323  -1.905  0.00  0.00    +0.380 A 
ATOM     25  N   LIG    1       -0.942  -2.875  -0.715  0.00  0.00    -0.580 N 
ATOM     26  H   LIG    1       -1.871  -2.779  -0.453  0.00  0.00    +0.430 HD
ENDBRANCH  20  21
ENDBRANCH  15  16
ENDBRANCH   2  15
TORSDOF 6
