REMARK  Name = ZINCpk00000y4AFN.1
REMARK                            x       y       z     vdW  Elec       q    Type
REMARK                         _______ _______ _______ _____ _____    ______ ____
ROOT
ATOM      1  C   LIG    1        1.239   1.654   2.912  0.00  0.00    +0.180 C 
ATOM      2  C   LIG    1       -0.169   2.035   2.532  0.00  0.00    +0.160 A 
ATOM      3  N   LIG    1       -1.081   2.504   3.345  0.00  0.00    -0.290 NA
ATOM      4  N   LIG    1       -2.252   2.726   2.610  0.00  0.00    -0.350 N 
ATOM      5  C   LIG    1       -2.005   2.377   1.320  0.00  0.00    +0.240 A 
ATOM      6  C   LIG    1       -0.723   1.951   1.250  0.00  0.00    -0.160 A 
ENDROOT
BRANCH   4   7
ATOM      7  C   LIG    1       -3.461   3.220   3.113  0.00  0.00    +0.320 C 
ATOM      8  C   LIG    1       -4.560   3.405   2.278  0.00  0.00    +0.010 C 
ATOM      9  C   LIG    1       -5.736   3.890   2.814  0.00  0.00    +0.390 C 
ATOM     10  N   LIG    1       -5.822   4.186   4.097  0.00  0.00    -0.470 NA
ATOM     11  C   LIG    1       -4.802   4.030   4.919  0.00  0.00    +0.370 C 
ATOM     12  H   LIG    1       -6.660   4.529   4.446  0.00  0.00    +0.450 HD
ATOM     13  C   LIG    1       -3.593   3.545   4.461  0.00  0.00    +0.040 C 
ENDBRANCH   4   7
BRANCH   6  14
ATOM     14  C   LIG    1       -0.018   1.465   0.010  0.00  0.00    +0.280 C 
BRANCH  14  15
ATOM     15  N   LIG    1        0.002  -0.004   0.002  0.00  0.00    -0.540 NA
ATOM     16  C   LIG    1        0.881  -0.513  -1.060  0.00  0.00    +0.190 C 
ATOM     17  C   LIG    1        1.181  -1.997  -0.820  0.00  0.00    +0.320 C 
ATOM     18  N   LIG    1       -0.093  -2.696  -0.600  0.00  0.00    -0.310 N 
ATOM     19  N   LIG    1       -0.310  -3.957  -0.662  0.00  0.00    -0.260 NA
ATOM     20  C   LIG    1       -1.581  -4.214  -0.410  0.00  0.00    -0.010 A 
ATOM     21  C   LIG    1       -2.217  -2.971  -0.164  0.00  0.00    -0.040 A 
ATOM     22  C   LIG    1       -1.251  -2.045  -0.291  0.00  0.00    -0.030 A 
ATOM     23  C   LIG    1       -1.360  -0.550  -0.133  0.00  0.00    +0.280 C 
BRANCH  20  24
ATOM     24  C   LIG    1       -2.218  -5.543  -0.388  0.00  0.00    +0.560 C 
ATOM     25  O   LIG    1       -1.553  -6.544  -0.619  0.00  0.00    -0.670 OA
ATOM     26  O   LIG    1       -3.411  -5.645  -0.139  0.00  0.00    -0.680 OA
ENDBRANCH  20  24
ENDBRANCH  14  15
ENDBRANCH   6  14
TORSDOF 4
