REMARK  Name = ZINCrD000000D0Xs.0
REMARK                            x       y       z     vdW  Elec       q    Type
REMARK                         _______ _______ _______ _____ _____    ______ ____
ROOT
ATOM      1  O   LIG    1        6.549  -0.250  -1.680  0.00  0.00    -0.950 OA
ATOM      2  S   LIG    1        5.606   0.724  -1.253  0.00  0.00    +2.610 S 
ATOM      3  O   LIG    1        5.475   1.964  -1.935  0.00  0.00    -0.950 OA
ENDROOT
BRANCH   2   4
ATOM      4  N   LIG    1        4.137  -0.012  -1.458  0.00  0.00    -0.970 NA
BRANCH   4   5
ATOM      5  C   LIG    1        4.038  -1.473  -1.417  0.00  0.00    +0.210 C 
ATOM      6  C   LIG    1        2.670  -2.096  -1.703  0.00  0.00    +0.040 C 
ATOM      7  C   LIG    1        3.228  -2.095  -0.278  0.00  0.00    +0.000 C 
ENDBRANCH   4   5
BRANCH   4   8
ATOM      8  C   LIG    1        2.937   0.798  -1.679  0.00  0.00    +0.300 C 
BRANCH   8   9
ATOM      9  C   LIG    1        2.662   0.903  -3.180  0.00  0.00    +0.070 C 
BRANCH   9  10
ATOM     10  C   LIG    1        1.442   1.758  -3.409  0.00  0.00    -0.090 A 
ATOM     11  C   LIG    1        1.577   3.124  -3.573  0.00  0.00    +0.060 A 
ATOM     12  C   LIG    1        0.459   3.910  -3.777  0.00  0.00    -0.010 A 
ATOM     13  C   LIG    1       -0.796   3.328  -3.829  0.00  0.00    +0.100 A 
ATOM     14  C   LIG    1       -0.930   1.959  -3.665  0.00  0.00    -0.010 A 
ATOM     15  F   LIG    1       -1.889   4.094  -4.033  0.00  0.00    -0.140 F 
ATOM     16  C   LIG    1        0.189   1.176  -3.456  0.00  0.00    +0.040 A 
ENDBRANCH   9  10
ENDBRANCH   8   9
ENDBRANCH   4   8
ENDBRANCH   2   4
BRANCH   2  17
ATOM     17  C   LIG    1        5.734   0.992   0.536  0.00  0.00    -0.350 C 
BRANCH  17  18
ATOM     18  C   LIG    1        7.065   1.675   0.857  0.00  0.00    +0.110 C 
BRANCH  18  19
ATOM     19  C   LIG    1        7.170   1.897   2.343  0.00  0.00    -0.110 A 
ATOM     20  C   LIG    1        6.705   3.072   2.904  0.00  0.00    +0.050 A 
ATOM     21  C   LIG    1        6.798   3.281   4.264  0.00  0.00    -0.010 A 
ATOM     22  C   LIG    1        7.373   2.313   5.084  0.00  0.00    +0.110 A 
ATOM     23  O   LIG    1        7.578   2.319   6.430  0.00  0.00    -0.300 OA
ATOM     24  C   LIG    1        7.790   0.971   6.883  0.00  0.00    +0.240 C 
ATOM     25  C   LIG    1        8.385   0.279   5.634  0.00  0.00    +0.070 C 
ATOM     26  C   LIG    1        7.836   1.136   4.510  0.00  0.00    -0.170 A 
ATOM     27  C   LIG    1        7.739   0.929   3.152  0.00  0.00    +0.070 A 
ENDBRANCH  18  19
ENDBRANCH  17  18
ENDBRANCH   2  17
TORSDOF 8
