REMARK  Name = ZINCrH00000tj1hr.0
REMARK                            x       y       z     vdW  Elec       q    Type
REMARK                         _______ _______ _______ _____ _____    ______ ____
ROOT
ATOM      1  O   LIG    1        1.095   3.379  -0.140  0.00  0.00    -0.520 OA
ATOM      2  C   LIG    1        1.126   2.172   0.003  0.00  0.00    +0.580 C 
ATOM      3  C   LIG    1        2.414   1.476   0.170  0.00  0.00    -0.200 A 
ATOM      4  C   LIG    1        3.628   2.131  -0.023  0.00  0.00    +0.110 A 
ATOM      5  C   LIG    1        4.809   1.432   0.123  0.00  0.00    -0.040 A 
ATOM      6  C   LIG    1        4.794   0.088   0.460  0.00  0.00    +0.080 A 
ATOM      7  C   LIG    1        3.596  -0.573   0.661  0.00  0.00    -0.050 A 
ATOM      8  C   LIG    1        2.403   0.116   0.524  0.00  0.00    +0.230 A 
ATOM      9  N   LIG    1        1.174  -0.502   0.731  0.00  0.00    -0.740 N 
ATOM     10  H   LIG    1        1.093  -1.247   1.347  0.00  0.00    +0.420 HD
ATOM     11  C   LIG    1        0.002  -0.004   0.002  0.00  0.00    +0.600 C 
ATOM     12  N   LIG    1       -0.018   1.459   0.010  0.00  0.00    -0.610 N 
ENDROOT
BRANCH  11  13
ATOM     13  C   LIG    1        0.055  -0.494  -1.422  0.00  0.00    -0.040 A 
ATOM     14  N   LIG    1       -0.448   0.097  -2.482  0.00  0.00    -0.250 NA
ATOM     15  N   LIG    1       -0.197  -0.626  -3.516  0.00  0.00    -0.100 N 
ATOM     16  N   LIG    1        0.449  -1.688  -3.184  0.00  0.00    -0.290 NA
ATOM     17  C   LIG    1        0.644  -1.674  -1.885  0.00  0.00    +0.210 A 
BRANCH  15  18
ATOM     18  C   LIG    1       -0.582  -0.305  -4.825  0.00  0.00    +0.140 A 
ATOM     19  C   LIG    1       -1.285   0.866  -5.076  0.00  0.00    +0.040 A 
ATOM     20  C   LIG    1       -1.657   1.183  -6.368  0.00  0.00    +0.040 A 
ATOM     21  C   LIG    1       -1.342   0.330  -7.409  0.00  0.00    +0.020 A 
ATOM     22  C   LIG    1       -0.648  -0.840  -7.161  0.00  0.00    +0.040 A 
ATOM     23  C   LIG    1       -0.267  -1.160  -5.873  0.00  0.00    +0.040 A 
ENDBRANCH  15  18
ENDBRANCH  11  13
BRANCH  12  24
ATOM     24  C   LIG    1       -1.304   2.161   0.020  0.00  0.00    +0.240 C 
ATOM     25  C   LIG    1       -1.397   3.111  -1.192  0.00  0.00    +0.020 C 
ATOM     26  C   LIG    1       -2.145   4.352  -0.646  0.00  0.00    +0.010 C 
ATOM     27  C   LIG    1       -1.570   4.495   0.785  0.00  0.00    +0.010 C 
ATOM     28  C   LIG    1       -1.414   3.041   1.277  0.00  0.00    +0.010 C 
ENDBRANCH  12  24
TORSDOF 3
