REMARK  Name = ZINCrH000004tfUU.0
REMARK                            x       y       z     vdW  Elec       q    Type
REMARK                         _______ _______ _______ _____ _____    ______ ____
ROOT
ATOM      1  C   LIG    1        0.777  -2.900  -1.014  0.00  0.00    +0.170 A 
ATOM      2  N   LIG    1        0.975  -4.148  -0.650  0.00  0.00    -0.480 NA
ATOM      3  C   LIG    1        1.553  -4.170   0.557  0.00  0.00    +0.020 A 
ATOM      4  C   LIG    1        1.729  -2.898   0.966  0.00  0.00    -0.010 A 
ATOM      5  C   LIG    1        2.342  -2.502   2.284  0.00  0.00    +0.110 C 
ATOM      6  C   LIG    1        2.350  -3.728   3.204  0.00  0.00    +0.040 C 
ATOM      7  C   LIG    1        2.941  -4.925   2.454  0.00  0.00    +0.020 C 
ATOM      8  C   LIG    1        1.964  -5.378   1.362  0.00  0.00    +0.130 C 
ATOM      9  N   LIG    1        1.237  -2.082  -0.021  0.00  0.00    -0.390 N 
ENDROOT
BRANCH   9  10
ATOM     10  C   LIG    1        1.214  -0.680  -0.013  0.00  0.00    +0.100 A 
ATOM     11  C   LIG    1        0.002  -0.004   0.002  0.00  0.00    +0.030 A 
ATOM     12  C   LIG    1       -0.017   1.377   0.010  0.00  0.00    +0.040 A 
ATOM     13  C   LIG    1        1.171   2.086   0.002  0.00  0.00    +0.030 A 
ATOM     14  C   LIG    1        2.380   1.415  -0.013  0.00  0.00    +0.020 A 
ATOM     15  C   LIG    1        2.405   0.034  -0.021  0.00  0.00    +0.030 A 
ENDBRANCH   9  10
BRANCH   1  16
ATOM     16  S   LIG    1        0.043  -2.371  -2.526  0.00  0.00    +0.070 S 
BRANCH  16  17
ATOM     17  C   LIG    1       -0.292  -3.977  -3.291  0.00  0.00    +0.120 C 
BRANCH  17  20
ATOM     18  N   LIG    1       -1.281  -4.830  -5.392  0.00  0.00    -0.710 N 
ATOM     19  H   LIG    1       -1.110  -5.729  -5.071  0.00  0.00    +0.410 HD
ATOM     20  C   LIG    1       -0.940  -3.767  -4.636  0.00  0.00    +0.530 C 
ATOM     21  O   LIG    1       -1.154  -2.643  -5.037  0.00  0.00    -0.510 OA
BRANCH  18  22
ATOM     22  C   LIG    1       -1.911  -4.626  -6.699  0.00  0.00    +0.280 C 
ATOM     23  C   LIG    1       -3.271  -3.920  -6.526  0.00  0.00    +0.050 C 
ATOM     24  C   LIG    1       -4.178  -4.574  -7.598  0.00  0.00    +0.020 C 
ATOM     25  C   LIG    1       -3.728  -6.056  -7.568  0.00  0.00    +0.040 C 
ATOM     26  C   LIG    1       -2.201  -5.984  -7.361  0.00  0.00    +0.060 C 
BRANCH  22  28
ATOM     27  N   LIG    1       -0.351  -3.201  -8.229  0.00  0.00    -0.400 NA
ATOM     28  C   LIG    1       -1.031  -3.822  -7.562  0.00  0.00    +0.200 C 
ENDBRANCH  22  28
ENDBRANCH  18  22
ENDBRANCH  17  20
ENDBRANCH  16  17
ENDBRANCH   1  16
TORSDOF 6
