REMARK  Name = ZINCrg00000SjSL3.0
REMARK                            x       y       z     vdW  Elec       q    Type
REMARK                         _______ _______ _______ _____ _____    ______ ____
ROOT
ATOM      1  C   LIG    1       -3.918  -6.431  -3.051  0.00  0.00    +0.500 C 
ATOM      2  N   LIG    1       -3.157  -5.346  -2.808  0.00  0.00    -0.730 N 
ATOM      3  H   LIG    1       -2.864  -4.785  -3.542  0.00  0.00    +0.400 HD
ATOM      4  O   LIG    1       -4.284  -7.134  -2.132  0.00  0.00    -0.520 OA
ENDROOT
BRANCH   1   5
ATOM      5  C   LIG    1       -4.316  -6.771  -4.464  0.00  0.00    +0.330 C 
BRANCH   5  13
ATOM      6  C   LIG    1      -10.528 -10.963  -4.181  0.00  0.00    +0.150 C 
ATOM      7  C   LIG    1       -9.089 -10.528  -4.276  0.00  0.00    -0.200 A 
ATOM      8  C   LIG    1       -8.686  -9.271  -4.240  0.00  0.00    -0.040 A 
ATOM      9  C   LIG    1       -7.252  -9.089  -4.348  0.00  0.00    -0.220 A 
ATOM     10  C   LIG    1       -6.577 -10.300  -4.470  0.00  0.00    +0.070 A 
ATOM     11  N   LIG    1       -5.231 -10.303  -4.580  0.00  0.00    -0.500 NA
ATOM     12  C   LIG    1       -4.543  -9.201  -4.582  0.00  0.00    +0.600 A 
ATOM     13  N   LIG    1       -5.136  -7.985  -4.462  0.00  0.00    -0.520 N 
ATOM     14  C   LIG    1       -6.475  -7.889  -4.347  0.00  0.00    +0.570 A 
ATOM     15  O   LIG    1       -7.013  -6.800  -4.244  0.00  0.00    -0.520 OA
ATOM     16  C   LIG    1       -9.643  -8.116  -4.098  0.00  0.00    +0.120 C 
ATOM     17  S   LIG    1       -7.732 -11.626  -4.447  0.00  0.00    +0.200 S 
ENDBRANCH   5  13
ENDBRANCH   1   5
BRANCH   2  18
ATOM     18  C   LIG    1       -2.770  -5.016  -1.434  0.00  0.00    +0.260 C 
BRANCH  18  19
ATOM     19  C   LIG    1       -1.914  -3.748  -1.436  0.00  0.00    +0.030 C 
BRANCH  19  20
ATOM     20  C   LIG    1       -1.510  -3.403  -0.001  0.00  0.00    +0.130 C 
BRANCH  20  21
ATOM     21  C   LIG    1       -0.667  -2.154  -0.003  0.00  0.00    +0.180 A 
ATOM     22  C   LIG    1       -1.133  -0.855   0.014  0.00  0.00    -0.220 A 
ATOM     23  C   LIG    1        0.002  -0.004   0.002  0.00  0.00    +0.390 A 
ATOM     24  N   LIG    1        1.071  -0.761  -0.012  0.00  0.00    -0.340 NA
ATOM     25  N   LIG    1        0.675  -2.103  -0.015  0.00  0.00    -0.450 N 
ATOM     26  H   LIG    1        1.271  -2.868  -0.024  0.00  0.00    +0.450 HD
BRANCH  23  27
ATOM     27  N   LIG    1       -0.017   1.392   0.010  0.00  0.00    -0.840 N 
ATOM     28  H   LIG    1       -0.863   1.865   0.016  0.00  0.00    +0.410 HD
ATOM     29  H   LIG    1        0.817   1.888   0.004  0.00  0.00    +0.410 HD
ENDBRANCH  23  27
BRANCH  22  30
ATOM     30  C   LIG    1       -2.504  -0.443   0.036  0.00  0.00    +0.290 C 
ATOM     31  N   LIG    1       -3.592  -0.116   0.053  0.00  0.00    -0.430 NA
ENDBRANCH  22  30
ENDBRANCH  20  21
ENDBRANCH  19  20
ENDBRANCH  18  19
ENDBRANCH   2  18
TORSDOF 8
