REMARK  Name = ZINCqH0000006jyd.0
REMARK                            x       y       z     vdW  Elec       q    Type
REMARK                         _______ _______ _______ _____ _____    ______ ____
ROOT
ATOM      1  C   LIG    1       -0.764   1.686   4.662  0.00  0.00    +0.430 C 
ATOM      2  O   LIG    1       -1.629   2.141   5.383  0.00  0.00    -0.450 OA
ENDROOT
BRANCH   1   6
ATOM      3  N   LIG    1       -2.206   0.829   1.441  0.00  0.00    -0.430 N 
ATOM      4  C   LIG    1       -0.916   0.452   1.206  0.00  0.00    +0.020 A 
ATOM      5  C   LIG    1       -0.179   0.692   2.303  0.00  0.00    +0.000 A 
ATOM      6  C   LIG    1       -1.095   1.260   3.300  0.00  0.00    -0.270 A 
ATOM      7  C   LIG    1       -0.398  -0.134  -0.083  0.00  0.00    +0.130 C 
ATOM      8  C   LIG    1       -2.335   1.310   2.690  0.00  0.00    +0.130 A 
ATOM      9  C   LIG    1       -3.608   1.820   3.314  0.00  0.00    +0.150 C 
BRANCH   3  10
ATOM     10  C   LIG    1       -3.298   0.721   0.470  0.00  0.00    +0.230 C 
ATOM     11  C   LIG    1       -3.351  -0.704  -0.083  0.00  0.00    +0.060 C 
BRANCH  10  12
ATOM     12  C   LIG    1       -3.060   1.705  -0.677  0.00  0.00    +0.170 C 
BRANCH  12  14
ATOM     13  C   LIG    1       -4.020   2.512  -2.719  0.00  0.00    +0.200 C 
ATOM     14  O   LIG    1       -4.145   1.628  -1.603  0.00  0.00    -0.380 OA
ENDBRANCH  12  14
ENDBRANCH  10  12
ENDBRANCH   3  10
ENDBRANCH   1   6
BRANCH   1  15
ATOM     15  C   LIG    1        0.649   1.560   5.168  0.00  0.00    +0.210 C 
BRANCH  15  16
ATOM     16  O   LIG    1        0.718   2.038   6.513  0.00  0.00    -0.280 OA
BRANCH  16  17
ATOM     17  C   LIG    1        1.932   1.993   7.122  0.00  0.00    +0.190 A 
ATOM     18  C   LIG    1        3.034   1.500   6.440  0.00  0.00    -0.070 A 
ATOM     19  C   LIG    1        4.268   1.456   7.061  0.00  0.00    +0.150 A 
ATOM     20  C   LIG    1        4.404   1.904   8.362  0.00  0.00    -0.090 A 
ATOM     21  C   LIG    1        3.307   2.396   9.045  0.00  0.00    +0.030 A 
ATOM     22  C   LIG    1        3.459   2.884  10.463  0.00  0.00    +0.130 C 
ATOM     23  C   LIG    1        2.073   2.446   8.426  0.00  0.00    +0.000 A 
BRANCH  20  24
ATOM     24  N   LIG    1        5.726   1.856   9.025  0.00  0.00    +0.040 N 
ATOM     25  O   LIG    1        5.876   2.363  10.122  0.00  0.00    -0.160 OA
ATOM     26  O   LIG    1        6.665   1.310   8.474  0.00  0.00    -0.170 OA
ENDBRANCH  20  24
ENDBRANCH  16  17
ENDBRANCH  15  16
ENDBRANCH   1  15
TORSDOF 8
