REMARK  Name = ZINCpk000000mSDF.1
REMARK                            x       y       z     vdW  Elec       q    Type
REMARK                         _______ _______ _______ _____ _____    ______ ____
ROOT
ATOM      1  C   LIG    1       -2.503   1.006   0.014  0.00  0.00    +0.560 C 
ATOM      2  N   LIG    1       -2.490  -0.341   0.004  0.00  0.00    -0.730 N 
ATOM      3  H   LIG    1       -1.645  -0.818  -0.004  0.00  0.00    +0.400 HD
ATOM      4  O   LIG    1       -3.562   1.604   0.023  0.00  0.00    -0.540 OA
ENDROOT
BRANCH   1  12
ATOM      5  C   LIG    1        4.613   4.747  -0.128  0.00  0.00    +0.110 C 
ATOM      6  C   LIG    1        3.537   3.698  -0.010  0.00  0.00    +0.520 C 
ATOM      7  N   LIG    1        2.239   4.062   0.004  0.00  0.00    -0.560 N 
ATOM      8  C   LIG    1        1.757   5.445   0.019  0.00  0.00    +0.280 C 
ATOM      9  C   LIG    1        0.223   5.338   0.033  0.00  0.00    +0.110 C 
ATOM     10  C   LIG    1       -0.052   3.851   0.024  0.00  0.00    -0.150 A 
ATOM     11  C   LIG    1       -1.241   3.155   0.030  0.00  0.00    +0.130 A 
ATOM     12  C   LIG    1       -1.233   1.757   0.014  0.00  0.00    -0.160 A 
ATOM     13  C   LIG    1       -0.013   1.076   0.003  0.00  0.00    +0.070 A 
ATOM     14  C   LIG    1        1.168   1.778  -0.003  0.00  0.00    +0.010 A 
ATOM     15  C   LIG    1        1.162   3.177   0.008  0.00  0.00    +0.170 A 
ATOM     16  O   LIG    1        3.839   2.526   0.071  0.00  0.00    -0.520 OA
ENDBRANCH   1  12
BRANCH   2  17
ATOM     17  C   LIG    1       -3.751  -1.086   0.004  0.00  0.00    +0.260 C 
BRANCH  17  18
ATOM     18  C   LIG    1       -3.457  -2.588  -0.009  0.00  0.00    +0.010 C 
BRANCH  18  19
ATOM     19  C   LIG    1       -4.774  -3.366  -0.009  0.00  0.00    +0.040 C 
BRANCH  19  20
ATOM     20  C   LIG    1       -4.479  -4.867  -0.022  0.00  0.00    +0.180 C 
BRANCH  20  21
ATOM     21  N   LIG    1       -5.744  -5.614  -0.022  0.00  0.00    -0.540 NA
ATOM     22  C   LIG    1       -6.472  -5.418   1.240  0.00  0.00    +0.140 C 
ATOM     23  C   LIG    1       -7.807  -6.164   1.174  0.00  0.00    +0.220 C 
ATOM     24  O   LIG    1       -7.563  -7.546   0.899  0.00  0.00    -0.390 OA
ATOM     25  C   LIG    1       -6.856  -7.774  -0.323  0.00  0.00    +0.220 C 
ATOM     26  C   LIG    1       -5.511  -7.044  -0.272  0.00  0.00    +0.150 C 
ENDBRANCH  20  21
ENDBRANCH  19  20
ENDBRANCH  18  19
ENDBRANCH  17  18
ENDBRANCH   2  17
TORSDOF 6
