REMARK  Name = ZINCnE000001JUKU.0
REMARK                            x       y       z     vdW  Elec       q    Type
REMARK                         _______ _______ _______ _____ _____    ______ ____
ROOT
ATOM      1  C   LIG    1        2.600   5.765  -4.938  0.00  0.00    +0.140 C 
ENDROOT
BRANCH   1   2
ATOM      2  C   LIG    1        2.973   6.713  -6.048  0.00  0.00    -0.030 A 
ATOM      3  C   LIG    1        3.585   6.232  -7.190  0.00  0.00    +0.060 A 
ATOM      4  C   LIG    1        3.923   7.102  -8.216  0.00  0.00    +0.070 A 
ATOM      5  C   LIG    1        3.654   8.459  -8.089  0.00  0.00    +0.050 A 
ATOM      6  O   LIG    1        3.975   9.329  -9.086  0.00  0.00    -0.300 OA
ATOM      7  C   LIG    1        4.916   8.870 -10.062  0.00  0.00    +0.220 C 
ATOM      8  C   LIG    1        4.510   7.454 -10.493  0.00  0.00    +0.220 C 
ATOM      9  C   LIG    1        3.046   8.938  -6.938  0.00  0.00    +0.070 A 
ATOM     10  O   LIG    1        4.524   6.612  -9.335  0.00  0.00    -0.300 OA
ATOM     11  C   LIG    1        2.706   8.065  -5.921  0.00  0.00    -0.080 A 
ATOM     12 BR   LIG    1        1.876   8.720  -4.353  0.00  0.00    -0.020 Br
ENDBRANCH   1   2
BRANCH   1  13
ATOM     13  S   LIG    1        0.915   5.149  -5.208  0.00  0.00    -0.020 S 
BRANCH  13  18
ATOM     14  N   LIG    1       -0.721   1.571  -1.179  0.00  0.00    -0.620 NA
ATOM     15  C   LIG    1       -0.135   2.416  -1.992  0.00  0.00    +0.330 A 
ATOM     16  N   LIG    1        1.119   2.943  -1.888  0.00  0.00    -0.510 NA
ATOM     17  N   LIG    1        1.499   3.815  -2.883  0.00  0.00    -0.250 NA
ATOM     18  C   LIG    1        0.660   4.075  -3.835  0.00  0.00    -0.070 A 
ATOM     19  S   LIG    1       -0.793   3.125  -3.480  0.00  0.00    -0.100 S 
BRANCH  14  20
ATOM     20  C   LIG    1       -0.013   1.086   0.008  0.00  0.00    +0.210 C 
BRANCH  20  21
ATOM     21  C   LIG    1       -0.729   1.579   1.267  0.00  0.00    +0.150 C 
BRANCH  21  23
ATOM     22  C   LIG    1       -2.787   1.389   2.481  0.00  0.00    +0.170 C 
ATOM     23  O   LIG    1       -2.030   0.991   1.336  0.00  0.00    -0.370 OA
ENDBRANCH  21  23
ENDBRANCH  20  21
ENDBRANCH  14  20
ENDBRANCH  13  18
ENDBRANCH   1  13
TORSDOF 6
