REMARK  Name = ZINCrD00000F5LqK.0
REMARK                            x       y       z     vdW  Elec       q    Type
REMARK                         _______ _______ _______ _____ _____    ______ ____
ROOT
ATOM      1  C   LIG    1       -0.330  -1.857  -6.581  0.00  0.00    +0.260 C 
ENDROOT
BRANCH   1   2
ATOM      2  C   LIG    1       -1.669  -2.540  -6.464  0.00  0.00    -0.100 A 
ATOM      3  C   LIG    1       -1.766  -3.767  -5.835  0.00  0.00    +0.020 A 
ATOM      4  C   LIG    1       -2.995  -4.391  -5.725  0.00  0.00    +0.000 A 
ATOM      5  C   LIG    1       -4.124  -3.793  -6.251  0.00  0.00    +0.010 A 
ATOM      6  C   LIG    1       -4.026  -2.568  -6.884  0.00  0.00    +0.010 A 
ATOM      7  C   LIG    1       -2.798  -1.942  -6.991  0.00  0.00    +0.030 A 
ENDBRANCH   1   2
BRANCH   1  10
ATOM      8  O   LIG    1       -0.580  -0.273  -4.415  0.00  0.00    -0.530 OA
ATOM      9  C   LIG    1        0.217  -1.180  -4.305  0.00  0.00    +0.520 C 
ATOM     10  N   LIG    1        0.416  -2.030  -5.332  0.00  0.00    -0.720 N 
ATOM     11  H   LIG    1        1.054  -2.756  -5.245  0.00  0.00    +0.410 HD
BRANCH   9  12
ATOM     12  C   LIG    1        0.985  -1.358  -3.021  0.00  0.00    +0.070 C 
BRANCH  12  13
ATOM     13  C   LIG    1        0.575  -0.269  -2.027  0.00  0.00    +0.010 C 
ATOM     14  C   LIG    1       -0.691  -0.614  -1.226  0.00  0.00    +0.040 C 
ATOM     15  C   LIG    1        0.002  -0.004   0.002  0.00  0.00    -0.050 C 
ATOM     16  C   LIG    1       -0.019   1.536   0.011  0.00  0.00    +0.220 C 
ATOM     17  O   LIG    1        1.343   1.973  -0.000  0.00  0.00    -0.380 OA
ATOM     18  C   LIG    1        2.205   0.920  -0.433  0.00  0.00    +0.200 C 
ATOM     19  C   LIG    1        1.347  -0.328  -0.699  0.00  0.00    -0.020 C 
ENDBRANCH  12  13
ENDBRANCH   9  12
ENDBRANCH   1  10
BRANCH   1  20
ATOM     20  C   LIG    1        0.447  -2.467  -7.719  0.00  0.00    +0.360 C 
ATOM     21  O   LIG    1        1.304  -3.287  -7.494  0.00  0.00    -0.430 OA
BRANCH  20  22
ATOM     22  C   LIG    1        0.154  -2.053  -9.138  0.00  0.00    +0.090 C 
BRANCH  22  23
ATOM     23  C   LIG    1        1.062  -2.803 -10.078  0.00  0.00    -0.080 A 
ATOM     24  C   LIG    1        2.290  -2.271 -10.426  0.00  0.00    +0.010 A 
ATOM     25  C   LIG    1        3.124  -2.962 -11.284  0.00  0.00    +0.000 A 
ATOM     26  C   LIG    1        2.728  -4.180 -11.803  0.00  0.00    +0.000 A 
ATOM     27  C   LIG    1        1.498  -4.710 -11.459  0.00  0.00    +0.000 A 
ATOM     28  C   LIG    1        0.665  -4.022 -10.596  0.00  0.00    +0.010 A 
ENDBRANCH  22  23
ENDBRANCH  20  22
ENDBRANCH   1  20
TORSDOF 7
