REMARK  Name = ZINCAx0000000ihA.0
REMARK                            x       y       z     vdW  Elec       q    Type
REMARK                         _______ _______ _______ _____ _____    ______ ____
ROOT
ATOM      1  N   LIG    1       -2.012   3.077   7.342  0.00  0.00    -0.680 N 
ATOM      2  H   LIG    1       -1.568   2.792   8.156  0.00  0.00    +0.410 HD
ATOM      3  C   LIG    1       -3.123   3.837   7.411  0.00  0.00    +0.700 C 
ATOM      4  N   LIG    1       -3.565   4.277   8.605  0.00  0.00    -0.680 N 
ATOM      5  H   LIG    1       -3.050   4.102   9.408  0.00  0.00    +0.410 HD
ATOM      6  O   LIG    1       -3.725   4.127   6.395  0.00  0.00    -0.560 OA
ENDROOT
BRANCH   1  13
ATOM      7  C   LIG    1        0.811   2.871   7.058  0.00  0.00    +0.090 C 
ATOM      8  C   LIG    1       -0.126   2.585   5.913  0.00  0.00    -0.070 A 
ATOM      9  C   LIG    1        0.379   2.206   4.686  0.00  0.00    -0.010 A 
ATOM     10  C   LIG    1       -0.484   1.948   3.630  0.00  0.00    +0.120 A 
ATOM     11  C   LIG    1       -1.854   2.061   3.810  0.00  0.00    -0.060 A 
ATOM     12  C   LIG    1       -2.361   2.435   5.039  0.00  0.00    +0.070 A 
ATOM     13  C   LIG    1       -1.498   2.698   6.095  0.00  0.00    +0.120 A 
BRANCH  10  14
ATOM     14  O   LIG    1        0.015   1.580   2.420  0.00  0.00    -0.310 OA
BRANCH  14  15
ATOM     15  C   LIG    1       -0.931   1.325   1.379  0.00  0.00    +0.190 C 
BRANCH  15  16
ATOM     16  C   LIG    1       -0.189   0.927   0.102  0.00  0.00    +0.360 C 
BRANCH  16  17
ATOM     17  N   LIG    1        0.505  -0.346   0.316  0.00  0.00    -0.630 N 
ATOM     18  C   LIG    1        1.880  -0.493   0.815  0.00  0.00    +0.260 C 
ATOM     19  C   LIG    1        2.099  -2.018   0.851  0.00  0.00    +0.250 C 
ATOM     20  N   LIG    1        0.826  -2.568   0.361  0.00  0.00    -0.740 N 
ATOM     21  H   LIG    1        0.625  -3.511   0.255  0.00  0.00    +0.430 HD
ATOM     22  C   LIG    1       -0.011  -1.560   0.084  0.00  0.00    +0.700 C 
ATOM     23  O   LIG    1       -1.138  -1.731  -0.339  0.00  0.00    -0.590 OA
ENDBRANCH  16  17
ENDBRANCH  15  16
ENDBRANCH  14  15
ENDBRANCH  10  14
ENDBRANCH   1  13
BRANCH   4  24
ATOM     24  C   LIG    1       -4.770   4.988   8.688  0.00  0.00    +0.120 A 
ATOM     25  C   LIG    1       -5.143   5.844   7.661  0.00  0.00    +0.070 A 
ATOM     26  C   LIG    1       -6.331   6.544   7.742  0.00  0.00    -0.060 A 
ATOM     27  C   LIG    1       -7.152   6.391   8.850  0.00  0.00    +0.120 A 
ATOM     28  C   LIG    1       -6.780   5.536   9.877  0.00  0.00    -0.010 A 
ATOM     29  C   LIG    1       -5.595   4.832   9.794  0.00  0.00    -0.070 A 
ATOM     30  C   LIG    1       -5.193   3.898  10.907  0.00  0.00    +0.090 C 
BRANCH  27  31
ATOM     31  O   LIG    1       -8.322   7.080   8.929  0.00  0.00    -0.310 OA
BRANCH  31  32
ATOM     32  C   LIG    1       -8.642   7.942   7.836  0.00  0.00    +0.190 C 
BRANCH  32  33
ATOM     33  C   LIG    1       -9.985   8.626   8.102  0.00  0.00    +0.360 C 
BRANCH  33  34
ATOM     34  N   LIG    1       -9.861   9.506   9.267  0.00  0.00    -0.630 N 
ATOM     35  C   LIG    1      -10.114   9.114  10.662  0.00  0.00    +0.260 C 
ATOM     36  C   LIG    1       -9.838  10.401  11.463  0.00  0.00    +0.250 C 
ATOM     37  N   LIG    1       -9.467  11.384  10.434  0.00  0.00    -0.740 N 
ATOM     38  H   LIG    1       -9.232  12.310  10.600  0.00  0.00    +0.430 HD
ATOM     39  C   LIG    1       -9.507  10.797   9.230  0.00  0.00    +0.700 C 
ATOM     40  O   LIG    1       -9.243  11.383   8.198  0.00  0.00    -0.590 OA
ENDBRANCH  33  34
ENDBRANCH  32  33
ENDBRANCH  31  32
ENDBRANCH  27  31
ENDBRANCH   4  24
TORSDOF 10
