REMARK  Name = ZINCrH000004rhPt.0
REMARK                            x       y       z     vdW  Elec       q    Type
REMARK                         _______ _______ _______ _____ _____    ______ ____
ROOT
ATOM      1  N   LIG    1       -6.428   1.547  -1.205  0.00  0.00    -0.520 NA
ATOM      2  C   LIG    1       -6.830   0.786  -0.015  0.00  0.00    +0.180 C 
ATOM      3  C   LIG    1       -8.268   1.148   0.362  0.00  0.00    +0.050 C 
ATOM      4  C   LIG    1       -9.196   0.824  -0.811  0.00  0.00    -0.020 C 
ATOM      5  C   LIG    1       -8.727   1.592  -2.050  0.00  0.00    +0.060 C 
ATOM      6  C   LIG    1       -7.275   1.217  -2.358  0.00  0.00    +0.180 C 
ENDROOT
BRANCH   4   7
ATOM      7  C   LIG    1      -10.604   1.234  -0.468  0.00  0.00    +0.520 C 
ATOM      8  N   LIG    1      -11.268   0.602   0.520  0.00  0.00    -0.600 N 
ATOM      9  C   LIG    1      -12.583   1.078   0.887  0.00  0.00    +0.270 C 
ATOM     10  C   LIG    1      -12.463   2.163   1.979  0.00  0.00    +0.000 C 
ATOM     11  C   LIG    1      -12.059   1.557   3.257  0.00  0.00    +0.000 C 
ATOM     12  C   LIG    1      -10.686   0.892   3.230  0.00  0.00    +0.010 C 
ATOM     13  C   LIG    1      -10.823  -0.518   2.713  0.00  0.00    +0.020 C 
ATOM     14  C   LIG    1      -10.621  -0.545   1.187  0.00  0.00    +0.240 C 
ATOM     15  O   LIG    1      -11.141   2.133  -1.080  0.00  0.00    -0.530 OA
ENDBRANCH   4   7
BRANCH   1  16
ATOM     16  C   LIG    1       -5.009   1.329  -1.515  0.00  0.00    +0.220 C 
BRANCH  16  19
ATOM     17  N   LIG    1       -2.816   1.821  -0.481  0.00  0.00    -0.670 N 
ATOM     18  H   LIG    1       -2.393   1.462  -1.277  0.00  0.00    +0.410 HD
ATOM     19  C   LIG    1       -4.159   1.905  -0.411  0.00  0.00    +0.510 C 
ATOM     20  O   LIG    1       -4.684   2.443   0.540  0.00  0.00    -0.490 OA
BRANCH  17  28
ATOM     21  C   LIG    1       -0.135   2.615  -1.008  0.00  0.00    +0.090 C 
ATOM     22  C   LIG    1       -0.717   2.648   0.381  0.00  0.00    -0.110 A 
ATOM     23  C   LIG    1        0.054   3.078   1.443  0.00  0.00    +0.050 A 
ATOM     24  C   LIG    1       -0.479   3.110   2.719  0.00  0.00    +0.000 A 
ATOM     25  C   LIG    1       -1.786   2.710   2.935  0.00  0.00    -0.020 A 
ATOM     26  C   LIG    1       -2.562   2.278   1.876  0.00  0.00    +0.040 A 
ATOM     27 CL   LIG    1       -2.451   2.752   4.538  0.00  0.00    -0.060 Cl
ATOM     28  C   LIG    1       -2.031   2.252   0.594  0.00  0.00    +0.160 A 
ENDBRANCH  17  28
ENDBRANCH  16  19
ENDBRANCH   1  16
TORSDOF 4
