REMARK  Name = ZINCrH000004oIR0.1
REMARK                            x       y       z     vdW  Elec       q    Type
REMARK                         _______ _______ _______ _____ _____    ______ ____
ROOT
ATOM      1  N   LIG    1       -2.333   1.796   5.715  0.00  0.00    -0.730 N 
ATOM      2  H   LIG    1       -2.681   2.667   5.467  0.00  0.00    +0.400 HD
ATOM      3  C   LIG    1       -1.661   1.056   4.811  0.00  0.00    +0.590 C 
ATOM      4  O   LIG    1       -1.225  -0.036   5.122  0.00  0.00    -0.530 OA
ENDROOT
BRANCH   3   5
ATOM      5  C   LIG    1       -1.457   1.567   3.453  0.00  0.00    -0.270 A 
ATOM      6  C   LIG    1       -0.795   0.909   2.458  0.00  0.00    +0.110 A 
ATOM      7  C   LIG    1       -0.721   1.575   1.261  0.00  0.00    -0.110 A 
ATOM      8  C   LIG    1       -1.369   2.797   1.272  0.00  0.00    -0.130 A 
ATOM      9  C   LIG    1       -1.417   3.647   0.063  0.00  0.00    -0.020 A 
ATOM     10  C   LIG    1       -1.755   4.992   0.127  0.00  0.00    +0.020 A 
ATOM     11  C   LIG    1       -1.707   5.760  -1.022  0.00  0.00    +0.010 A 
ATOM     12  C   LIG    1       -1.325   5.186  -2.221  0.00  0.00    +0.020 A 
ATOM     13  C   LIG    1       -1.005   3.841  -2.289  0.00  0.00    +0.010 A 
ATOM     14  C   LIG    1       -1.060   3.057  -1.155  0.00  0.00    -0.060 A 
ATOM     15  C   LIG    1       -0.747   1.589  -1.230  0.00  0.00    +0.080 C 
ATOM     16  C   LIG    1       -0.013   1.086   0.008  0.00  0.00    +0.120 C 
ATOM     17  S   LIG    1       -2.026   3.122   2.860  0.00  0.00    +0.190 S 
ENDBRANCH   3   5
BRANCH   1  18
ATOM     18  C   LIG    1       -2.538   1.286   7.073  0.00  0.00    +0.260 C 
BRANCH  18  19
ATOM     19  C   LIG    1       -3.322   2.313   7.892  0.00  0.00    +0.020 C 
BRANCH  19  20
ATOM     20  C   LIG    1       -3.536   1.779   9.310  0.00  0.00    +0.180 C 
BRANCH  20  24
ATOM     21  C   LIG    1       -5.934   2.679  13.513  0.00  0.00    +0.050 C 
ATOM     22  C   LIG    1       -5.550   3.235  12.140  0.00  0.00    +0.160 C 
ATOM     23  C   LIG    1       -4.720   2.197  11.381  0.00  0.00    +0.150 C 
ATOM     24  N   LIG    1       -4.290   2.765  10.095  0.00  0.00    -0.530 NA
ATOM     25  C   LIG    1       -3.500   3.987  10.304  0.00  0.00    +0.150 C 
ATOM     26  C   LIG    1       -4.343   5.008  11.074  0.00  0.00    +0.190 C 
ATOM     27  C   LIG    1       -5.561   5.401  10.236  0.00  0.00    +0.010 C 
ATOM     28  O   LIG    1       -4.777   4.427  12.306  0.00  0.00    -0.380 OA
ENDBRANCH  20  24
ENDBRANCH  19  20
ENDBRANCH  18  19
ENDBRANCH   1  18
TORSDOF 5
