REMARK  Name = ZINCpe00000bUqvW.0
REMARK                            x       y       z     vdW  Elec       q    Type
REMARK                         _______ _______ _______ _____ _____    ______ ____
ROOT
ATOM      1  C   LIG    1       -3.625   6.464   0.180  0.00  0.00    +0.060 C 
ATOM      2  C   LIG    1       -2.303   5.706   0.044  0.00  0.00    +0.230 C 
ENDROOT
BRANCH   2   3
ATOM      3  N   LIG    1       -1.431   6.039   1.173  0.00  0.00    -0.620 N 
ATOM      4  C   LIG    1       -0.230   6.609   0.952  0.00  0.00    +0.510 C 
ATOM      5  O   LIG    1        0.129   6.846  -0.182  0.00  0.00    -0.520 OA
ATOM      6  C   LIG    1       -1.864   5.751   2.543  0.00  0.00    +0.290 C 
BRANCH   4   7
ATOM      7  C   LIG    1        0.667   6.951   2.113  0.00  0.00    +0.110 C 
BRANCH   7   8
ATOM      8  C   LIG    1        1.940   7.573   1.599  0.00  0.00    -0.080 A 
ATOM      9  C   LIG    1        3.027   6.773   1.300  0.00  0.00    +0.030 A 
ATOM     10  C   LIG    1        4.193   7.340   0.823  0.00  0.00    -0.010 A 
ATOM     11  C   LIG    1        4.276   8.714   0.655  0.00  0.00    +0.110 A 
ATOM     12  C   LIG    1        3.186   9.516   0.961  0.00  0.00    -0.010 A 
ATOM     13  C   LIG    1        2.020   8.943   1.432  0.00  0.00    +0.030 A 
BRANCH  11  14
ATOM     14  O   LIG    1        5.424   9.275   0.192  0.00  0.00    -0.500 OA
ATOM     15  H   LIG    1        6.050   9.521   0.887  0.00  0.00    +0.390 HD
ENDBRANCH  11  14
ENDBRANCH   7   8
ENDBRANCH   4   7
ENDBRANCH   2   3
BRANCH   2  16
ATOM     16  C   LIG    1       -2.577   4.201   0.037  0.00  0.00    +0.280 C 
BRANCH  16  17
ATOM     17  N   LIG    1       -1.305   3.473   0.027  0.00  0.00    -0.720 N 
ATOM     18  H   LIG    1       -0.467   3.962   0.026  0.00  0.00    +0.400 HD
ATOM     19  C   LIG    1       -1.300   2.125   0.020  0.00  0.00    +0.570 C 
ATOM     20  O   LIG    1       -2.350   1.514   0.021  0.00  0.00    -0.520 OA
BRANCH  19  21
ATOM     21  C   LIG    1       -0.017   1.391   0.010  0.00  0.00    -0.140 C 
ATOM     22  C   LIG    1        1.199   2.084   0.002  0.00  0.00    +0.100 C 
ATOM     23  C   LIG    1        2.373   1.351  -0.014  0.00  0.00    +0.050 C 
ATOM     24  C   LIG    1        2.308  -0.031  -0.020  0.00  0.00    +0.290 C 
ATOM     25  N   LIG    1        1.146  -0.658  -0.012  0.00  0.00    -0.120 NA
ATOM     26  O   LIG    1        1.129  -2.074  -0.019  0.00  0.00    -0.540 OA
ATOM     27  C   LIG    1        0.002  -0.004   0.002  0.00  0.00    +0.330 C 
ENDBRANCH  19  21
ENDBRANCH  16  17
ENDBRANCH   2  16
TORSDOF 7
