REMARK  Name = ZINCpk00000y6xmp.0
REMARK                            x       y       z     vdW  Elec       q    Type
REMARK                         _______ _______ _______ _____ _____    ______ ____
ROOT
ATOM      1  C   LIG    1       -1.221   2.413   0.022  0.00  0.00    +0.610 C 
ATOM      2  N   LIG    1       -2.472   1.913  -0.005  0.00  0.00    -0.600 N 
ATOM      3  C   LIG    1       -3.709   2.705  -0.076  0.00  0.00    +0.270 C 
ATOM      4  C   LIG    1       -4.889   1.710  -0.104  0.00  0.00    +0.090 C 
ATOM      5  C   LIG    1       -4.229   0.403  -0.617  0.00  0.00    +0.110 C 
ATOM      6  C   LIG    1       -2.828   0.483   0.039  0.00  0.00    +0.250 C 
ATOM      7  O   LIG    1       -0.272   1.667   0.178  0.00  0.00    -0.530 OA
ENDROOT
BRANCH   1  13
ATOM      8  N   LIG    1        0.200   4.499  -0.251  0.00  0.00    -0.240 N 
ATOM      9  N   LIG    1        0.005   5.762  -0.376  0.00  0.00    -0.270 NA
ATOM     10  C   LIG    1       -1.273   6.043  -0.358  0.00  0.00    +0.020 A 
ATOM     11  C   LIG    1       -1.972   4.843  -0.210  0.00  0.00    -0.030 A 
ATOM     12  C   LIG    1       -1.882   7.416  -0.480  0.00  0.00    +0.150 C 
ATOM     13  C   LIG    1       -1.002   3.859  -0.138  0.00  0.00    -0.040 A 
BRANCH   8  14
ATOM     14  C   LIG    1        1.510   3.844  -0.230  0.00  0.00    +0.260 C 
BRANCH  14  16
ATOM     15  C   LIG    1        3.608   3.449  -1.529  0.00  0.00    +0.030 C 
ATOM     16  C   LIG    1        2.292   4.229  -1.488  0.00  0.00    +0.020 C 
ENDBRANCH  14  16
BRANCH  14  17
ATOM     17  C   LIG    1        2.286   4.293   1.010  0.00  0.00    +0.040 C 
ATOM     18  C   LIG    1        1.559   3.812   2.268  0.00  0.00    +0.020 C 
ENDBRANCH  14  17
ENDBRANCH   8  14
ENDBRANCH   1  13
BRANCH   5  19
ATOM     19  O   LIG    1       -4.128   0.404  -2.042  0.00  0.00    -0.540 OA
ATOM     20  H   LIG    1       -3.637  -0.346  -2.402  0.00  0.00    +0.390 HD
ENDBRANCH   5  19
BRANCH   5  21
ATOM     21  C   LIG    1       -4.995  -0.827  -0.125  0.00  0.00    +0.340 C 
BRANCH  21  22
ATOM     22  N   LIG    1       -4.206  -2.033  -0.393  0.00  0.00    -0.300 N 
ATOM     23  C   LIG    1       -3.837  -2.958   0.523  0.00  0.00    +0.150 A 
ATOM     24  C   LIG    1       -3.129  -3.894  -0.151  0.00  0.00    +0.140 A 
ATOM     25  N   LIG    1       -3.093  -3.496  -1.428  0.00  0.00    -0.260 NA
ATOM     26  N   LIG    1       -3.741  -2.390  -1.538  0.00  0.00    -0.100 NA
ENDBRANCH  21  22
ENDBRANCH   5  21
TORSDOF 7
