REMARK  Name = ZINCrH000004lY75.0
REMARK                            x       y       z     vdW  Elec       q    Type
REMARK                         _______ _______ _______ _____ _____    ______ ____
ROOT
ATOM      1  C   LIG    1       -0.871   3.726  -5.706  0.00  0.00    +0.100 A 
ATOM      2  C   LIG    1       -0.166   3.367  -4.574  0.00  0.00    +0.020 A 
ATOM      3  C   LIG    1       -0.851   2.929  -3.437  0.00  0.00    -0.130 A 
ATOM      4  C   LIG    1       -2.246   2.869  -3.446  0.00  0.00    +0.050 A 
ATOM      5  C   LIG    1       -2.944   3.235  -4.576  0.00  0.00    -0.030 A 
ATOM      6  C   LIG    1       -2.264   3.664  -5.707  0.00  0.00    +0.130 A 
ENDROOT
BRANCH   3   7
ATOM      7  C   LIG    1       -0.101   2.537  -2.228  0.00  0.00    +0.570 C 
ATOM      8  N   LIG    1       -0.403   1.389  -1.590  0.00  0.00    -0.610 N 
ATOM      9  C   LIG    1        0.396   0.922  -0.445  0.00  0.00    +0.300 C 
ATOM     10  C   LIG    1        1.079  -0.401  -0.809  0.00  0.00    +0.270 C 
ATOM     11  N   LIG    1        0.101  -1.291  -1.445  0.00  0.00    -0.440 N 
ATOM     12  C   LIG    1        0.199  -2.640  -1.593  0.00  0.00    +0.150 A 
ATOM     13  C   LIG    1       -0.903  -3.075  -2.240  0.00  0.00    -0.060 A 
ATOM     14  C   LIG    1       -1.714  -1.951  -2.498  0.00  0.00    -0.040 A 
ATOM     15  C   LIG    1       -1.080  -0.878  -2.000  0.00  0.00    -0.000 A 
ATOM     16  C   LIG    1       -1.545   0.560  -2.019  0.00  0.00    +0.320 C 
ATOM     17  C   LIG    1       -2.716   0.743  -1.053  0.00  0.00    +0.050 C 
ATOM     18  O   LIG    1        0.789   3.250  -1.806  0.00  0.00    -0.530 OA
ENDBRANCH   3   7
BRANCH   1  20
ATOM     19  C   LIG    1        1.219   4.184  -6.744  0.00  0.00    +0.240 C 
ATOM     20  O   LIG    1       -0.208   4.146  -6.816  0.00  0.00    -0.300 OA
ENDBRANCH   1  20
BRANCH   6  21
ATOM     21  O   LIG    1       -2.957   4.024  -6.819  0.00  0.00    -0.300 OA
BRANCH  21  22
ATOM     22  C   LIG    1       -4.382   3.936  -6.752  0.00  0.00    +0.320 C 
BRANCH  22  23
ATOM     23  C   LIG    1       -4.974   4.372  -8.067  0.00  0.00    +0.050 A 
ATOM     24  C   LIG    1       -4.226   4.770  -9.101  0.00  0.00    -0.030 A 
ATOM     25  S   LIG    1       -5.310   5.187 -10.426  0.00  0.00    +0.130 S 
ATOM     26  C   LIG    1       -6.661   4.786  -9.458  0.00  0.00    +0.220 A 
ATOM     27  N   LIG    1       -6.272   4.388  -8.294  0.00  0.00    -0.470 NA
ENDBRANCH  22  23
ENDBRANCH  21  22
ENDBRANCH   6  21
TORSDOF 5
