REMARK  Name = ZINCrH000004keGM.0
REMARK                            x       y       z     vdW  Elec       q    Type
REMARK                         _______ _______ _______ _____ _____    ______ ____
ROOT
ATOM      1  N   LIG    1       -3.105   4.136  -1.287  0.00  0.00    -0.490 NA
ENDROOT
BRANCH   1   2
ATOM      2  C   LIG    1       -3.532   2.892  -1.942  0.00  0.00    +0.140 C 
ATOM      3  C   LIG    1       -3.623   1.633  -1.078  0.00  0.00    -0.030 C 
ATOM      4  C   LIG    1       -2.491   1.782  -2.097  0.00  0.00    +0.030 C 
ENDBRANCH   1   2
BRANCH   1   5
ATOM      5  C   LIG    1       -2.688   3.884   0.099  0.00  0.00    +0.230 C 
BRANCH   5   9
ATOM      6  C   LIG    1       -0.526   7.265   1.575  0.00  0.00    -0.140 A 
ATOM      7  C   LIG    1        0.132   6.281   0.834  0.00  0.00    +0.070 A 
ATOM      8  C   LIG    1       -0.573   5.196   0.356  0.00  0.00    +0.030 A 
ATOM      9  C   LIG    1       -1.926   5.076   0.619  0.00  0.00    -0.050 A 
ATOM     10  C   LIG    1       -2.584   6.047   1.352  0.00  0.00    +0.010 A 
ATOM     11  C   LIG    1       -1.892   7.140   1.831  0.00  0.00    +0.030 A 
BRANCH   6  15
ATOM     12  C   LIG    1        0.325  10.541   3.304  0.00  0.00    +0.290 C 
ATOM     13  N   LIG    1       -0.416   9.382   2.799  0.00  0.00    -0.730 N 
ATOM     14  H   LIG    1       -1.365   9.298   2.979  0.00  0.00    +0.400 HD
ATOM     15  C   LIG    1        0.222   8.434   2.085  0.00  0.00    +0.560 C 
ATOM     16  O   LIG    1        1.412   8.540   1.859  0.00  0.00    -0.530 OA
ENDBRANCH   6  15
ENDBRANCH   5   9
ENDBRANCH   1   5
BRANCH   1  17
ATOM     17  C   LIG    1       -4.166   5.151  -1.341  0.00  0.00    +0.240 C 
BRANCH  17  18
ATOM     18  C   LIG    1       -4.395   5.561  -2.773  0.00  0.00    -0.050 A 
ATOM     19  C   LIG    1       -5.511   5.106  -3.451  0.00  0.00    +0.030 A 
ATOM     20  C   LIG    1       -5.728   5.487  -4.767  0.00  0.00    +0.060 A 
ATOM     21  C   LIG    1       -4.816   6.319  -5.405  0.00  0.00    +0.060 A 
ATOM     22  O   LIG    1       -5.011   6.706  -6.695  0.00  0.00    -0.300 OA
ATOM     23  C   LIG    1       -5.947   5.941  -7.463  0.00  0.00    +0.230 C 
ATOM     24  C   LIG    1       -7.207   5.730  -6.612  0.00  0.00    +0.230 C 
ATOM     25  C   LIG    1       -3.694   6.765  -4.723  0.00  0.00    +0.050 A 
ATOM     26  O   LIG    1       -6.831   5.031  -5.420  0.00  0.00    -0.300 OA
ATOM     27  C   LIG    1       -3.486   6.386  -3.410  0.00  0.00    -0.070 A 
ATOM     28 BR   LIG    1       -1.955   6.997  -2.482  0.00  0.00    -0.020 Br
ENDBRANCH  17  18
ENDBRANCH   1  17
TORSDOF 6
