REMARK  Name = ZINCqH0000051xEX.0
REMARK                            x       y       z     vdW  Elec       q    Type
REMARK                         _______ _______ _______ _____ _____    ______ ____
ROOT
ATOM      1  C   LIG    1        1.881   3.883  -1.169  0.00  0.00    +0.180 A 
ATOM      2  C   LIG    1        0.846   3.142  -0.609  0.00  0.00    -0.050 A 
ATOM      3  C   LIG    1        0.988   1.751  -0.545  0.00  0.00    +0.430 A 
ATOM      4  N   LIG    1        2.094   1.195  -1.028  0.00  0.00    -0.550 NA
ATOM      5  C   LIG    1        3.049   1.935  -1.556  0.00  0.00    +0.550 A 
ATOM      6  N   LIG    1        2.957   3.245  -1.630  0.00  0.00    -0.510 NA
ENDROOT
BRANCH   1   8
ATOM      7  O   LIG    1        0.802   5.933  -0.834  0.00  0.00    -0.490 OA
ATOM      8  C   LIG    1        1.786   5.361  -1.256  0.00  0.00    +0.530 C 
BRANCH   8   9
ATOM      9  O   LIG    1        2.792   6.068  -1.805  0.00  0.00    -0.320 OA
BRANCH   9  10
ATOM     10  C   LIG    1        2.631   7.511  -1.858  0.00  0.00    +0.240 C 
BRANCH  10  11
ATOM     11  C   LIG    1        3.865   8.137  -2.510  0.00  0.00    +0.160 C 
ATOM     12  C   LIG    1        3.642   9.642  -2.681  0.00  0.00    +0.010 C 
ATOM     13  C   LIG    1        4.888  10.264  -3.322  0.00  0.00    +0.040 C 
ATOM     14  C   LIG    1        6.109   9.904  -2.475  0.00  0.00    -0.120 C 
ATOM     15  C   LIG    1        6.234   8.401  -2.232  0.00  0.00    +0.250 C 
ATOM     16  C   LIG    1        6.240  10.745  -1.200  0.00  0.00    +0.020 C 
ATOM     17  C   LIG    1        7.752  10.782  -1.478  0.00  0.00    +0.010 C 
ATOM     18  C   LIG    1        7.407  10.558  -2.961  0.00  0.00    +0.020 C 
ATOM     19  O   LIG    1        5.007   7.912  -1.681  0.00  0.00    -0.370 OA
ENDBRANCH  10  11
ENDBRANCH   9  10
ENDBRANCH   8   9
ENDBRANCH   1   8
BRANCH   3  20
ATOM     20  N   LIG    1       -0.011   0.966   0.007  0.00  0.00    -0.650 N 
ATOM     21  H   LIG    1       -0.850   1.369   0.281  0.00  0.00    +0.420 HD
BRANCH  20  22
ATOM     22  C   LIG    1        0.192  -0.407   0.176  0.00  0.00    +0.150 A 
ATOM     23  C   LIG    1        1.463  -0.894   0.451  0.00  0.00    +0.020 A 
ATOM     24  C   LIG    1        1.659  -2.250   0.622  0.00  0.00    +0.030 A 
ATOM     25  C   LIG    1        0.593  -3.124   0.509  0.00  0.00    -0.020 A 
ATOM     26  C   LIG    1       -0.673  -2.643   0.229  0.00  0.00    +0.030 A 
ATOM     27  C   LIG    1       -0.877  -1.287   0.063  0.00  0.00    -0.030 A 
ENDBRANCH  20  22
ENDBRANCH   3  20
TORSDOF 6
