REMARK  Name = ZINCpk00000j8hzX.0
REMARK                            x       y       z     vdW  Elec       q    Type
REMARK                         _______ _______ _______ _____ _____    ______ ____
ROOT
ATOM      1  C   LIG    1       -0.758   1.590  -1.243  0.00  0.00    +0.170 C 
ATOM      2  C   LIG    1       -2.156   0.970  -1.267  0.00  0.00    +0.030 C 
ATOM      3  C   LIG    1       -2.919   1.477  -2.492  0.00  0.00    +0.010 C 
ATOM      4  C   LIG    1       -2.163   1.082  -3.763  0.00  0.00    +0.000 C 
ATOM      5  C   LIG    1       -0.765   1.702  -3.739  0.00  0.00    +0.010 C 
ATOM      6  C   LIG    1       -0.003   1.195  -2.513  0.00  0.00    +0.030 C 
ENDROOT
BRANCH   1   8
ATOM      7  C   LIG    1        0.235   3.815  -1.234  0.00  0.00    +0.530 C 
ATOM      8  N   LIG    1       -0.872   3.049  -1.177  0.00  0.00    -0.720 N 
ATOM      9  H   LIG    1       -1.745   3.464  -1.093  0.00  0.00    +0.400 HD
ATOM     10  O   LIG    1        1.331   3.297  -1.240  0.00  0.00    -0.520 OA
BRANCH   7  15
ATOM     11  C   LIG    1        0.180   8.774  -3.863  0.00  0.00    +0.100 C 
ATOM     12  C   LIG    1        1.050   8.182  -2.784  0.00  0.00    +0.530 C 
ATOM     13  N   LIG    1        0.832   6.923  -2.356  0.00  0.00    -0.650 N 
ATOM     14  C   LIG    1        1.464   6.048  -1.350  0.00  0.00    +0.320 C 
ATOM     15  C   LIG    1        0.111   5.316  -1.289  0.00  0.00    -0.020 C 
ATOM     16  C   LIG    1       -0.137   5.866  -2.705  0.00  0.00    +0.300 C 
ATOM     17  O   LIG    1        1.947   8.840  -2.300  0.00  0.00    -0.540 OA
ENDBRANCH   7  15
ENDBRANCH   1   8
BRANCH   1  18
ATOM     18  C   LIG    1        0.005   1.083  -0.017  0.00  0.00    +0.270 C 
BRANCH  18  19
ATOM     19  N   LIG    1       -0.650   1.566   1.200  0.00  0.00    -0.730 N 
ATOM     20  H   LIG    1       -1.484   2.059   1.140  0.00  0.00    +0.390 HD
ATOM     21  C   LIG    1       -0.096   1.327   2.405  0.00  0.00    +0.520 C 
ATOM     22  O   LIG    1        0.946   0.711   2.481  0.00  0.00    -0.530 OA
BRANCH  21  23
ATOM     23  C   LIG    1       -0.769   1.825   3.658  0.00  0.00    +0.020 C 
ATOM     24  C   LIG    1       -0.888   3.349   3.602  0.00  0.00    +0.050 C 
BRANCH  23  25
ATOM     25  C   LIG    1        0.061   1.422   4.878  0.00  0.00    -0.020 C 
ATOM     26  C   LIG    1       -0.532   0.372   5.820  0.00  0.00    +0.010 C 
ATOM     27  C   LIG    1       -0.460   1.837   6.255  0.00  0.00    +0.010 C 
ENDBRANCH  23  25
ENDBRANCH  21  23
ENDBRANCH  18  19
ENDBRANCH   1  18
TORSDOF 6
