REMARK  Name = ZINCpk00000eb5a6.0
REMARK                            x       y       z     vdW  Elec       q    Type
REMARK                         _______ _______ _______ _____ _____    ______ ____
ROOT
ATOM      1  C   LIG    1       -2.034   1.133   0.029  0.00  0.00    +0.210 C 
ATOM      2  C   LIG    1       -2.275   0.687  -1.415  0.00  0.00    +0.160 C 
ATOM      3  O   LIG    1       -3.418  -0.176  -1.443  0.00  0.00    -0.360 OA
ATOM      4  C   LIG    1       -4.640   0.507  -1.152  0.00  0.00    +0.290 C 
ATOM      5  C   LIG    1       -4.481   1.325   0.099  0.00  0.00    +0.490 C 
ATOM      6  O   LIG    1       -5.475   1.735   0.661  0.00  0.00    -0.520 OA
ATOM      7  C   LIG    1       -1.049  -0.069  -1.930  0.00  0.00    +0.080 C 
ATOM      8  N   LIG    1       -3.281   1.618   0.615  0.00  0.00    -0.580 N 
ENDROOT
BRANCH   1  11
ATOM      9  N   LIG    1        0.299   1.943   0.183  0.00  0.00    -0.720 N 
ATOM     10  H   LIG    1        0.581   1.018   0.269  0.00  0.00    +0.410 HD
ATOM     11  C   LIG    1       -1.009   2.238   0.047  0.00  0.00    +0.510 C 
ATOM     12  O   LIG    1       -1.362   3.394  -0.061  0.00  0.00    -0.510 OA
BRANCH   9  13
ATOM     13  C   LIG    1        1.295   3.017   0.194  0.00  0.00    +0.440 C 
BRANCH  13  18
ATOM     14  C   LIG    1        5.543   1.234   2.236  0.00  0.00    +0.190 C 
ATOM     15  C   LIG    1        4.499   1.657   1.236  0.00  0.00    -0.030 A 
ATOM     16  C   LIG    1        4.595   1.573  -0.102  0.00  0.00    +0.140 A 
ATOM     17  N   LIG    1        3.451   2.048  -0.624  0.00  0.00    -0.450 NA
ATOM     18  C   LIG    1        2.671   2.423   0.350  0.00  0.00    +0.160 A 
ATOM     19  O   LIG    1        3.293   2.189   1.514  0.00  0.00    -0.190 OA
ENDBRANCH  13  18
ENDBRANCH   9  13
ENDBRANCH   1  11
BRANCH   8  20
ATOM     20  C   LIG    1       -3.216   2.457   1.815  0.00  0.00    +0.340 C 
BRANCH  20  21
ATOM     21  C   LIG    1       -3.370   1.593   3.040  0.00  0.00    -0.110 A 
ATOM     22  C   LIG    1       -4.611   1.450   3.633  0.00  0.00    +0.040 A 
ATOM     23  C   LIG    1       -4.753   0.654   4.755  0.00  0.00    +0.000 A 
ATOM     24  C   LIG    1       -3.653   0.009   5.289  0.00  0.00    +0.010 A 
ATOM     25  C   LIG    1       -2.412   0.157   4.699  0.00  0.00    +0.000 A 
ATOM     26  C   LIG    1       -2.270   0.949   3.575  0.00  0.00    +0.000 A 
ENDBRANCH  20  21
ENDBRANCH   8  20
TORSDOF 5
