REMARK  Name = ZINCvU0000000HIw.0
REMARK                            x       y       z     vdW  Elec       q    Type
REMARK                         _______ _______ _______ _____ _____    ______ ____
ROOT
ATOM      1  N   LIG    1        0.092   1.288  -4.082  0.00  0.00    -0.440 N 
ATOM      2  C   LIG    1        0.269   1.165  -2.734  0.00  0.00    +0.120 A 
ATOM      3  N   LIG    1        1.128   0.188  -2.541  0.00  0.00    -0.280 NA
ATOM      4  N   LIG    1        1.502  -0.300  -3.670  0.00  0.00    -0.260 NA
ATOM      5  C   LIG    1        0.905   0.334  -4.652  0.00  0.00    +0.220 A 
ENDROOT
BRANCH   1  12
ATOM      6  C   LIG    1        1.098   3.886  -4.873  0.00  0.00    +0.030 C 
ATOM      7  C   LIG    1       -0.351   3.667  -4.433  0.00  0.00    +0.000 C 
ATOM      8  C   LIG    1       -0.464   3.883  -2.923  0.00  0.00    +0.020 C 
ATOM      9  C   LIG    1       -1.913   3.664  -2.483  0.00  0.00    +0.050 C 
ATOM     10  C   LIG    1       -2.340   2.236  -2.828  0.00  0.00    +0.010 C 
ATOM     11  C   LIG    1       -2.227   2.020  -4.338  0.00  0.00    +0.030 C 
ATOM     12  C   LIG    1       -0.778   2.239  -4.778  0.00  0.00    +0.230 C 
ENDBRANCH   1  12
BRANCH   5  13
ATOM     13  C   LIG    1        1.069   0.070  -6.097  0.00  0.00    -0.070 A 
ATOM     14  C   LIG    1        2.295  -0.376  -6.604  0.00  0.00    +0.120 A 
ATOM     15  C   LIG    1        2.395  -0.614  -7.964  0.00  0.00    -0.010 A 
ATOM     16  C   LIG    1        1.294  -0.397  -8.772  0.00  0.00    +0.270 A 
ATOM     17  N   LIG    1        0.152   0.029  -8.267  0.00  0.00    -0.480 NA
ATOM     18  C   LIG    1        0.006   0.265  -6.980  0.00  0.00    +0.270 A 
ENDBRANCH   5  13
BRANCH   2  19
ATOM     19  S   LIG    1       -0.514   2.129  -1.485  0.00  0.00    +0.220 S 
BRANCH  19  20
ATOM     20  C   LIG    1        0.209   1.377  -0.006  0.00  0.00    -0.050 C 
BRANCH  20  21
ATOM     21  C   LIG    1       -0.331   2.062   1.222  0.00  0.00    +0.430 C 
ATOM     22  O   LIG    1       -1.127   2.969   1.109  0.00  0.00    -0.450 OA
BRANCH  21  23
ATOM     23  C   LIG    1        0.107   1.629   2.559  0.00  0.00    -0.170 A 
ATOM     24  C   LIG    1        1.021   0.580   2.695  0.00  0.00    +0.070 A 
ATOM     25  C   LIG    1        1.427   0.185   3.950  0.00  0.00    +0.010 A 
ATOM     26  C   LIG    1        0.930   0.816   5.081  0.00  0.00    -0.060 A 
ATOM     27  C   LIG    1        1.217   0.565   6.546  0.00  0.00    +0.080 C 
ATOM     28  C   LIG    1        0.731   1.834   7.277  0.00  0.00    +0.030 C 
ATOM     29  C   LIG    1       -0.362   2.366   6.326  0.00  0.00    +0.080 C 
ATOM     30  C   LIG    1        0.021   1.853   4.954  0.00  0.00    -0.110 A 
ATOM     31  C   LIG    1       -0.391   2.262   3.701  0.00  0.00    +0.080 A 
ENDBRANCH  21  23
ENDBRANCH  20  21
ENDBRANCH  19  20
ENDBRANCH   2  19
TORSDOF 6
