REMARK  Name = ZINCnE000001MDSO.1
REMARK                            x       y       z     vdW  Elec       q    Type
REMARK                         _______ _______ _______ _____ _____    ______ ____
ROOT
ATOM      1  C   LIG    1        1.763   0.019  -0.015  0.00  0.00    +0.380 A 
ATOM      2  N   LIG    1        2.177   1.248  -0.012  0.00  0.00    -0.550 NA
ATOM      3  C   LIG    1        1.250   2.196   0.002  0.00  0.00    +0.130 A 
ATOM      4  C   LIG    1       -0.022   1.758   0.012  0.00  0.00    -0.190 A 
ATOM      5  S   LIG    1        0.002  -0.004   0.002  0.00  0.00    -0.010 S 
ENDROOT
BRANCH   3   6
ATOM      6  C   LIG    1        1.591   3.639   0.006  0.00  0.00    -0.000 A 
ATOM      7  C   LIG    1        0.578   4.597   0.015  0.00  0.00    +0.030 A 
ATOM      8  C   LIG    1        0.899   5.938   0.024  0.00  0.00    -0.030 A 
ATOM      9  C   LIG    1        2.229   6.335   0.014  0.00  0.00    +0.090 A 
ATOM     10  C   LIG    1        3.240   5.384  -0.000  0.00  0.00    -0.020 A 
ATOM     11  C   LIG    1        2.926   4.041  -0.004  0.00  0.00    +0.060 A 
BRANCH   9  12
ATOM     12  O   LIG    1        2.542   7.658   0.018  0.00  0.00    -0.500 OA
ATOM     13  H   LIG    1        2.625   8.045  -0.864  0.00  0.00    +0.380 HD
ENDBRANCH   9  12
ENDBRANCH   3   6
BRANCH   1  15
ATOM     14  C   LIG    1        2.034  -2.336  -0.030  0.00  0.00    +0.460 C 
ATOM     15  N   LIG    1        2.581  -1.103  -0.029  0.00  0.00    -0.660 NA
ATOM     16  O   LIG    1        0.829  -2.464  -0.020  0.00  0.00    -0.580 OA
BRANCH  14  18
ATOM     17  C   LIG    1        3.727  -3.614   1.254  0.00  0.00    +0.030 C 
ATOM     18  C   LIG    1        2.922  -3.554  -0.045  0.00  0.00    +0.180 C 
BRANCH  18  19
ATOM     19  O   LIG    1        2.116  -4.728  -0.162  0.00  0.00    -0.350 OA
BRANCH  19  20
ATOM     20  C   LIG    1        2.760  -5.809  -0.839  0.00  0.00    +0.200 C 
BRANCH  20  21
ATOM     21  C   LIG    1        1.811  -7.007  -0.905  0.00  0.00    +0.460 C 
ATOM     22  F   LIG    1        1.471  -7.406   0.392  0.00  0.00    -0.180 F 
ATOM     23  F   LIG    1        2.441  -8.066  -1.568  0.00  0.00    -0.180 F 
ATOM     24  F   LIG    1        0.652  -6.646  -1.600  0.00  0.00    -0.170 F 
ENDBRANCH  20  21
ENDBRANCH  19  20
ENDBRANCH  18  19
ENDBRANCH  14  18
ENDBRANCH   1  15
TORSDOF 7
