REMARK  Name = ZINCb70000002hor.0
REMARK                            x       y       z     vdW  Elec       q    Type
REMARK                         _______ _______ _______ _____ _____    ______ ____
ROOT
ATOM      1  C   LIG    1       -2.840   3.085   1.468  0.00  0.00    +0.180 C 
ATOM      2  C   LIG    1       -3.660   4.186   0.790  0.00  0.00    +0.250 C 
ATOM      3  N   LIG    1       -4.832   4.501   1.619  0.00  0.00    -0.510 N 
ATOM      4  C   LIG    1       -4.386   4.964   2.940  0.00  0.00    +0.240 C 
ATOM      5  C   LIG    1       -3.565   3.861   3.614  0.00  0.00    +0.270 C 
ATOM      6  H   LIG    1       -5.400   3.675   1.726  0.00  0.00    +0.430 HD
ATOM      7  H   LIG    1       -5.373   5.227   1.173  0.00  0.00    +0.440 HD
ATOM      8  O   LIG    1       -2.457   3.519   2.776  0.00  0.00    -0.350 OA
ENDROOT
BRANCH   1  12
ATOM      9  C   LIG    1       -0.013   1.086   0.008  0.00  0.00    +0.010 C 
ATOM     10  C   LIG    1       -0.808   1.621  -1.198  0.00  0.00    +0.220 C 
ATOM     11  O   LIG    1       -1.946   2.329  -0.680  0.00  0.00    -0.380 OA
ATOM     12  C   LIG    1       -1.587   2.797   0.638  0.00  0.00    +0.170 C 
ATOM     13  C   LIG    1       -0.788   1.610   1.241  0.00  0.00    +0.030 C 
ENDBRANCH   1  12
TORSDOF 1
