REMARK  Name = ZINCvU0000000450.0
REMARK                            x       y       z     vdW  Elec       q    Type
REMARK                         _______ _______ _______ _____ _____    ______ ____
ROOT
ATOM      1  N   LIG    1       -0.815   5.746   1.291  0.00  0.00    -0.680 N 
ATOM      2  H   LIG    1       -1.768   5.923   1.339  0.00  0.00    +0.420 HD
ENDROOT
BRANCH   1   3
ATOM      3  C   LIG    1       -0.021   5.917   2.413  0.00  0.00    +0.460 A 
ATOM      4  C   LIG    1        1.351   5.660   2.356  0.00  0.00    -0.090 A 
ATOM      5  C   LIG    1        2.105   5.848   3.499  0.00  0.00    +0.130 A 
ATOM      6  N   LIG    1        1.508   6.255   4.609  0.00  0.00    -0.510 NA
ATOM      7  C   LIG    1        0.204   6.487   4.635  0.00  0.00    +0.420 A 
ATOM      8  N   LIG    1       -0.553   6.323   3.560  0.00  0.00    -0.540 NA
BRANCH   7   9
ATOM      9  C   LIG    1       -0.425   6.942   5.901  0.00  0.00    -0.010 A 
ATOM     10  C   LIG    1       -1.796   7.202   5.968  0.00  0.00    +0.030 A 
ATOM     11  C   LIG    1       -2.341   7.618   7.166  0.00  0.00    +0.250 A 
ATOM     12  N   LIG    1       -1.584   7.780   8.234  0.00  0.00    -0.470 NA
ATOM     13  C   LIG    1       -0.285   7.551   8.211  0.00  0.00    +0.250 A 
ATOM     14  C   LIG    1        0.340   7.127   7.056  0.00  0.00    +0.030 A 
ENDBRANCH   7   9
BRANCH   5  15
ATOM     15  C   LIG    1        3.590   5.589   3.484  0.00  0.00    +0.520 C 
ATOM     16  F   LIG    1        4.214   6.504   2.629  0.00  0.00    -0.170 F 
ATOM     17  F   LIG    1        3.831   4.288   3.031  0.00  0.00    -0.170 F 
ATOM     18  F   LIG    1        4.102   5.735   4.778  0.00  0.00    -0.160 F 
ENDBRANCH   5  15
ENDBRANCH   1   3
BRANCH   1  19
ATOM     19  C   LIG    1       -0.217   5.298   0.031  0.00  0.00    +0.360 C 
BRANCH  19  24
ATOM     20  C   LIG    1       -3.487   7.066  -4.393  0.00  0.00    +0.090 C 
ATOM     21  C   LIG    1       -2.634   6.605  -3.239  0.00  0.00    -0.070 A 
ATOM     22  C   LIG    1       -1.256   6.649  -3.337  0.00  0.00    +0.010 A 
ATOM     23  C   LIG    1       -0.474   6.226  -2.279  0.00  0.00    +0.020 A 
ATOM     24  C   LIG    1       -1.069   5.759  -1.123  0.00  0.00    -0.100 A 
ATOM     25  C   LIG    1       -2.448   5.710  -1.026  0.00  0.00    +0.050 A 
ATOM     26  C   LIG    1       -3.230   6.138  -2.083  0.00  0.00    +0.010 A 
ENDBRANCH  19  24
BRANCH  19  27
ATOM     27  C   LIG    1       -0.132   3.793   0.023  0.00  0.00    +0.100 A 
ATOM     28  C   LIG    1        1.106   3.179   0.008  0.00  0.00    -0.030 A 
ATOM     29  C   LIG    1        1.173   1.794   0.001  0.00  0.00    +0.070 A 
ATOM     30  C   LIG    1       -0.013   1.076   0.008  0.00  0.00    -0.020 A 
ATOM     31  C   LIG    1       -1.214   1.759   0.017  0.00  0.00    +0.260 A 
ATOM     32  N   LIG    1       -1.240   3.078   0.030  0.00  0.00    -0.460 NA
ENDBRANCH  19  27
ENDBRANCH   1  19
TORSDOF 6
