REMARK  Name = ZINCpe00000gMOWp.0
REMARK                            x       y       z     vdW  Elec       q    Type
REMARK                         _______ _______ _______ _____ _____    ______ ____
ROOT
ATOM      1  C   LIG    1        1.479   3.910  -2.649  0.00  0.00    +0.520 C 
ATOM      2  N   LIG    1        2.024   4.673  -3.618  0.00  0.00    -0.520 N 
ATOM      3  H   LIG    1        1.983   5.640  -3.554  0.00  0.00    +0.440 HD
ATOM      4  O   LIG    1        1.531   2.701  -2.729  0.00  0.00    -0.510 OA
ENDROOT
BRANCH   2   5
ATOM      5  N   LIG    1        2.650   4.070  -4.716  0.00  0.00    -0.520 N 
ATOM      6  H   LIG    1        2.691   3.103  -4.780  0.00  0.00    +0.430 HD
ATOM      7  C   LIG    1        3.195   4.833  -5.684  0.00  0.00    +0.570 C 
ATOM      8  O   LIG    1        3.143   6.045  -5.604  0.00  0.00    -0.530 OA
BRANCH   7   9
ATOM      9  C   LIG    1        3.855   4.196  -6.844  0.00  0.00    -0.130 A 
ATOM     10  C   LIG    1        3.921   2.805  -6.936  0.00  0.00    +0.040 A 
ATOM     11  C   LIG    1        4.534   2.217  -8.023  0.00  0.00    +0.010 A 
ATOM     12  C   LIG    1        5.092   3.004  -9.015  0.00  0.00    +0.040 A 
ATOM     13  C   LIG    1        5.035   4.383  -8.927  0.00  0.00    +0.000 A 
ATOM     14  C   LIG    1        4.420   4.984  -7.848  0.00  0.00    +0.090 A 
ENDBRANCH   7   9
ENDBRANCH   2   5
BRANCH   1  15
ATOM     15  C   LIG    1        0.806   4.559  -1.468  0.00  0.00    +0.280 C 
BRANCH  15  16
ATOM     16  O   LIG    1        0.304   3.532  -0.573  0.00  0.00    -0.320 OA
BRANCH  16  17
ATOM     17  C   LIG    1       -0.330   3.948   0.542  0.00  0.00    +0.530 C 
ATOM     18  O   LIG    1       -0.459   5.136   0.759  0.00  0.00    -0.500 OA
BRANCH  17  27
ATOM     19  C   LIG    1       -0.013   1.086   0.008  0.00  0.00    +0.140 C 
ATOM     20  C   LIG    1       -0.718   1.572   1.248  0.00  0.00    +0.060 A 
ATOM     21  C   LIG    1       -1.219   0.687   2.150  0.00  0.00    -0.110 A 
ATOM     22  C   LIG    1       -1.873   1.169   3.301  0.00  0.00    +0.500 A 
ATOM     23  O   LIG    1       -2.003   2.491   3.507  0.00  0.00    -0.250 OA
ATOM     24  C   LIG    1       -1.519   3.380   2.634  0.00  0.00    +0.250 A 
ATOM     25  C   LIG    1       -1.685   4.854   2.899  0.00  0.00    +0.210 C 
ATOM     26  O   LIG    1       -2.324   0.383   4.114  0.00  0.00    -0.460 OA
ATOM     27  C   LIG    1       -0.866   2.961   1.496  0.00  0.00    -0.270 A 
ENDBRANCH  17  27
ENDBRANCH  16  17
ENDBRANCH  15  16
ENDBRANCH   1  15
TORSDOF 6
