REMARK  Name = ZINCrg00000AyrB5.0
REMARK                            x       y       z     vdW  Elec       q    Type
REMARK                         _______ _______ _______ _____ _____    ______ ____
ROOT
ATOM      1  C   LIG    1       -0.614  -0.678  -2.004  0.00  0.00    +0.510 C 
ATOM      2  N   LIG    1        0.572  -0.549  -1.377  0.00  0.00    -0.610 N 
ATOM      3  C   LIG    1        1.825  -0.765  -2.152  0.00  0.00    +0.270 C 
ATOM      4  C   LIG    1        2.886   0.274  -1.715  0.00  0.00    +0.280 C 
ATOM      5  N   LIG    1        2.321   1.573  -1.483  0.00  0.00    -0.590 N 
ATOM      6  C   LIG    1        1.838   1.942  -0.131  0.00  0.00    +0.300 C 
ATOM      7  C   LIG    1        0.528   1.324   0.131  0.00  0.00    +0.140 C 
ATOM      8  C   LIG    1        2.230   2.458  -2.496  0.00  0.00    +0.490 C 
ATOM      9  O   LIG    1        2.675   2.177  -3.588  0.00  0.00    -0.520 OA
ATOM     10  C   LIG    1        0.587  -0.209   0.017  0.00  0.00    +0.270 C 
ATOM     11  O   LIG    1       -1.646  -0.507  -1.391  0.00  0.00    -0.520 OA
ENDROOT
BRANCH   7  12
ATOM     12  O   LIG    1        0.102   1.677   1.449  0.00  0.00    -0.560 OA
ATOM     13  H   LIG    1       -0.771   1.335   1.684  0.00  0.00    +0.390 HD
ENDBRANCH   7  12
BRANCH   8  14
ATOM     14  C   LIG    1        1.576   3.797  -2.270  0.00  0.00    +0.210 C 
ATOM     15  C   LIG    1        0.060   3.614  -2.173  0.00  0.00    +0.030 C 
BRANCH  14  16
ATOM     16  O   LIG    1        1.882   4.667  -3.362  0.00  0.00    -0.540 OA
ATOM     17  H   LIG    1        1.578   4.342  -4.221  0.00  0.00    +0.390 HD
ENDBRANCH  14  16
ENDBRANCH   8  14
BRANCH   1  18
ATOM     18  C   LIG    1       -0.657  -1.036  -3.467  0.00  0.00    +0.140 C 
BRANCH  18  24
ATOM     19  C   LIG    1       -6.127   2.455  -5.796  0.00  0.00    +0.090 C 
ATOM     20  C   LIG    1       -5.005   1.583  -5.294  0.00  0.00    -0.060 A 
ATOM     21  C   LIG    1       -3.780   2.152  -4.982  0.00  0.00    +0.000 A 
ATOM     22  C   LIG    1       -2.745   1.367  -4.523  0.00  0.00    +0.050 A 
ATOM     23  C   LIG    1       -2.938  -0.006  -4.372  0.00  0.00    -0.110 A 
ATOM     24  C   LIG    1       -2.091  -1.117  -3.922  0.00  0.00    -0.170 A 
ATOM     25  C   LIG    1       -2.848  -2.220  -4.003  0.00  0.00    +0.230 A 
ATOM     26  O   LIG    1       -4.078  -1.906  -4.448  0.00  0.00    -0.190 OA
ATOM     27  C   LIG    1       -4.180  -0.583  -4.687  0.00  0.00    +0.060 A 
ATOM     28  C   LIG    1       -5.209   0.227  -5.149  0.00  0.00    -0.070 A 
ATOM     29  C   LIG    1       -6.547  -0.376  -5.493  0.00  0.00    +0.100 C 
ENDBRANCH  18  24
ENDBRANCH   1  18
TORSDOF 5
