REMARK  Name = ZINCpk00000y6yNx.0
REMARK                            x       y       z     vdW  Elec       q    Type
REMARK                         _______ _______ _______ _____ _____    ______ ____
ROOT
ATOM      1  N   LIG    1        4.989  -4.287  -2.665  0.00  0.00    -0.710 N 
ATOM      2  H   LIG    1        4.739  -3.857  -3.497  0.00  0.00    +0.410 HD
ATOM      3  C   LIG    1        4.852  -3.627  -1.498  0.00  0.00    +0.530 C 
ATOM      4  O   LIG    1        5.165  -4.165  -0.457  0.00  0.00    -0.530 OA
ENDROOT
BRANCH   1   6
ATOM      5  C   LIG    1        6.112  -6.072  -4.031  0.00  0.00    +0.280 C 
ATOM      6  C   LIG    1        5.518  -5.653  -2.676  0.00  0.00    +0.250 C 
ATOM      7  C   LIG    1        4.441  -6.728  -2.905  0.00  0.00    +0.010 C 
ATOM      8  C   LIG    1        5.462  -7.447  -3.802  0.00  0.00    +0.180 C 
BRANCH   5  12
ATOM      9  C   LIG    1       10.846  -7.631  -3.501  0.00  0.00    +0.110 C 
ATOM     10  C   LIG    1        9.640  -6.783  -3.815  0.00  0.00    -0.230 A 
ATOM     11  C   LIG    1        8.347  -7.144  -3.647  0.00  0.00    +0.220 A 
ATOM     12  N   LIG    1        7.577  -6.110  -4.043  0.00  0.00    -0.370 N 
ATOM     13  N   LIG    1        8.424  -5.081  -4.474  0.00  0.00    -0.290 NA
ATOM     14  C   LIG    1        9.661  -5.483  -4.331  0.00  0.00    +0.230 A 
ENDBRANCH   5  12
BRANCH   8  15
ATOM     15  O   LIG    1        4.888  -8.015  -4.981  0.00  0.00    -0.550 OA
ATOM     16  H   LIG    1        4.439  -8.858  -4.833  0.00  0.00    +0.390 HD
ENDBRANCH   8  15
ENDBRANCH   1   6
BRANCH   3  17
ATOM     17  C   LIG    1        4.308  -2.222  -1.486  0.00  0.00    +0.050 C 
BRANCH  17  18
ATOM     18  C   LIG    1        4.255  -1.708  -0.045  0.00  0.00    +0.340 C 
BRANCH  18  19
ATOM     19  N   LIG    1        3.726  -0.342  -0.034  0.00  0.00    -0.490 N 
ATOM     20  C   LIG    1        4.458   0.805  -0.035  0.00  0.00    +0.470 A 
ATOM     21  N   LIG    1        3.668   1.839  -0.022  0.00  0.00    -0.490 NA
ATOM     22  C   LIG    1        2.375   1.426  -0.013  0.00  0.00    +0.040 A 
ATOM     23  C   LIG    1        1.149   2.096   0.002  0.00  0.00    +0.070 A 
ATOM     24  C   LIG    1       -0.017   1.383   0.010  0.00  0.00    +0.000 A 
ATOM     25  C   LIG    1        0.002  -0.004   0.002  0.00  0.00    +0.030 A 
ATOM     26  C   LIG    1        1.200  -0.687  -0.013  0.00  0.00    +0.010 A 
ATOM     27  C   LIG    1        2.394   0.021  -0.020  0.00  0.00    +0.050 A 
ENDBRANCH  18  19
ENDBRANCH  17  18
ENDBRANCH   3  17
TORSDOF 6
