REMARK  Name = ZINCpe00000gN4u6.0
REMARK                            x       y       z     vdW  Elec       q    Type
REMARK                         _______ _______ _______ _____ _____    ______ ____
ROOT
ATOM      1  N   LIG    1        5.718   3.736  -0.464  0.00  0.00    -0.480 N 
ATOM      2  C   LIG    1        5.801   2.733   0.607  0.00  0.00    +0.230 C 
ATOM      3  C   LIG    1        4.828   1.590   0.307  0.00  0.00    +0.190 C 
ATOM      4  N   LIG    1        3.465   2.126   0.197  0.00  0.00    -0.510 NA
ATOM      5  C   LIG    1        3.382   3.129  -0.874  0.00  0.00    +0.200 C 
ATOM      6  C   LIG    1        4.354   4.273  -0.575  0.00  0.00    +0.230 C 
ENDROOT
BRANCH   1  10
ATOM      7  C   LIG    1        8.456   6.750   0.149  0.00  0.00    -0.190 A 
ATOM      8  C   LIG    1        7.625   6.814  -0.979  0.00  0.00    +0.190 A 
ATOM      9  C   LIG    1        6.713   5.799  -1.181  0.00  0.00    -0.110 A 
ATOM     10  C   LIG    1        6.637   4.754  -0.264  0.00  0.00    +0.400 A 
ATOM     11  N   LIG    1        7.433   4.714   0.795  0.00  0.00    -0.580 NA
ATOM     12  C   LIG    1        8.326   5.662   1.029  0.00  0.00    +0.480 A 
BRANCH  12  13
ATOM     13  N   LIG    1        9.137   5.581   2.147  0.00  0.00    -0.840 N 
ATOM     14  H   LIG    1        9.793   6.274   2.322  0.00  0.00    +0.410 HD
ATOM     15  H   LIG    1        9.050   4.832   2.757  0.00  0.00    +0.410 HD
ENDBRANCH  12  13
BRANCH   7  17
ATOM     16  N   LIG    1       10.188   8.592   0.599  0.00  0.00    -0.430 NA
ATOM     17  C   LIG    1        9.422   7.777   0.400  0.00  0.00    +0.260 C 
ENDBRANCH   7  17
ENDBRANCH   1  10
BRANCH   4  18
ATOM     18  C   LIG    1        2.490   1.048  -0.016  0.00  0.00    +0.180 C 
BRANCH  18  19
ATOM     19  C   LIG    1        2.554   0.079   1.136  0.00  0.00    -0.090 A 
ATOM     20  C   LIG    1        2.524  -1.283   0.897  0.00  0.00    +0.010 A 
ATOM     21  C   LIG    1        2.576  -2.171   1.955  0.00  0.00    +0.000 A 
ATOM     22  C   LIG    1        2.670  -1.699   3.251  0.00  0.00    +0.010 A 
ATOM     23  C   LIG    1        2.700  -0.338   3.490  0.00  0.00    +0.000 A 
ATOM     24  C   LIG    1        2.642   0.551   2.432  0.00  0.00    +0.050 A 
ENDBRANCH  18  19
BRANCH  18  25
ATOM     25  C   LIG    1        1.104   1.633  -0.104  0.00  0.00    +0.530 C 
ATOM     26  O   LIG    1        0.844   2.665   0.477  0.00  0.00    -0.520 OA
ATOM     27  N   LIG    1        0.154   1.009  -0.829  0.00  0.00    -0.850 N 
ATOM     28  H   LIG    1       -0.738   1.386  -0.886  0.00  0.00    +0.410 HD
ATOM     29  H   LIG    1        0.363   0.184  -1.294  0.00  0.00    +0.400 HD
ENDBRANCH  18  25
ENDBRANCH   4  18
TORSDOF 6
