REMARK  Name = ZINCrH000004sKr0.0
REMARK                            x       y       z     vdW  Elec       q    Type
REMARK                         _______ _______ _______ _____ _____    ______ ____
ROOT
ATOM      1  C   LIG    1       -1.972   3.863   5.492  0.00  0.00    -0.100 A 
ATOM      2  C   LIG    1       -1.117   4.717   4.820  0.00  0.00    +0.050 A 
ATOM      3  C   LIG    1       -0.577   4.344   3.606  0.00  0.00    +0.080 A 
ATOM      4  C   LIG    1       -0.896   3.101   3.057  0.00  0.00    -0.120 A 
ATOM      5  C   LIG    1       -1.764   2.246   3.738  0.00  0.00    +0.050 A 
ATOM      6  C   LIG    1       -2.292   2.629   4.953  0.00  0.00    +0.020 A 
ENDROOT
BRANCH   4   7
ATOM      7  C   LIG    1       -0.322   2.695   1.756  0.00  0.00    +0.560 C 
ATOM      8  N   LIG    1       -0.915   1.726   1.031  0.00  0.00    -0.610 N 
ATOM      9  C   LIG    1       -2.209   1.184   1.453  0.00  0.00    +0.290 C 
ATOM     10  O   LIG    1        0.686   3.234   1.342  0.00  0.00    -0.520 OA
BRANCH   8  11
ATOM     11  C   LIG    1       -0.267   1.217  -0.180  0.00  0.00    +0.380 C 
BRANCH  11  12
ATOM     12  C   LIG    1       -0.711   2.030  -1.368  0.00  0.00    -0.210 A 
ATOM     13  C   LIG    1       -0.105   3.131  -1.817  0.00  0.00    +0.030 A 
ATOM     14  C   LIG    1       -0.696   3.710  -2.927  0.00  0.00    +0.000 A 
ATOM     15  C   LIG    1       -1.781   3.080  -3.379  0.00  0.00    -0.030 A 
ATOM     16  S   LIG    1       -2.104   1.670  -2.380  0.00  0.00    +0.090 S 
ENDBRANCH  11  12
ENDBRANCH   8  11
ENDBRANCH   4   7
BRANCH   1  17
ATOM     17  C   LIG    1       -2.558   4.277   6.817  0.00  0.00    +0.400 C 
BRANCH  17  21
ATOM     18  C   LIG    1       -5.872   7.958   6.004  0.00  0.00    +0.170 C 
ATOM     19  C   LIG    1       -5.257   6.602   6.238  0.00  0.00    +0.130 A 
ATOM     20  N   LIG    1       -3.984   6.357   6.411  0.00  0.00    -0.260 NA
ATOM     21  N   LIG    1       -3.825   4.977   6.594  0.00  0.00    -0.340 N 
ATOM     22  C   LIG    1       -5.047   4.407   6.533  0.00  0.00    +0.160 A 
ATOM     23  C   LIG    1       -5.351   2.938   6.683  0.00  0.00    +0.160 C 
ATOM     24  C   LIG    1       -5.950   5.390   6.314  0.00  0.00    -0.190 A 
BRANCH  24  25
ATOM     25  N   LIG    1       -7.414   5.213   6.178  0.00  0.00    +0.050 N 
ATOM     26  O   LIG    1       -7.904   5.012   5.082  0.00  0.00    -0.140 OA
ATOM     27  O   LIG    1       -8.128   5.270   7.163  0.00  0.00    -0.130 OA
ENDBRANCH  24  25
ENDBRANCH  17  21
ENDBRANCH   1  17
TORSDOF 6
