REMARK  Name = ZINCpk00000y6wDG.1
REMARK                            x       y       z     vdW  Elec       q    Type
REMARK                         _______ _______ _______ _____ _____    ______ ____
ROOT
ATOM      1  C   LIG    1       -2.534   0.429  -1.675  0.00  0.00    +0.570 C 
ATOM      2  N   LIG    1       -2.096   1.416  -0.869  0.00  0.00    -0.610 N 
ATOM      3  C   LIG    1       -3.018   2.057   0.072  0.00  0.00    +0.280 C 
ATOM      4  O   LIG    1       -1.746  -0.184  -2.369  0.00  0.00    -0.500 OA
ENDROOT
BRANCH   1  11
ATOM      5  C   LIG    1       -9.221  -0.392  -1.575  0.00  0.00    +0.170 C 
ATOM      6  C   LIG    1       -7.908  -1.050  -1.914  0.00  0.00    -0.060 A 
ATOM      7  C   LIG    1       -7.739  -2.298  -2.411  0.00  0.00    +0.220 A 
ATOM      8  N   LIG    1       -6.436  -2.517  -2.578  0.00  0.00    -0.470 NA
ATOM      9  C   LIG    1       -5.763  -1.439  -2.200  0.00  0.00    +0.200 A 
ATOM     10  C   LIG    1       -4.387  -1.145  -2.178  0.00  0.00    +0.160 A 
ATOM     11  C   LIG    1       -3.971   0.092  -1.716  0.00  0.00    -0.130 A 
ATOM     12  C   LIG    1       -4.940   1.034  -1.288  0.00  0.00    +0.030 A 
ATOM     13  C   LIG    1       -6.249   0.723  -1.327  0.00  0.00    +0.220 A 
ATOM     14  N   LIG    1       -6.668  -0.499  -1.777  0.00  0.00    -0.350 N 
ENDBRANCH   1  11
BRANCH   2  15
ATOM     15  C   LIG    1       -0.697   1.847  -0.932  0.00  0.00    +0.310 C 
BRANCH  15  16
ATOM     16  C   LIG    1        0.136   1.022   0.050  0.00  0.00    +0.150 C 
ATOM     17  O   LIG    1        0.177  -0.350  -0.376  0.00  0.00    -0.340 OA
ATOM     18  C   LIG    1        1.476  -0.866  -0.012  0.00  0.00    +0.210 C 
ATOM     19  C   LIG    1        2.435   0.308  -0.335  0.00  0.00    +0.040 C 
ATOM     20  C   LIG    1        1.588   1.539   0.070  0.00  0.00    +0.080 C 
BRANCH  20  21
ATOM     21  C   LIG    1        1.764   2.652  -0.931  0.00  0.00    +0.230 A 
ATOM     22  N   LIG    1        1.575   2.552  -2.220  0.00  0.00    -0.300 NA
ATOM     23  N   LIG    1        1.846   3.816  -2.769  0.00  0.00    -0.480 N 
ATOM     24  H   LIG    1        1.793   4.067  -3.705  0.00  0.00    +0.440 HD
ATOM     25  C   LIG    1        2.197   4.608  -1.742  0.00  0.00    +0.480 A 
ATOM     26  N   LIG    1        2.144   3.897  -0.645  0.00  0.00    -0.540 NA
ENDBRANCH  20  21
ENDBRANCH  15  16
ENDBRANCH   2  15
TORSDOF 4
