REMARK  Name = ZINCpk00000y6wDG.0
REMARK                            x       y       z     vdW  Elec       q    Type
REMARK                         _______ _______ _______ _____ _____    ______ ____
ROOT
ATOM      1  C   LIG    1        4.286   2.730  -0.591  0.00  0.00    +0.570 C 
ATOM      2  N   LIG    1        4.005   2.068   0.549  0.00  0.00    -0.610 N 
ATOM      3  C   LIG    1        4.483   2.585   1.834  0.00  0.00    +0.290 C 
ATOM      4  O   LIG    1        3.791   2.370  -1.641  0.00  0.00    -0.510 OA
ENDROOT
BRANCH   1  11
ATOM      5  C   LIG    1        8.707   7.753   0.206  0.00  0.00    +0.170 C 
ATOM      6  C   LIG    1        7.628   7.196  -0.688  0.00  0.00    -0.060 A 
ATOM      7  C   LIG    1        7.190   7.736  -1.850  0.00  0.00    +0.230 A 
ATOM      8  N   LIG    1        6.231   6.956  -2.346  0.00  0.00    -0.470 NA
ATOM      9  C   LIG    1        6.042   5.928  -1.530  0.00  0.00    +0.200 A 
ATOM     10  C   LIG    1        5.168   4.827  -1.586  0.00  0.00    +0.170 A 
ATOM     11  C   LIG    1        5.194   3.894  -0.563  0.00  0.00    -0.130 A 
ATOM     12  C   LIG    1        6.108   4.066   0.507  0.00  0.00    +0.030 A 
ATOM     13  C   LIG    1        6.934   5.127   0.527  0.00  0.00    +0.220 A 
ATOM     14  N   LIG    1        6.911   6.055  -0.476  0.00  0.00    -0.350 N 
ENDBRANCH   1  11
BRANCH   2  15
ATOM     15  C   LIG    1        3.222   0.831   0.503  0.00  0.00    +0.310 C 
BRANCH  15  16
ATOM     16  C   LIG    1        1.734   1.164   0.632  0.00  0.00    +0.150 C 
ATOM     17  O   LIG    1        1.291   1.880  -0.533  0.00  0.00    -0.350 OA
ATOM     18  C   LIG    1       -0.074   1.480  -0.781  0.00  0.00    +0.210 C 
ATOM     19  C   LIG    1       -0.062  -0.043  -0.490  0.00  0.00    +0.020 C 
ATOM     20  C   LIG    1        0.911  -0.136   0.710  0.00  0.00    +0.090 C 
BRANCH  20  21
ATOM     21  C   LIG    1        1.808  -1.338   0.569  0.00  0.00    +0.190 A 
ATOM     22  N   LIG    1        2.280  -2.070   1.542  0.00  0.00    -0.290 NA
ATOM     23  N   LIG    1        3.007  -3.015   1.060  0.00  0.00    -0.290 NA
ATOM     24  C   LIG    1        3.041  -2.923  -0.242  0.00  0.00    +0.380 A 
ATOM     25  N   LIG    1        2.281  -1.856  -0.590  0.00  0.00    -0.580 N 
ATOM     26  H   LIG    1        2.110  -1.529  -1.488  0.00  0.00    +0.430 HD
ENDBRANCH  20  21
ENDBRANCH  15  16
ENDBRANCH   2  15
TORSDOF 4
