REMARK  Name = ZINCtV00001bB3M9.0
REMARK                            x       y       z     vdW  Elec       q    Type
REMARK                         _______ _______ _______ _____ _____    ______ ____
ROOT
ATOM      1  C   LIG    1       -8.217  -0.712   1.103  0.00  0.00    +0.080 A 
ATOM      2  C   LIG    1       -8.620  -2.033   0.885  0.00  0.00    +0.050 A 
ATOM      3  C   LIG    1       -9.949  -2.334   0.787  0.00  0.00    +0.010 A 
ATOM      4  C   LIG    1      -10.906  -1.319   0.895  0.00  0.00    +0.150 A 
ATOM      5  C   LIG    1      -10.502   0.003   1.108  0.00  0.00    -0.030 A 
ATOM      6  C   LIG    1       -9.173   0.303   1.211  0.00  0.00    +0.130 A 
ENDROOT
BRANCH   5   7
ATOM      7  N   LIG    1      -11.514   1.077   1.222  0.00  0.00    +0.030 N 
ATOM      8  O   LIG    1      -12.698   0.809   1.130  0.00  0.00    -0.120 OA
ATOM      9  O   LIG    1      -11.162   2.228   1.408  0.00  0.00    -0.180 OA
ENDBRANCH   5   7
BRANCH   1  11
ATOM     10  C   LIG    1       -6.106  -1.155   1.938  0.00  0.00    +0.330 C 
ATOM     11  N   LIG    1       -6.888  -0.412   1.206  0.00  0.00    -0.480 NA
BRANCH  10  15
ATOM     12  C   LIG    1       -1.980  -0.224   2.256  0.00  0.00    -0.050 A 
ATOM     13  C   LIG    1       -2.807   0.571   1.482  0.00  0.00    +0.000 A 
ATOM     14  C   LIG    1       -4.149   0.271   1.369  0.00  0.00    +0.080 A 
ATOM     15  C   LIG    1       -4.674  -0.832   2.049  0.00  0.00    -0.100 A 
ATOM     16  C   LIG    1       -3.833  -1.627   2.833  0.00  0.00    +0.050 A 
ATOM     17  C   LIG    1       -2.493  -1.317   2.932  0.00  0.00    +0.000 A 
BRANCH  12  19
ATOM     18  C   LIG    1        0.259  -0.617   1.264  0.00  0.00    +0.030 C 
ATOM     19  C   LIG    1       -0.514   0.107   2.369  0.00  0.00    +0.070 C 
ENDBRANCH  12  19
ENDBRANCH  10  15
ENDBRANCH   1  11
BRANCH   4  20
ATOM     20  N   LIG    1      -12.234  -1.619   0.792  0.00  0.00    -0.480 NA
ATOM     21  C   LIG    1      -12.659  -2.369  -0.187  0.00  0.00    +0.360 C 
BRANCH  21  22
ATOM     22  C   LIG    1      -14.070  -2.787  -0.234  0.00  0.00    -0.100 A 
ATOM     23  C   LIG    1      -14.956  -2.388   0.772  0.00  0.00    +0.090 A 
ATOM     24  C   LIG    1      -16.276  -2.781   0.718  0.00  0.00    +0.000 A 
ATOM     25  C   LIG    1      -16.724  -3.576  -0.323  0.00  0.00    -0.050 A 
ATOM     26  C   LIG    1      -15.852  -3.979  -1.319  0.00  0.00    +0.000 A 
ATOM     27  C   LIG    1      -14.530  -3.591  -1.282  0.00  0.00    +0.060 A 
BRANCH  25  28
ATOM     28  C   LIG    1      -18.168  -4.005  -0.371  0.00  0.00    +0.070 C 
ATOM     29  C   LIG    1      -18.331  -5.331   0.375  0.00  0.00    +0.030 C 
ENDBRANCH  25  28
ENDBRANCH  21  22
ENDBRANCH   4  20
TORSDOF 7
