REMARK  Name = ZINCtV00000L6kOc.0
REMARK                            x       y       z     vdW  Elec       q    Type
REMARK                         _______ _______ _______ _____ _____    ______ ____
ROOT
ATOM      1  O   LIG    1       -6.745   2.538   0.074  0.00  0.00    -0.450 OA
ATOM      2  C   LIG    1       -6.594   3.741   0.079  0.00  0.00    +0.530 C 
ATOM      3  N   LIG    1       -7.669   4.555   0.093  0.00  0.00    -0.630 N 
ATOM      4  H   LIG    1       -7.548   5.518   0.096  0.00  0.00    +0.420 HD
ENDROOT
BRANCH   3   5
ATOM      5  C   LIG    1       -8.949   4.015   0.101  0.00  0.00    +0.300 A 
ATOM      6  N   LIG    1       -9.228   2.750   0.091  0.00  0.00    -0.460 NA
ATOM      7  C   LIG    1      -10.507   2.402   0.102  0.00  0.00    +0.130 A 
ATOM      8  C   LIG    1      -11.371   3.455   0.122  0.00  0.00    -0.230 A 
ATOM      9  C   LIG    1      -12.870   3.294   0.153  0.00  0.00    +0.150 C 
ATOM     10  C   LIG    1      -13.267   2.028  -0.603  0.00  0.00    +0.090 C 
ATOM     11  C   LIG    1      -12.412   0.852  -0.217  0.00  0.00    -0.070 A 
ATOM     12  C   LIG    1      -12.965  -0.413  -0.160  0.00  0.00    +0.010 A 
ATOM     13  C   LIG    1      -12.175  -1.501   0.167  0.00  0.00    +0.010 A 
ATOM     14  C   LIG    1      -10.828  -1.340   0.435  0.00  0.00    +0.010 A 
ATOM     15  C   LIG    1      -10.263  -0.078   0.393  0.00  0.00    +0.050 A 
ATOM     16  C   LIG    1      -11.060   1.014   0.081  0.00  0.00    -0.020 A 
ATOM     17  S   LIG    1      -10.445   4.945   0.119  0.00  0.00    +0.100 S 
ENDBRANCH   3   5
BRANCH   2  18
ATOM     18  C   LIG    1       -5.206   4.327   0.070  0.00  0.00    +0.030 C 
BRANCH  18  19
ATOM     19  S   LIG    1       -3.984   2.986   0.053  0.00  0.00    +0.050 S 
BRANCH  19  20
ATOM     20  C   LIG    1       -2.448   3.849   0.044  0.00  0.00    -0.090 A 
ATOM     21  C   LIG    1       -2.425   5.228   0.051  0.00  0.00    +0.000 A 
ATOM     22  C   LIG    1       -1.217   5.919   0.043  0.00  0.00    +0.040 A 
ATOM     23  C   LIG    1       -0.027   5.256   0.029  0.00  0.00    +0.020 A 
ATOM     24  C   LIG    1       -0.007   3.850   0.022  0.00  0.00    -0.020 A 
ATOM     25  C   LIG    1        1.206   3.140   0.007  0.00  0.00    +0.040 A 
ATOM     26  C   LIG    1        1.190   1.779   0.000  0.00  0.00    +0.040 A 
ATOM     27  C   LIG    1       -0.013   1.076   0.008  0.00  0.00    +0.040 A 
ATOM     28  C   LIG    1       -1.208   1.732   0.017  0.00  0.00    -0.040 A 
ATOM     29 CL   LIG    1       -2.695   0.836   0.020  0.00  0.00    +0.010 Cl
ATOM     30  C   LIG    1       -1.230   3.135   0.030  0.00  0.00    -0.030 A 
ENDBRANCH  19  20
ENDBRANCH  18  19
ENDBRANCH   2  18
TORSDOF 4
