REMARK  Name = ZINCqH0000008ynh.0
REMARK                            x       y       z     vdW  Elec       q    Type
REMARK                         _______ _______ _______ _____ _____    ______ ____
ROOT
ATOM      1  N   LIG    1       -0.657   1.516  -1.328  0.00  0.00    -0.630 N 
ATOM      2  C   LIG    1       -1.260   0.564  -2.067  0.00  0.00    +0.710 C 
ATOM      3  N   LIG    1       -1.823   0.884  -3.249  0.00  0.00    -0.740 N 
ATOM      4  H   LIG    1       -1.795   1.800  -3.567  0.00  0.00    +0.400 HD
ATOM      5  O   LIG    1       -1.295  -0.584  -1.668  0.00  0.00    -0.580 OA
ATOM      6  C   LIG    1       -0.614   2.899  -1.808  0.00  0.00    +0.290 C 
ENDROOT
BRANCH   1   8
ATOM      7  C   LIG    1        1.419   1.615  -0.038  0.00  0.00    +0.040 C 
ATOM      8  C   LIG    1       -0.044   1.168  -0.043  0.00  0.00    +0.320 C 
BRANCH   8   9
ATOM      9  C   LIG    1       -0.785   1.861   1.071  0.00  0.00    -0.150 A 
ATOM     10  C   LIG    1       -0.124   2.223   2.234  0.00  0.00    +0.070 A 
ATOM     11  C   LIG    1       -0.845   2.865   3.230  0.00  0.00    -0.030 A 
ATOM     12  C   LIG    1       -2.191   3.108   3.037  0.00  0.00    +0.260 A 
ATOM     13  N   LIG    1       -2.789   2.745   1.919  0.00  0.00    -0.480 NA
ATOM     14  C   LIG    1       -2.134   2.139   0.948  0.00  0.00    +0.270 A 
ENDBRANCH   8   9
ENDBRANCH   1   8
BRANCH   3  15
ATOM     15  C   LIG    1       -2.478  -0.151  -4.053  0.00  0.00    +0.300 C 
ATOM     16  C   LIG    1       -1.434  -0.867  -4.911  0.00  0.00    +0.040 C 
BRANCH  15  17
ATOM     17  C   LIG    1       -3.512   0.486  -4.945  0.00  0.00    -0.100 A 
ATOM     18  C   LIG    1       -3.243   1.696  -5.558  0.00  0.00    +0.040 A 
ATOM     19  C   LIG    1       -4.187   2.280  -6.381  0.00  0.00    -0.010 A 
ATOM     20  C   LIG    1       -5.410   1.655  -6.584  0.00  0.00    +0.160 A 
ATOM     21  C   LIG    1       -5.679   0.442  -5.964  0.00  0.00    +0.030 A 
ATOM     22  C   LIG    1       -4.729  -0.139  -5.146  0.00  0.00    +0.060 A 
BRANCH  20  23
ATOM     23  N   LIG    1       -6.371   2.247  -7.415  0.00  0.00    -0.330 N 
ATOM     24  C   LIG    1       -6.241   3.421  -8.072  0.00  0.00    +0.230 A 
ATOM     25  C   LIG    1       -7.384   3.636  -8.764  0.00  0.00    -0.100 A 
ATOM     26  C   LIG    1       -8.246   2.562  -8.515  0.00  0.00    +0.250 A 
ATOM     27  N   LIG    1       -7.640   1.729  -7.707  0.00  0.00    -0.290 NA
ENDBRANCH  20  23
ENDBRANCH  15  17
ENDBRANCH   3  15
TORSDOF 5
