REMARK  Name = ZINCrD000006Vj5s.0
REMARK                            x       y       z     vdW  Elec       q    Type
REMARK                         _______ _______ _______ _____ _____    ______ ____
ROOT
ATOM      1  C   LIG    1        0.792   6.213   0.027  0.00  0.00    -0.120 A 
ATOM      2  C   LIG    1       -0.356   5.423  -0.072  0.00  0.00    +0.110 A 
ATOM      3  C   LIG    1       -0.247   4.050  -0.080  0.00  0.00    +0.030 A 
ATOM      4  C   LIG    1        1.004   3.450   0.011  0.00  0.00    +0.130 A 
ATOM      5  C   LIG    1        2.149   4.233   0.115  0.00  0.00    +0.040 A 
ATOM      6  C   LIG    1        2.048   5.606   0.118  0.00  0.00    +0.060 A 
ENDROOT
BRANCH   4   7
ATOM      7  N   LIG    1        1.112   2.057   0.003  0.00  0.00    -0.510 N 
ATOM      8  C   LIG    1        0.630   1.337   1.053  0.00  0.00    +0.580 A 
ATOM      9  N   LIG    1        0.692   0.043   1.118  0.00  0.00    -0.510 NA
ATOM     10  C   LIG    1        1.251  -0.694   0.126  0.00  0.00    +0.140 A 
ATOM     11  C   LIG    1        1.317  -2.087   0.196  0.00  0.00    +0.030 A 
ATOM     12  C   LIG    1        1.894  -2.795  -0.835  0.00  0.00    +0.070 A 
ATOM     13  C   LIG    1        2.411  -2.141  -1.945  0.00  0.00    +0.010 A 
ATOM     14  C   LIG    1        2.358  -0.767  -2.038  0.00  0.00    +0.100 A 
ATOM     15  C   LIG    1        1.778  -0.032  -1.006  0.00  0.00    -0.190 A 
ATOM     16  C   LIG    1        1.693   1.435  -1.050  0.00  0.00    +0.550 A 
ATOM     17  O   LIG    1        2.128   2.066  -1.995  0.00  0.00    -0.490 OA
ENDBRANCH   4   7
BRANCH   1  20
ATOM     18  N   LIG    1        1.788   8.445   0.131  0.00  0.00    -0.660 N 
ATOM     19  H   LIG    1        2.660   8.025   0.195  0.00  0.00    +0.420 HD
ATOM     20  C   LIG    1        0.679   7.685   0.036  0.00  0.00    +0.550 C 
ATOM     21  O   LIG    1       -0.414   8.211  -0.044  0.00  0.00    -0.460 OA
BRANCH  18  28
ATOM     22  C   LIG    1        4.185   9.964   0.337  0.00  0.00    +0.110 C 
ATOM     23  C   LIG    1        2.829  10.613   0.238  0.00  0.00    -0.170 A 
ATOM     24  C   LIG    1        2.708  11.991   0.245  0.00  0.00    +0.090 A 
ATOM     25  C   LIG    1        1.439  12.546   0.152  0.00  0.00    -0.060 A 
ATOM     26  C   LIG    1        0.342  11.712   0.057  0.00  0.00    +0.290 A 
ATOM     27  N   LIG    1        0.488  10.401   0.047  0.00  0.00    -0.470 NA
ATOM     28  C   LIG    1        1.681   9.834   0.139  0.00  0.00    +0.360 A 
ENDBRANCH  18  28
ENDBRANCH   1  20
TORSDOF 3
