REMARK  Name = ZINCvU0000000Efb.0
REMARK                            x       y       z     vdW  Elec       q    Type
REMARK                         _______ _______ _______ _____ _____    ______ ____
ROOT
ATOM      1  C   LIG    1       -1.230   1.769   0.017  0.00  0.00    -0.160 A 
ATOM      2  C   LIG    1       -0.013   1.076   0.008  0.00  0.00    +0.200 A 
ATOM      3  C   LIG    1        1.159   1.785   0.001  0.00  0.00    -0.710 A 
ATOM      4  C   LIG    1        1.159   3.174   0.019  0.00  0.00    +0.240 A 
ATOM      5  N   LIG    1        2.378   3.885   0.071  0.00  0.00    -0.570 N 
ATOM      6  C   LIG    1        2.290   5.119   0.823  0.00  0.00    +0.290 C 
ATOM      7  C   LIG    1        3.461   5.683   1.500  0.00  0.00    +0.020 C 
ATOM      8  C   LIG    1        4.820   5.759   0.909  0.00  0.00    +0.020 C 
ATOM      9  C   LIG    1        5.018   5.541  -0.563  0.00  0.00    +0.060 C 
ATOM     10  C   LIG    1        4.474   4.312  -1.140  0.00  0.00    +0.110 C 
ATOM     11  C   LIG    1        3.484   3.410  -0.538  0.00  0.00    +0.560 C 
ATOM     12  N   LIG    1        3.764   2.137  -0.631  0.00  0.00    -0.940 NA
ATOM     13  C   LIG    1       -0.046   3.867   0.013  0.00  0.00    +0.010 A 
ATOM     14  S   LIG    1        2.729   0.980  -0.059  0.00  0.00    +2.620 S 
ATOM     15  O   LIG    1        2.639  -0.024  -1.061  0.00  0.00    -0.930 OA
ATOM     16  O   LIG    1        3.108   0.717   1.285  0.00  0.00    -0.950 OA
ATOM     17  C   LIG    1       -1.235   3.168   0.018  0.00  0.00    +0.080 A 
ATOM     18 CL   LIG    1       -2.743   4.027   0.017  0.00  0.00    +0.000 Cl
ENDROOT
BRANCH   1  21
ATOM     19  N   LIG    1       -2.498  -0.323   0.037  0.00  0.00    -0.720 N 
ATOM     20  H   LIG    1       -1.655  -0.804   0.030  0.00  0.00    +0.400 HD
ATOM     21  C   LIG    1       -2.504   1.025   0.032  0.00  0.00    +0.560 C 
ATOM     22  O   LIG    1       -3.560   1.628   0.041  0.00  0.00    -0.500 OA
BRANCH  19  23
ATOM     23  C   LIG    1       -3.763  -1.061   0.052  0.00  0.00    +0.300 C 
BRANCH  23  24
ATOM     24  C   LIG    1       -3.553  -2.429  -0.546  0.00  0.00    -0.090 A 
ATOM     25  C   LIG    1       -2.399  -3.135  -0.267  0.00  0.00    +0.030 A 
ATOM     26  C   LIG    1       -2.208  -4.391  -0.811  0.00  0.00    +0.040 A 
ATOM     27  C   LIG    1       -3.169  -4.937  -1.643  0.00  0.00    -0.030 A 
ATOM     28  C   LIG    1       -4.322  -4.227  -1.927  0.00  0.00    +0.040 A 
ATOM     29 CL   LIG    1       -2.927  -6.512  -2.333  0.00  0.00    -0.060 Cl
ATOM     30  C   LIG    1       -4.513  -2.973  -1.379  0.00  0.00    +0.050 A 
ENDBRANCH  23  24
BRANCH  23  32
ATOM     31  C   LIG    1       -4.584   0.177   2.060  0.00  0.00    +0.020 C 
ATOM     32  C   LIG    1       -4.253  -1.205   1.494  0.00  0.00    +0.020 C 
ENDBRANCH  23  32
ENDBRANCH  19  23
ENDBRANCH   1  21
TORSDOF 4
