REMARK  Name = ZINCrg000000scnJ.0
REMARK                            x       y       z     vdW  Elec       q    Type
REMARK                         _______ _______ _______ _____ _____    ______ ____
ROOT
ATOM      1  C   LIG    1       -1.159   3.019  -1.741  0.00  0.00    +0.300 C 
ENDROOT
BRANCH   1   2
ATOM      2  N   LIG    1       -0.746   1.657  -1.394  0.00  0.00    -1.120 NA
ATOM      3  H   LIG    1       -0.992   0.915  -1.968  0.00  0.00    +0.420 HD
BRANCH   2   4
ATOM      4  S   LIG    1        0.140   1.385  -0.022  0.00  0.00    +2.700 S 
ATOM      5  O   LIG    1        1.222   2.305  -0.054  0.00  0.00    -0.960 OA
ATOM      6  O   LIG    1        0.319  -0.022   0.067  0.00  0.00    -0.950 OA
BRANCH   4  11
ATOM      7  C   LIG    1       -3.304   2.968   4.672  0.00  0.00    +0.090 C 
ATOM      8  C   LIG    1       -2.444   2.572   3.499  0.00  0.00    -0.020 A 
ATOM      9  C   LIG    1       -1.280   3.267   3.231  0.00  0.00    -0.020 A 
ATOM     10  C   LIG    1       -0.490   2.904   2.156  0.00  0.00    +0.130 A 
ATOM     11  C   LIG    1       -0.866   1.847   1.349  0.00  0.00    -0.690 A 
ATOM     12  C   LIG    1       -2.033   1.155   1.614  0.00  0.00    +0.020 A 
ATOM     13  C   LIG    1       -2.446   0.007   0.730  0.00  0.00    +0.100 C 
ATOM     14  C   LIG    1       -2.820   1.515   2.692  0.00  0.00    -0.020 A 
ENDBRANCH   4  11
ENDBRANCH   2   4
ENDBRANCH   1   2
BRANCH   1  15
ATOM     15  C   LIG    1       -1.585   3.065  -3.210  0.00  0.00    +0.060 C 
BRANCH  15  16
ATOM     16  C   LIG    1       -2.010   4.466  -3.567  0.00  0.00    +0.520 C 
ATOM     17  N   LIG    1       -2.428   4.745  -4.817  0.00  0.00    -0.610 N 
ATOM     18  C   LIG    1       -2.469   3.695  -5.845  0.00  0.00    +0.270 C 
ATOM     19  C   LIG    1       -3.894   3.635  -6.420  0.00  0.00    +0.270 C 
ATOM     20  N   LIG    1       -4.312   4.996  -6.782  0.00  0.00    -0.610 N 
ATOM     21  C   LIG    1       -4.265   6.048  -5.756  0.00  0.00    +0.280 C 
ATOM     22  C   LIG    1       -4.730   5.276  -8.032  0.00  0.00    +0.550 C 
ATOM     23  O   LIG    1       -5.072   6.404  -8.319  0.00  0.00    -0.530 OA
ATOM     24  C   LIG    1       -2.845   6.107  -5.180  0.00  0.00    +0.280 C 
ATOM     25  O   LIG    1       -1.975   5.342  -2.729  0.00  0.00    -0.530 OA
BRANCH  22  26
ATOM     26  C   LIG    1       -4.772   4.188  -9.074  0.00  0.00    -0.070 C 
ATOM     27  C   LIG    1       -3.774   4.277 -10.230  0.00  0.00    +0.060 C 
ATOM     28  C   LIG    1       -5.256   4.568 -10.474  0.00  0.00    +0.070 C 
ENDBRANCH  22  26
ENDBRANCH  15  16
ENDBRANCH   1  15
TORSDOF 6
