REMARK  Name = ZINCkj00000x0nx2.1
REMARK                            x       y       z     vdW  Elec       q    Type
REMARK                         _______ _______ _______ _____ _____    ______ ____
ROOT
ATOM      1  C   LIG    1       -1.737   1.058   2.063  0.00  0.00    +0.500 C 
ATOM      2  N   LIG    1       -1.228   1.849   1.098  0.00  0.00    -0.580 N 
ATOM      3  C   LIG    1       -0.522   1.267  -0.052  0.00  0.00    +0.280 C 
ATOM      4  C   LIG    1       -1.157   1.795  -1.342  0.00  0.00    +0.020 C 
ATOM      5  C   LIG    1       -1.161   3.325  -1.316  0.00  0.00    +0.030 C 
ATOM      6  C   LIG    1       -1.997   3.814  -0.131  0.00  0.00    +0.030 C 
ATOM      7  C   LIG    1       -1.372   3.309   1.173  0.00  0.00    +0.230 C 
ATOM      8  O   LIG    1       -2.396   1.542   2.959  0.00  0.00    -0.530 OA
ENDROOT
BRANCH   1   9
ATOM      9  C   LIG    1       -1.488  -0.428   2.029  0.00  0.00    +0.290 C 
BRANCH   9  11
ATOM     10  C   LIG    1       -1.237  -0.576   4.410  0.00  0.00    +0.330 C 
ATOM     11  N   LIG    1       -2.015  -1.042   3.255  0.00  0.00    -0.340 N 
ATOM     12  H   LIG    1       -2.982  -0.779   3.373  0.00  0.00    +0.430 HD
BRANCH  11  13
ATOM     13  C   LIG    1       -1.914  -2.504   3.154  0.00  0.00    +0.090 C 
ATOM     14  C   LIG    1       -3.218  -3.296   3.037  0.00  0.00    +0.110 C 
ATOM     15  C   LIG    1       -2.415  -3.330   4.339  0.00  0.00    +0.110 C 
ENDBRANCH  11  13
ENDBRANCH   9  11
ENDBRANCH   1   9
BRANCH   7  16
ATOM     16  C   LIG    1       -2.276   3.676   2.351  0.00  0.00    +0.350 C 
BRANCH  16  17
ATOM     17  N   LIG    1       -2.414   5.133   2.427  0.00  0.00    -0.380 N 
ATOM     18  C   LIG    1       -3.574   5.821   2.434  0.00  0.00    +0.220 A 
ATOM     19  C   LIG    1       -3.272   7.138   2.517  0.00  0.00    -0.120 A 
ATOM     20  C   LIG    1       -1.879   7.258   2.551  0.00  0.00    +0.240 A 
ATOM     21  N   LIG    1       -1.363   6.057   2.497  0.00  0.00    -0.300 NA
ENDBRANCH  16  17
ENDBRANCH   7  16
TORSDOF 5
