REMARK  Name = ZINCkj00000x0nx2.0
REMARK                            x       y       z     vdW  Elec       q    Type
REMARK                         _______ _______ _______ _____ _____    ______ ____
ROOT
ATOM      1  C   LIG    1       -0.751   3.437   1.234  0.00  0.00    +0.500 C 
ATOM      2  N   LIG    1       -1.279   4.101   2.281  0.00  0.00    -0.580 N 
ATOM      3  C   LIG    1       -1.791   3.371   3.450  0.00  0.00    +0.280 C 
ATOM      4  C   LIG    1       -1.122   3.928   4.710  0.00  0.00    +0.020 C 
ATOM      5  C   LIG    1       -1.337   5.441   4.772  0.00  0.00    +0.020 C 
ATOM      6  C   LIG    1       -0.690   6.100   3.551  0.00  0.00    +0.030 C 
ATOM      7  C   LIG    1       -1.349   5.569   2.279  0.00  0.00    +0.230 C 
ATOM      8  O   LIG    1       -0.420   4.043   0.237  0.00  0.00    -0.530 OA
ENDROOT
BRANCH   1   9
ATOM      9  C   LIG    1       -0.571   1.942   1.303  0.00  0.00    +0.290 C 
BRANCH   9  11
ATOM     10  C   LIG    1        1.374   2.010  -0.100  0.00  0.00    +0.340 C 
ATOM     11  N   LIG    1        0.019   1.462   0.046  0.00  0.00    -0.340 N 
ATOM     12  H   LIG    1       -0.551   1.763  -0.730  0.00  0.00    +0.430 HD
BRANCH  11  13
ATOM     13  C   LIG    1        0.084  -0.005   0.066  0.00  0.00    +0.090 C 
ATOM     14  C   LIG    1       -0.500  -0.754  -1.134  0.00  0.00    +0.110 C 
ATOM     15  C   LIG    1       -1.234  -0.769   0.209  0.00  0.00    +0.100 C 
ENDBRANCH  11  13
ENDBRANCH   9  11
ENDBRANCH   1   9
BRANCH   7  16
ATOM     16  C   LIG    1       -0.612   6.115   1.055  0.00  0.00    +0.350 C 
BRANCH  16  17
ATOM     17  N   LIG    1       -0.645   7.580   1.079  0.00  0.00    -0.380 N 
ATOM     18  C   LIG    1        0.426   8.399   1.040  0.00  0.00    +0.220 A 
ATOM     19  C   LIG    1       -0.028   9.673   1.077  0.00  0.00    -0.120 A 
ATOM     20  C   LIG    1       -1.424   9.631   1.150  0.00  0.00    +0.240 A 
ATOM     21  N   LIG    1       -1.795   8.377   1.151  0.00  0.00    -0.300 NA
ENDBRANCH  16  17
ENDBRANCH   7  16
TORSDOF 5
