REMARK  Name = ZINCrH000004sFBC.0
REMARK                            x       y       z     vdW  Elec       q    Type
REMARK                         _______ _______ _______ _____ _____    ______ ____
ROOT
ATOM      1  N   LIG    1       -4.765   5.937   2.212  0.00  0.00    -0.640 N 
ATOM      2  H   LIG    1       -4.186   6.286   2.908  0.00  0.00    +0.410 HD
ATOM      3  C   LIG    1       -4.284   5.053   1.316  0.00  0.00    +0.510 C 
ATOM      4  O   LIG    1       -5.033   4.534   0.515  0.00  0.00    -0.500 OA
ENDROOT
BRANCH   1  11
ATOM      5  C   LIG    1       -6.402   6.160  -0.428  0.00  0.00    +0.160 C 
ATOM      6  C   LIG    1       -6.875   6.467   0.970  0.00  0.00    +0.100 A 
ATOM      7  N   LIG    1       -8.071   6.881   1.301  0.00  0.00    -0.280 NA
ATOM      8  N   LIG    1       -8.110   7.057   2.690  0.00  0.00    -0.320 N 
ATOM      9  C   LIG    1       -6.887   6.726   3.187  0.00  0.00    +0.070 A 
ATOM     10  C   LIG    1       -6.473   6.766   4.635  0.00  0.00    +0.140 C 
ATOM     11  C   LIG    1       -6.107   6.355   2.139  0.00  0.00    +0.010 A 
BRANCH   8  12
ATOM     12  C   LIG    1       -9.213   7.495   3.436  0.00  0.00    +0.160 A 
ATOM     13  C   LIG    1      -10.483   7.017   3.145  0.00  0.00    +0.020 A 
ATOM     14  C   LIG    1      -11.567   7.447   3.885  0.00  0.00    +0.030 A 
ATOM     15  C   LIG    1      -11.389   8.361   4.908  0.00  0.00    +0.010 A 
ATOM     16  C   LIG    1      -10.125   8.842   5.197  0.00  0.00    +0.030 A 
ATOM     17  C   LIG    1       -9.037   8.412   4.463  0.00  0.00    +0.000 A 
ENDBRANCH   8  12
ENDBRANCH   1  11
BRANCH   3  18
ATOM     18  C   LIG    1       -2.817   4.709   1.309  0.00  0.00    +0.090 C 
BRANCH  18  19
ATOM     19  C   LIG    1       -2.538   3.690   0.202  0.00  0.00    +0.270 C 
ATOM     20  O   LIG    1       -3.159   2.417   0.528  0.00  0.00    -0.300 OA
ATOM     21  C   LIG    1       -2.205   1.476   0.623  0.00  0.00    +0.520 C 
ATOM     22  C   LIG    1       -0.880   2.065   0.358  0.00  0.00    -0.190 A 
ATOM     23  C   LIG    1        0.407   1.526   0.341  0.00  0.00    +0.110 A 
ATOM     24  C   LIG    1        1.488   2.337   0.062  0.00  0.00    +0.020 A 
ATOM     25  C   LIG    1        1.302   3.684  -0.195  0.00  0.00    +0.060 A 
ATOM     26  C   LIG    1        0.028   4.228  -0.175  0.00  0.00    +0.040 A 
ATOM     27  O   LIG    1       -2.405   0.306   0.884  0.00  0.00    -0.450 OA
ATOM     28  C   LIG    1       -1.056   3.428   0.102  0.00  0.00    -0.100 A 
ENDBRANCH  18  19
ENDBRANCH   3  18
TORSDOF 4
