REMARK  Name = ZINCkj00000haQvI.0
REMARK                            x       y       z     vdW  Elec       q    Type
REMARK                         _______ _______ _______ _____ _____    ______ ____
ROOT
ATOM      1  C   LIG    1       -2.494   0.474   3.325  0.00  0.00    +0.730 C 
ENDROOT
BRANCH   1   2
ATOM      2  N   LIG    1       -1.770  -0.593   3.135  0.00  0.00    -0.660 NA
ATOM      3  H   LIG    1       -1.449  -0.809   2.246  0.00  0.00    +0.440 HD
BRANCH   2   5
ATOM      4  C   LIG    1       -0.517  -2.588   3.790  0.00  0.00    +0.060 C 
ATOM      5  C   LIG    1       -1.441  -1.466   4.265  0.00  0.00    +0.270 C 
ENDBRANCH   2   5
ENDBRANCH   1   2
BRANCH   1   6
ATOM      6  N   LIG    1       -2.676   1.373   2.301  0.00  0.00    -0.690 NA
ATOM      7  H   LIG    1       -3.215   2.167   2.442  0.00  0.00    +0.430 HD
BRANCH   6   8
ATOM      8  C   LIG    1       -2.056   1.131   0.995  0.00  0.00    +0.220 C 
ATOM      9  C   LIG    1       -0.620   1.659   1.007  0.00  0.00    +0.010 C 
ATOM     10  C   LIG    1        0.027   1.406  -0.356  0.00  0.00    +0.030 C 
ATOM     11  C   LIG    1       -0.773   2.128  -1.442  0.00  0.00    +0.020 C 
ATOM     12  C   LIG    1       -2.209   1.601  -1.454  0.00  0.00    +0.030 C 
ATOM     13  C   LIG    1       -2.856   1.853  -0.091  0.00  0.00    +0.030 C 
ENDBRANCH   6   8
ENDBRANCH   1   6
BRANCH   1  14
ATOM     14  N   LIG    1       -3.075   0.701   4.550  0.00  0.00    -0.700 NA
ATOM     15  H   LIG    1       -3.695   1.439   4.663  0.00  0.00    +0.430 HD
BRANCH  14  16
ATOM     16  C   LIG    1       -2.759  -0.171   5.684  0.00  0.00    +0.300 C 
BRANCH  16  17
ATOM     17  C   LIG    1       -3.463   0.349   6.939  0.00  0.00    +0.010 C 
ATOM     18  C   LIG    1       -3.029  -0.484   8.158  0.00  0.00    +0.090 C 
ATOM     19  C   LIG    1       -4.009  -0.133   9.307  0.00  0.00    -0.300 C 
ATOM     20  S   LIG    1       -5.630  -0.101   8.452  0.00  0.00    +2.400 S 
ATOM     21  O   LIG    1       -6.375   1.024   8.896  0.00  0.00    -0.930 OA
ATOM     22  O   LIG    1       -6.211  -1.397   8.496  0.00  0.00    -0.920 OA
ATOM     23  C   LIG    1       -4.989   0.215   6.770  0.00  0.00    -0.340 C 
ENDBRANCH  16  17
ENDBRANCH  14  16
ENDBRANCH   1  14
TORSDOF 7
