REMARK  Name = ZINCAx0000000aKX.0
REMARK                            x       y       z     vdW  Elec       q    Type
REMARK                         _______ _______ _______ _____ _____    ______ ____
ROOT
ATOM      1  N   LIG    1       -2.394   1.153   0.020  0.00  0.00    -0.520 N 
ATOM      2  H   LIG    1       -2.381   0.183   0.014  0.00  0.00    +0.430 HD
ATOM      3  C   LIG    1       -3.571   1.811   0.029  0.00  0.00    +0.570 C 
ATOM      4  O   LIG    1       -3.587   3.026   0.035  0.00  0.00    -0.510 OA
ENDROOT
BRANCH   3   5
ATOM      5  C   LIG    1       -4.838   1.056   0.031  0.00  0.00    -0.170 A 
ATOM      6  C   LIG    1       -4.824  -0.341   0.017  0.00  0.00    +0.080 A 
ATOM      7  C   LIG    1       -6.011  -1.040   0.025  0.00  0.00    -0.020 A 
ATOM      8  C   LIG    1       -7.220  -0.365   0.034  0.00  0.00    +0.090 A 
ATOM      9  C   LIG    1       -7.249   1.016   0.042  0.00  0.00    -0.080 A 
ATOM     10  C   LIG    1       -6.064   1.736   0.040  0.00  0.00    +0.200 A 
BRANCH  10  11
ATOM     11  O   LIG    1       -6.090   3.092   0.047  0.00  0.00    -0.280 OA
BRANCH  11  12
ATOM     12  C   LIG    1       -7.376   3.716   0.057  0.00  0.00    +0.320 C 
BRANCH  12  13
ATOM     13  C   LIG    1       -7.208   5.213   0.064  0.00  0.00    +0.050 A 
ATOM     14  C   LIG    1       -6.029   5.874   0.067  0.00  0.00    +0.140 A 
ATOM     15  N   LIG    1       -6.316   7.212   0.070  0.00  0.00    -0.360 N 
ATOM     16  C   LIG    1       -5.527   8.325   0.073  0.00  0.00    +0.220 A 
ATOM     17  C   LIG    1       -6.077   9.558   0.083  0.00  0.00    +0.010 A 
ATOM     18  C   LIG    1       -7.473   9.710   0.091  0.00  0.00    +0.040 A 
ATOM     19  C   LIG    1       -8.271   8.609   0.088  0.00  0.00    +0.070 A 
ATOM     20  C   LIG    1       -7.682   7.329   0.078  0.00  0.00    +0.220 A 
ATOM     21  N   LIG    1       -8.198   6.108   0.073  0.00  0.00    -0.480 NA
ENDBRANCH  12  13
ENDBRANCH  11  12
ENDBRANCH  10  11
ENDBRANCH   3   5
BRANCH   1  23
ATOM     22  C   LIG    1       -0.014   1.212   0.009  0.00  0.00    +0.600 C 
ATOM     23  N   LIG    1       -1.191   1.870   0.018  0.00  0.00    -0.500 N 
ATOM     24  H   LIG    1       -1.204   2.840   0.023  0.00  0.00    +0.440 HD
ATOM     25  O   LIG    1        0.002  -0.004   0.002  0.00  0.00    -0.520 OA
BRANCH  22  28
ATOM     26  N   LIG    1        2.298   4.005   0.002  0.00  0.00    -0.360 N 
ATOM     27  N   LIG    1        1.245   3.278   0.008  0.00  0.00    -0.190 NA
ATOM     28  C   LIG    1        1.254   1.967   0.001  0.00  0.00    +0.060 A 
ATOM     29  C   LIG    1        2.543   1.258  -0.009  0.00  0.00    -0.030 A 
ATOM     30  C   LIG    1        2.640  -0.129  -0.023  0.00  0.00    +0.070 A 
ATOM     31  C   LIG    1        3.885  -0.721  -0.037  0.00  0.00    +0.060 A 
ATOM     32  C   LIG    1        5.039   0.051  -0.044  0.00  0.00    +0.030 A 
ATOM     33  C   LIG    1        4.966   1.428  -0.037  0.00  0.00    +0.090 A 
ATOM     34  C   LIG    1        3.719   2.044  -0.022  0.00  0.00    -0.140 A 
ATOM     35  C   LIG    1        3.550   3.504  -0.013  0.00  0.00    +0.520 A 
ATOM     36  O   LIG    1        4.517   4.243  -0.018  0.00  0.00    -0.490 OA
BRANCH  26  38
ATOM     37  C   LIG    1        2.064   5.976  -1.428  0.00  0.00    +0.040 C 
ATOM     38  C   LIG    1        2.134   5.461   0.011  0.00  0.00    +0.320 C 
ENDBRANCH  26  38
ENDBRANCH  22  28
ENDBRANCH   1  23
TORSDOF 7
