REMARK  Name = ZINCkj00000y7I7f.0
REMARK                            x       y       z     vdW  Elec       q    Type
REMARK                         _______ _______ _______ _____ _____    ______ ____
ROOT
ATOM      1  C   LIG    1       -2.706  -0.160   2.278  0.00  0.00    +0.280 C 
ATOM      2  N   LIG    1       -3.104   0.909   1.358  0.00  0.00    -0.600 N 
ATOM      3  C   LIG    1       -4.037   1.807   1.731  0.00  0.00    +0.500 C 
ATOM      4  O   LIG    1       -4.454   2.616   0.930  0.00  0.00    -0.500 OA
ENDROOT
BRANCH   3   5
ATOM      5  C   LIG    1       -4.562   1.805   3.144  0.00  0.00    +0.070 C 
BRANCH   5   6
ATOM      6  C   LIG    1       -5.603   2.916   3.303  0.00  0.00    +0.310 C 
BRANCH   6   7
ATOM      7  N   LIG    1       -6.113   2.914   4.676  0.00  0.00    -0.690 NA
ATOM      8  H   LIG    1       -5.779   2.266   5.316  0.00  0.00    +0.430 HD
BRANCH   7   9
ATOM      9  C   LIG    1       -7.060   3.825   5.054  0.00  0.00    +0.720 C 
ATOM     10  N   LIG    1       -7.548   4.735   4.227  0.00  0.00    -0.670 NA
ATOM     11  C   LIG    1       -8.544   5.553   4.937  0.00  0.00    +0.320 C 
ATOM     12  C   LIG    1       -8.548   4.957   6.360  0.00  0.00    +0.320 C 
ATOM     13  H   LIG    1       -7.291   4.844   3.298  0.00  0.00    +0.450 HD
ATOM     14  N   LIG    1       -7.558   3.872   6.279  0.00  0.00    -0.680 NA
ATOM     15  H   LIG    1       -7.309   3.283   7.009  0.00  0.00    +0.450 HD
ENDBRANCH   7   9
ENDBRANCH   6   7
ENDBRANCH   5   6
ENDBRANCH   3   5
BRANCH   2  16
ATOM     16  C   LIG    1       -2.487   1.001   0.033  0.00  0.00    +0.350 C 
BRANCH  16  17
ATOM     17  C   LIG    1       -1.165   1.717   0.142  0.00  0.00    -0.090 A 
ATOM     18  C   LIG    1        0.007   0.992   0.239  0.00  0.00    +0.030 A 
ATOM     19  C   LIG    1        1.220   1.649   0.334  0.00  0.00    +0.030 A 
ATOM     20  C   LIG    1        1.260   3.031   0.338  0.00  0.00    +0.020 A 
ATOM     21  C   LIG    1        0.087   3.756   0.247  0.00  0.00    +0.030 A 
ATOM     22  C   LIG    1       -1.126   3.100   0.152  0.00  0.00    -0.090 A 
ATOM     23 BR   LIG    1       -2.731   4.092   0.028  0.00  0.00    -0.010 Br
ENDBRANCH  16  17
ENDBRANCH   2  16
TORSDOF 6
