REMARK  Name = ZINCpk00000eb7aD.0
REMARK                            x       y       z     vdW  Elec       q    Type
REMARK                         _______ _______ _______ _____ _____    ______ ____
ROOT
ATOM      1  C   LIG    1       -2.380   3.588   7.077  0.00  0.00    +0.520 C 
ATOM      2  N   LIG    1       -1.671   3.897   8.181  0.00  0.00    -0.730 N 
ATOM      3  H   LIG    1       -0.704   3.829   8.171  0.00  0.00    +0.410 HD
ATOM      4  O   LIG    1       -3.590   3.673   7.089  0.00  0.00    -0.540 OA
ENDROOT
BRANCH   1   5
ATOM      5  C   LIG    1       -1.669   3.139   5.826  0.00  0.00    +0.060 C 
BRANCH   5   6
ATOM      6  C   LIG    1       -2.697   2.854   4.729  0.00  0.00    +0.130 C 
BRANCH   6  11
ATOM      7  C   LIG    1       -0.013   1.086   0.008  0.00  0.00    +0.190 C 
ATOM      8  C   LIG    1       -0.718   1.572   1.248  0.00  0.00    +0.400 A 
ATOM      9  N   LIG    1       -1.189   0.699   2.098  0.00  0.00    -0.530 NA
ATOM     10  C   LIG    1       -1.821   1.079   3.211  0.00  0.00    +0.190 A 
ATOM     11  C   LIG    1       -1.986   2.405   3.479  0.00  0.00    -0.270 A 
ATOM     12  C   LIG    1       -1.478   3.347   2.561  0.00  0.00    +0.530 A 
ATOM     13  O   LIG    1       -1.603   4.544   2.763  0.00  0.00    -0.530 OA
ATOM     14  C   LIG    1       -2.352   0.044   4.169  0.00  0.00    +0.140 C 
ATOM     15  N   LIG    1       -0.844   2.897   1.457  0.00  0.00    -0.630 N 
ATOM     16  H   LIG    1       -0.483   3.527   0.814  0.00  0.00    +0.420 HD
ENDBRANCH   6  11
ENDBRANCH   5   6
ENDBRANCH   1   5
BRANCH   2  17
ATOM     17  C   LIG    1       -2.362   4.334   9.396  0.00  0.00    +0.240 C 
BRANCH  17  18
ATOM     18  C   LIG    1       -1.334   4.618  10.493  0.00  0.00    +0.260 C 
BRANCH  18  19
ATOM     19  C   LIG    1       -2.049   4.949  11.778  0.00  0.00    -0.100 A 
ATOM     20  C   LIG    1       -2.192   3.984  12.757  0.00  0.00    +0.060 A 
ATOM     21  C   LIG    1       -2.847   4.284  13.936  0.00  0.00    +0.030 A 
ATOM     22  C   LIG    1       -3.361   5.553  14.138  0.00  0.00    +0.070 A 
ATOM     23  C   LIG    1       -3.218   6.522  13.156  0.00  0.00    +0.070 A 
ATOM     24  F   LIG    1       -3.718   7.762  13.351  0.00  0.00    -0.120 F 
ATOM     25  F   LIG    1       -4.001   5.848  15.291  0.00  0.00    -0.120 F 
ATOM     26  C   LIG    1       -2.556   6.219  11.979  0.00  0.00    +0.030 A 
ENDBRANCH  18  19
BRANCH  18  27
ATOM     27  O   LIG    1       -0.517   5.724  10.105  0.00  0.00    -0.550 OA
ATOM     28  H   LIG    1       -1.009   6.543   9.955  0.00  0.00    +0.380 HD
ENDBRANCH  18  27
ENDBRANCH  17  18
ENDBRANCH   2  17
TORSDOF 7
