REMARK  Name = ZINCrg00000BCfIm.0
REMARK                            x       y       z     vdW  Elec       q    Type
REMARK                         _______ _______ _______ _____ _____    ______ ____
ROOT
ATOM      1  C   LIG    1       -1.557  -3.386   0.144  0.00  0.00    +0.040 C 
ENDROOT
BRANCH   1   6
ATOM      2  C   LIG    1       -0.016   1.344   0.009  0.00  0.00    +0.520 C 
ATOM      3  N   LIG    1        0.002  -0.004   0.002  0.00  0.00    -0.620 N 
ATOM      4  C   LIG    1        1.208  -0.845  -0.013  0.00  0.00    +0.250 C 
ATOM      5  C   LIG    1        0.742  -2.316   0.011  0.00  0.00    +0.040 C 
ATOM      6  C   LIG    1       -0.686  -2.217   0.610  0.00  0.00    -0.010 C 
ATOM      7  C   LIG    1       -1.184  -0.879   0.015  0.00  0.00    +0.260 C 
ATOM      8  O   LIG    1       -1.075   1.936   0.018  0.00  0.00    -0.510 OA
BRANCH   2  13
ATOM      9  O   LIG    1        1.330   5.521   0.590  0.00  0.00    -0.510 OA
ATOM     10  C   LIG    1        1.415   4.310   0.632  0.00  0.00    +0.650 C 
ATOM     11  N   LIG    1        1.043   3.515  -0.382  0.00  0.00    -0.710 N 
ATOM     12  H   LIG    1        0.678   3.815  -1.229  0.00  0.00    +0.440 HD
ATOM     13  C   LIG    1        1.278   2.115   0.001  0.00  0.00    +0.210 C 
ATOM     14  C   LIG    1        1.859   2.212   1.425  0.00  0.00    +0.290 C 
ATOM     15  O   LIG    1        1.887   3.648   1.693  0.00  0.00    -0.320 OA
ENDBRANCH   2  13
ENDBRANCH   1   6
BRANCH   1  16
ATOM     16  C   LIG    1       -1.015  -4.691   0.730  0.00  0.00    +0.260 C 
BRANCH  16  17
ATOM     17  N   LIG    1       -1.849  -5.810   0.285  0.00  0.00    -0.730 N 
ATOM     18  H   LIG    1       -2.610  -5.647  -0.294  0.00  0.00    +0.400 HD
ATOM     19  C   LIG    1       -1.560  -7.066   0.679  0.00  0.00    +0.590 C 
ATOM     20  O   LIG    1       -0.606  -7.270   1.405  0.00  0.00    -0.530 OA
BRANCH  19  21
ATOM     21  C   LIG    1       -2.400  -8.192   0.230  0.00  0.00    -0.170 A 
ATOM     22  C   LIG    1       -3.511  -8.111  -0.585  0.00  0.00    +0.160 A 
ATOM     23  N   LIG    1       -4.005  -9.354  -0.771  0.00  0.00    -0.340 N 
ATOM     24  C   LIG    1       -5.086  -9.802  -1.493  0.00  0.00    +0.190 A 
ATOM     25  C   LIG    1       -5.395 -11.111  -1.528  0.00  0.00    +0.020 A 
ATOM     26  C   LIG    1       -4.617 -12.050  -0.824  0.00  0.00    +0.010 A 
ATOM     27  C   LIG    1       -3.545 -11.631  -0.104  0.00  0.00    +0.080 A 
ATOM     28  C   LIG    1       -3.227 -10.254  -0.072  0.00  0.00    +0.030 A 
ATOM     29  C   LIG    1       -2.220  -9.553   0.559  0.00  0.00    +0.030 A 
ENDBRANCH  19  21
ENDBRANCH  16  17
ENDBRANCH   1  16
TORSDOF 5
