REMARK  Name = ZINCpk00000eb4zC.0
REMARK                            x       y       z     vdW  Elec       q    Type
REMARK                         _______ _______ _______ _____ _____    ______ ____
ROOT
ATOM      1  C   LIG    1        0.496  -3.153  -0.019  0.00  0.00    +0.610 C 
ATOM      2  N   LIG    1        0.929  -4.424  -0.131  0.00  0.00    -0.620 N 
ATOM      3  C   LIG    1        2.367  -4.732  -0.155  0.00  0.00    +0.300 C 
ATOM      4  C   LIG    1        2.643  -5.824   0.891  0.00  0.00    +0.200 C 
ATOM      5  N   LIG    1        1.759  -6.970   0.640  0.00  0.00    -0.460 N 
ATOM      6  C   LIG    1        0.347  -6.599   0.803  0.00  0.00    +0.220 C 
ATOM      7  C   LIG    1       -0.023  -5.540  -0.240  0.00  0.00    +0.310 C 
ATOM      8  O   LIG    1       -0.694  -2.923   0.097  0.00  0.00    -0.520 OA
ENDROOT
BRANCH   1  15
ATOM      9  C   LIG    1        3.904   1.912   0.655  0.00  0.00    +0.170 C 
ATOM     10  C   LIG    1        2.709   1.070   1.021  0.00  0.00    +0.200 A 
ATOM     11  C   LIG    1        1.831   1.496   1.964  0.00  0.00    -0.060 A 
ATOM     12  C   LIG    1        0.728   0.697   2.287  0.00  0.00    +0.390 A 
ATOM     13  N   LIG    1        0.549  -0.456   1.679  0.00  0.00    -0.460 NA
ATOM     14  C   LIG    1        1.409  -0.881   0.752  0.00  0.00    +0.320 A 
ATOM     15  C   LIG    1        1.458  -2.047  -0.037  0.00  0.00    -0.300 A 
ATOM     16  C   LIG    1        2.605  -1.947  -0.844  0.00  0.00    +0.340 A 
ATOM     17  N   LIG    1        3.210  -0.820  -0.577  0.00  0.00    -0.310 NA
ATOM     18  N   LIG    1        2.497  -0.129   0.410  0.00  0.00    -0.310 N 
ENDBRANCH   1  15
BRANCH   5  19
ATOM     19  C   LIG    1        2.090  -8.044   1.460  0.00  0.00    +0.260 A 
ATOM     20  C   LIG    1        3.386  -8.557   1.452  0.00  0.00    +0.040 A 
ATOM     21  C   LIG    1        3.667  -9.624   2.291  0.00  0.00    +0.080 A 
ATOM     22  C   LIG    1        2.638 -10.124   3.079  0.00  0.00    +0.090 A 
ATOM     23  N   LIG    1        1.438  -9.579   3.018  0.00  0.00    -0.200 NA
ATOM     24 CL   LIG    1        2.930 -11.463   4.143  0.00  0.00    -0.000 Cl
ATOM     25  N   LIG    1        1.173  -8.588   2.247  0.00  0.00    -0.260 NA
ENDBRANCH   5  19
TORSDOF 2
