REMARK  Name = ZINCrD0000071JzK.0
REMARK                            x       y       z     vdW  Elec       q    Type
REMARK                         _______ _______ _______ _____ _____    ______ ____
ROOT
ATOM      1  C   LIG    1       -2.913  -2.743   2.930  0.00  0.00    +0.470 C 
ATOM      2  O   LIG    1       -3.365  -2.630   1.815  0.00  0.00    -0.500 OA
ENDROOT
BRANCH   1   3
ATOM      3  O   LIG    1       -1.990  -1.875   3.371  0.00  0.00    -0.320 OA
BRANCH   3   4
ATOM      4  C   LIG    1       -1.582  -0.824   2.455  0.00  0.00    +0.270 C 
BRANCH   4   6
ATOM      5  N   LIG    1       -0.020   1.094   2.454  0.00  0.00    -0.570 N 
ATOM      6  C   LIG    1       -0.548   0.047   3.119  0.00  0.00    +0.520 C 
ATOM      7  O   LIG    1       -0.190  -0.193   4.253  0.00  0.00    -0.490 OA
BRANCH   5   8
ATOM      8  C   LIG    1        1.012   1.842   3.031  0.00  0.00    +0.140 A 
ATOM      9  C   LIG    1        2.262   1.270   3.225  0.00  0.00    +0.010 A 
ATOM     10  C   LIG    1        3.280   2.013   3.790  0.00  0.00    +0.020 A 
ATOM     11  C   LIG    1        3.052   3.322   4.173  0.00  0.00    +0.010 A 
ATOM     12  C   LIG    1        1.807   3.893   3.986  0.00  0.00    +0.020 A 
ATOM     13  C   LIG    1        0.786   3.157   3.416  0.00  0.00    +0.010 A 
ENDBRANCH   5   8
BRANCH   5  15
ATOM     14  C   LIG    1        0.269   0.696   0.058  0.00  0.00    +0.020 C 
ATOM     15  C   LIG    1       -0.527   1.448   1.126  0.00  0.00    +0.280 C 
ENDBRANCH   5  15
ENDBRANCH   4   6
ENDBRANCH   3   4
ENDBRANCH   1   3
BRANCH   1  16
ATOM     16  C   LIG    1       -3.386  -3.860   3.825  0.00  0.00    +0.370 C 
BRANCH  16  17
ATOM     17  N   LIG    1       -4.386  -4.663   3.116  0.00  0.00    -0.720 N 
ATOM     18  H   LIG    1       -4.640  -4.432   2.209  0.00  0.00    +0.410 HD
ATOM     19  C   LIG    1       -4.952  -5.724   3.725  0.00  0.00    +0.560 C 
ATOM     20  O   LIG    1       -4.633  -6.014   4.862  0.00  0.00    -0.500 OA
BRANCH  19  21
ATOM     21  C   LIG    1       -5.960  -6.534   3.011  0.00  0.00    -0.130 A 
ATOM     22  C   LIG    1       -6.332  -6.200   1.708  0.00  0.00    +0.090 A 
ATOM     23  C   LIG    1       -7.269  -6.964   1.044  0.00  0.00    +0.040 A 
ATOM     24  C   LIG    1       -7.851  -8.053   1.672  0.00  0.00    +0.000 A 
ATOM     25  C   LIG    1       -7.491  -8.387   2.967  0.00  0.00    +0.040 A 
ATOM     26 CL   LIG    1       -9.035  -9.004   0.832  0.00  0.00    -0.040 Cl
ATOM     27  C   LIG    1       -6.550  -7.634   3.640  0.00  0.00    +0.030 A 
ATOM     28 CL   LIG    1       -6.099  -8.053   5.263  0.00  0.00    -0.010 Cl
ENDBRANCH  19  21
ENDBRANCH  16  17
ENDBRANCH   1  16
TORSDOF 8
