REMARK  Name = ZINCtV000002GI6u.0
REMARK                            x       y       z     vdW  Elec       q    Type
REMARK                         _______ _______ _______ _____ _____    ______ ____
ROOT
ATOM      1  C   LIG    1        2.564   1.583  -0.014  0.00  0.00    +0.440 C 
ATOM      2  O   LIG    1        3.428   2.436  -0.017  0.00  0.00    -0.460 OA
ENDROOT
BRANCH   1   3
ATOM      3  C   LIG    1        1.152   1.972   0.002  0.00  0.00    -0.260 A 
ATOM      4  C   LIG    1        0.642   3.257   0.013  0.00  0.00    +0.130 A 
ATOM      5  N   LIG    1       -0.703   3.174   0.026  0.00  0.00    -0.400 N 
ATOM      6  C   LIG    1       -1.099   1.866   0.017  0.00  0.00    +0.020 A 
ATOM      7  C   LIG    1       -2.528   1.386   0.019  0.00  0.00    +0.140 C 
ATOM      8  C   LIG    1        1.450   4.529   0.012  0.00  0.00    +0.150 C 
ATOM      9  C   LIG    1       -0.013   1.076   0.008  0.00  0.00    +0.010 A 
BRANCH   5  10
ATOM     10  C   LIG    1       -1.572   4.274   0.040  0.00  0.00    +0.140 A 
ATOM     11  C   LIG    1       -2.412   4.510  -1.040  0.00  0.00    +0.020 A 
ATOM     12  C   LIG    1       -3.268   5.594  -1.024  0.00  0.00    +0.080 A 
ATOM     13  C   LIG    1       -3.289   6.444   0.065  0.00  0.00    +0.010 A 
ATOM     14  C   LIG    1       -2.453   6.212   1.145  0.00  0.00    +0.120 A 
ATOM     15  F   LIG    1       -2.477   7.044   2.209  0.00  0.00    -0.130 F 
ATOM     16  C   LIG    1       -1.598   5.125   1.136  0.00  0.00    -0.010 A 
ENDBRANCH   5  10
ENDBRANCH   1   3
BRANCH   1  17
ATOM     17  C   LIG    1        2.944   0.125  -0.026  0.00  0.00    +0.110 C 
BRANCH  17  18
ATOM     18  S   LIG    1        4.747  -0.028  -0.044  0.00  0.00    -0.000 S 
BRANCH  18  22
ATOM     19  C   LIG    1        7.688  -4.349  -0.097  0.00  0.00    +0.120 C 
ATOM     20  C   LIG    1        6.323  -3.711  -0.080  0.00  0.00    -0.010 A 
ATOM     21  C   LIG    1        6.186  -2.356  -0.071  0.00  0.00    -0.020 A 
ATOM     22  C   LIG    1        4.905  -1.783  -0.056  0.00  0.00    +0.140 A 
ATOM     23  N   LIG    1        3.817  -2.527  -0.044  0.00  0.00    -0.490 NA
ATOM     24  C   LIG    1        3.891  -3.863  -0.057  0.00  0.00    +0.150 A 
ATOM     25  C   LIG    1        2.727  -4.651  -0.050  0.00  0.00    +0.030 A 
ATOM     26  C   LIG    1        2.831  -6.009  -0.059  0.00  0.00    +0.040 A 
ATOM     27  C   LIG    1        4.075  -6.634  -0.074  0.00  0.00    +0.010 A 
ATOM     28  C   LIG    1        5.224  -5.902  -0.082  0.00  0.00    +0.040 A 
ATOM     29  C   LIG    1        5.155  -4.501  -0.073  0.00  0.00    -0.110 A 
ENDBRANCH  18  22
ENDBRANCH  17  18
ENDBRANCH   1  17
TORSDOF 5
