REMARK  Name = ZINCrg000000tRgK.0
REMARK                            x       y       z     vdW  Elec       q    Type
REMARK                         _______ _______ _______ _____ _____    ______ ____
ROOT
ATOM      1  C   LIG    1       -0.926   0.710   6.058  0.00  0.00    +0.570 C 
ATOM      2  N   LIG    1       -0.331   0.177   7.144  0.00  0.00    -0.650 N 
ATOM      3  H   LIG    1        0.398  -0.453   7.038  0.00  0.00    +0.420 HD
ATOM      4  O   LIG    1       -1.900   1.425   6.188  0.00  0.00    -0.500 OA
ENDROOT
BRANCH   1   9
ATOM      5  C   LIG    1       -0.495   0.696   2.325  0.00  0.00    +0.150 A 
ATOM      6  C   LIG    1        0.624  -0.130   2.234  0.00  0.00    -0.050 A 
ATOM      7  C   LIG    1        1.183  -0.641   3.391  0.00  0.00    +0.300 A 
ATOM      8  N   LIG    1        0.673  -0.359   4.572  0.00  0.00    -0.480 NA
ATOM      9  C   LIG    1       -0.392   0.424   4.707  0.00  0.00    +0.100 A 
ATOM     10  C   LIG    1       -1.007   0.980   3.591  0.00  0.00    +0.030 A 
BRANCH   5  14
ATOM     11  O   LIG    1       -2.023   4.396  -0.091  0.00  0.00    -0.540 OA
ATOM     12  C   LIG    1       -1.624   3.251  -0.061  0.00  0.00    +0.530 C 
ATOM     13  C   LIG    1       -1.133   2.694   1.245  0.00  0.00    +0.260 C 
ATOM     14  N   LIG    1       -1.084   1.228   1.181  0.00  0.00    -0.480 N 
ATOM     15  C   LIG    1       -0.369   0.794  -0.030  0.00  0.00    +0.200 C 
ATOM     16  C   LIG    1       -1.217   1.141  -1.255  0.00  0.00    +0.280 C 
ATOM     17  N   LIG    1       -1.641   2.537  -1.192  0.00  0.00    -0.720 N 
ATOM     18  H   LIG    1       -1.948   2.965  -2.006  0.00  0.00    +0.410 HD
ENDBRANCH   5  14
ENDBRANCH   1   9
BRANCH   2  19
ATOM     19  C   LIG    1       -0.765   0.534   8.424  0.00  0.00    +0.160 A 
ATOM     20  C   LIG    1       -1.235   1.820   8.664  0.00  0.00    +0.010 A 
ATOM     21  C   LIG    1       -1.668   2.173   9.924  0.00  0.00    +0.090 A 
ATOM     22  C   LIG    1       -1.625   1.242  10.961  0.00  0.00    -0.030 A 
ATOM     23  C   LIG    1       -1.149  -0.046  10.719  0.00  0.00    +0.080 A 
ATOM     24  C   LIG    1       -0.722  -0.396   9.456  0.00  0.00    -0.020 A 
BRANCH  22  25
ATOM     25  C   LIG    1       -2.084   1.621  12.320  0.00  0.00    +0.270 A 
ATOM     26  N   LIG    1       -2.096   0.833  13.372  0.00  0.00    -0.310 NA
ATOM     27  N   LIG    1       -2.601   1.593  14.440  0.00  0.00    -0.480 N 
ATOM     28  H   LIG    1       -2.732   1.295  15.354  0.00  0.00    +0.440 HD
ATOM     29  C   LIG    1       -2.873   2.814  13.945  0.00  0.00    +0.500 A 
ATOM     30  N   LIG    1       -2.560   2.822  12.676  0.00  0.00    -0.540 NA
ENDBRANCH  22  25
ENDBRANCH   2  19
TORSDOF 4
