REMARK  Name = ZINCrH000004qWiK.0
REMARK                            x       y       z     vdW  Elec       q    Type
REMARK                         _______ _______ _______ _____ _____    ______ ____
ROOT
ATOM      1  C   LIG    1        3.758  -1.727  -0.043  0.00  0.00    +0.010 C 
ENDROOT
BRANCH   1   2
ATOM      2  C   LIG    1        4.464  -3.054   0.067  0.00  0.00    +0.550 C 
ATOM      3  N   LIG    1        5.713  -3.113   0.571  0.00  0.00    -0.720 N 
ATOM      4  H   LIG    1        6.157  -2.301   0.863  0.00  0.00    +0.400 HD
ATOM      5  O   LIG    1        3.909  -4.068  -0.298  0.00  0.00    -0.520 OA
BRANCH   3   6
ATOM      6  C   LIG    1        6.399  -4.402   0.678  0.00  0.00    +0.280 C 
ATOM      7  C   LIG    1        5.997  -5.088   1.985  0.00  0.00    +0.040 C 
BRANCH   6   8
ATOM      8  C   LIG    1        7.890  -4.181   0.665  0.00  0.00    -0.090 A 
ATOM      9  C   LIG    1        8.435  -3.109   1.347  0.00  0.00    +0.000 A 
ATOM     10  C   LIG    1        9.803  -2.908   1.338  0.00  0.00    +0.010 A 
ATOM     11  C   LIG    1       10.624  -3.774   0.640  0.00  0.00    +0.000 A 
ATOM     12  C   LIG    1       10.079  -4.842  -0.046  0.00  0.00    +0.020 A 
ATOM     13  C   LIG    1        8.711  -5.045  -0.035  0.00  0.00    +0.020 A 
ENDBRANCH   6   8
ENDBRANCH   3   6
ENDBRANCH   1   2
BRANCH   1  14
ATOM     14  C   LIG    1        4.160  -1.042  -1.351  0.00  0.00    +0.010 C 
ATOM     15  C   LIG    1        3.766  -1.929  -2.533  0.00  0.00    +0.030 C 
ATOM     16  C   LIG    1        5.673  -0.817  -1.364  0.00  0.00    +0.040 C 
ENDBRANCH   1  14
BRANCH   1  17
ATOM     17  S   LIG    1        1.964  -1.994  -0.027  0.00  0.00    +0.090 S 
BRANCH  17  24
ATOM     18  C   LIG    1       -3.745   1.940   0.050  0.00  0.00    +0.160 C 
ATOM     19  C   LIG    1       -2.394   1.273   0.033  0.00  0.00    +0.120 A 
ATOM     20  C   LIG    1       -1.268   2.033   0.030  0.00  0.00    +0.030 A 
ATOM     21  C   LIG    1       -0.017   1.379   0.010  0.00  0.00    +0.220 A 
ATOM     22  N   LIG    1        1.236   1.780  -0.000  0.00  0.00    -0.270 NA
ATOM     23  N   LIG    1        2.019   0.758  -0.013  0.00  0.00    -0.240 NA
ATOM     24  C   LIG    1        1.319  -0.354  -0.012  0.00  0.00    +0.120 A 
ATOM     25  N   LIG    1        0.002  -0.004   0.002  0.00  0.00    -0.420 N 
ATOM     26  C   LIG    1       -1.173  -0.691   0.010  0.00  0.00    +0.370 A 
ATOM     27  C   LIG    1       -1.152  -2.198   0.001  0.00  0.00    +0.210 C 
ATOM     28  N   LIG    1       -2.315  -0.064   0.025  0.00  0.00    -0.480 NA
ENDBRANCH  17  24
ENDBRANCH   1  17
TORSDOF 6
