REMARK  Name = ZINCqH0000050Tn9.0
REMARK                            x       y       z     vdW  Elec       q    Type
REMARK                         _______ _______ _______ _____ _____    ______ ____
ROOT
ATOM      1  C   LIG    1        0.094  -4.395   3.671  0.00  0.00    +0.280 C 
ENDROOT
BRANCH   1   2
ATOM      2  N   LIG    1        0.071  -3.195   2.833  0.00  0.00    -0.730 N 
ATOM      3  H   LIG    1        0.064  -2.316   3.244  0.00  0.00    +0.400 HD
ATOM      4  C   LIG    1        0.060  -3.311   1.490  0.00  0.00    +0.590 C 
ATOM      5  O   LIG    1        0.069  -4.412   0.975  0.00  0.00    -0.520 OA
BRANCH   4   6
ATOM      6  C   LIG    1        0.036  -2.102   0.646  0.00  0.00    -0.260 A 
ATOM      7  C   LIG    1        0.023  -0.794   1.087  0.00  0.00    +0.290 A 
ATOM      8  N   LIG    1        0.002  -0.004   0.002  0.00  0.00    -0.350 N 
ATOM      9  N   LIG    1       -0.004  -0.816  -1.138  0.00  0.00    -0.260 NA
ATOM     10  C   LIG    1       -0.018   1.461   0.010  0.00  0.00    +0.380 C 
ATOM     11  C   LIG    1        0.022  -2.066  -0.767  0.00  0.00    +0.050 A 
BRANCH  11  12
ATOM     12  C   LIG    1        0.030  -3.262  -1.683  0.00  0.00    +0.490 C 
ATOM     13  F   LIG    1       -1.099  -4.049  -1.433  0.00  0.00    -0.180 F 
ATOM     14  F   LIG    1        1.185  -4.017  -1.455  0.00  0.00    -0.180 F 
ENDBRANCH  11  12
ENDBRANCH   4   6
ENDBRANCH   1   2
BRANCH   1  15
ATOM     15  C   LIG    1        0.103  -3.987   5.146  0.00  0.00    +0.140 C 
BRANCH  15  20
ATOM     16  C   LIG    1       -0.728  -8.387   8.224  0.00  0.00    +0.160 C 
ATOM     17  C   LIG    1       -0.245  -7.218   7.405  0.00  0.00    -0.210 A 
ATOM     18  C   LIG    1        1.042  -6.889   7.174  0.00  0.00    +0.100 A 
ATOM     19  N   LIG    1        1.197  -5.811   6.419  0.00  0.00    -0.450 NA
ATOM     20  C   LIG    1        0.127  -5.223   6.009  0.00  0.00    +0.050 A 
ATOM     21  S   LIG    1       -1.261  -6.035   6.586  0.00  0.00    +0.140 S 
BRANCH  18  22
ATOM     22  C   LIG    1        2.184  -7.665   7.716  0.00  0.00    -0.020 A 
ATOM     23  C   LIG    1        2.094  -8.253   8.977  0.00  0.00    +0.020 A 
ATOM     24  C   LIG    1        3.158  -8.977   9.476  0.00  0.00    +0.010 A 
ATOM     25  C   LIG    1        4.315  -9.113   8.730  0.00  0.00    +0.010 A 
ATOM     26  C   LIG    1        4.411  -8.528   7.480  0.00  0.00    +0.010 A 
ATOM     27  C   LIG    1        3.352  -7.806   6.970  0.00  0.00    +0.040 A 
ENDBRANCH  18  22
ENDBRANCH  15  20
ENDBRANCH   1  15
TORSDOF 6
