REMARK  Name = ZINCvU0000000B94.0
REMARK                            x       y       z     vdW  Elec       q    Type
REMARK                         _______ _______ _______ _____ _____    ______ ____
ROOT
ATOM      1  N   LIG    1       -7.451   2.538  -3.116  0.00  0.00    -0.610 N 
ATOM      2  C   LIG    1       -6.840   3.173  -2.096  0.00  0.00    +0.560 C 
ATOM      3  O   LIG    1       -7.418   4.064  -1.500  0.00  0.00    -0.530 OA
ENDROOT
BRANCH   2   4
ATOM      4  C   LIG    1       -5.529   2.804  -1.719  0.00  0.00    -0.110 C 
ATOM      5  C   LIG    1       -4.913   3.444  -0.691  0.00  0.00    +0.190 C 
BRANCH   5   6
ATOM      6  C   LIG    1       -3.601   3.075  -0.313  0.00  0.00    -0.200 A 
ATOM      7  C   LIG    1       -2.882   3.647   0.704  0.00  0.00    +0.070 A 
ATOM      8  C   LIG    1       -1.632   3.123   0.882  0.00  0.00    +0.030 A 
ATOM      9  C   LIG    1       -1.303   2.116   0.020  0.00  0.00    -0.140 A 
ATOM     10  S   LIG    1       -2.641   1.819  -1.082  0.00  0.00    +0.180 S 
BRANCH   9  11
ATOM     11  C   LIG    1       -0.017   1.392   0.010  0.00  0.00    -0.060 A 
ATOM     12  C   LIG    1        0.002  -0.004   0.002  0.00  0.00    +0.060 A 
ATOM     13  C   LIG    1        1.208  -0.675  -0.013  0.00  0.00    +0.010 A 
ATOM     14  C   LIG    1        2.397   0.032  -0.020  0.00  0.00    +0.060 A 
ATOM     15  C   LIG    1        2.389   1.415  -0.013  0.00  0.00    -0.010 A 
ATOM     16  C   LIG    1        1.189   2.101   0.002  0.00  0.00    +0.120 A 
ATOM     17  F   LIG    1        1.181   3.452   0.009  0.00  0.00    -0.130 F 
ENDBRANCH   9  11
ENDBRANCH   5   6
ENDBRANCH   2   4
BRANCH   1  18
ATOM     18  C   LIG    1       -6.757   1.466  -3.833  0.00  0.00    +0.270 C 
BRANCH  18  20
ATOM     19  C   LIG    1       -6.327  -0.994  -3.908  0.00  0.00    +0.030 C 
ATOM     20  C   LIG    1       -7.053   0.126  -3.159  0.00  0.00    +0.000 C 
ENDBRANCH  18  20
ENDBRANCH   1  18
BRANCH   1  21
ATOM     21  C   LIG    1       -8.810   2.921  -3.507  0.00  0.00    +0.460 C 
BRANCH  21  22
ATOM     22  C   LIG    1       -8.746   4.005  -4.552  0.00  0.00    +0.150 A 
ATOM     23  N   LIG    1       -8.695   3.827  -5.843  0.00  0.00    -0.270 NA
ATOM     24  N   LIG    1       -8.652   4.969  -6.434  0.00  0.00    -0.260 NA
ATOM     25  C   LIG    1       -8.666   5.925  -5.530  0.00  0.00    +0.250 A 
ATOM     26  O   LIG    1       -8.726   5.330  -4.321  0.00  0.00    -0.200 OA
BRANCH  25  27
ATOM     27  C   LIG    1       -8.623   7.371  -5.790  0.00  0.00    +0.030 A 
ATOM     28  C   LIG    1       -8.562   7.963  -7.016  0.00  0.00    +0.060 A 
ATOM     29  C   LIG    1       -8.540   9.353  -6.794  0.00  0.00    -0.060 A 
ATOM     30  C   LIG    1       -8.587   9.542  -5.460  0.00  0.00    +0.220 A 
ATOM     31  O   LIG    1       -8.642   8.344  -4.857  0.00  0.00    -0.160 OA
ENDBRANCH  25  27
ENDBRANCH  21  22
ENDBRANCH   1  21
TORSDOF 8
