REMARK  Name = ZINCc70000004Tbc.0
REMARK                            x       y       z     vdW  Elec       q    Type
REMARK                         _______ _______ _______ _____ _____    ______ ____
ROOT
ATOM      1  C   LIG    1        1.225  -0.665  -0.013  0.00  0.00    +0.370 A 
ATOM      2  C   LIG    1        0.002  -0.004   0.002  0.00  0.00    -0.030 A 
ATOM      3  C   LIG    1       -0.017   1.379   0.010  0.00  0.00    +0.080 A 
ATOM      4  C   LIG    1        1.198   2.059   0.002  0.00  0.00    +0.030 A 
ATOM      5  C   LIG    1        2.378   1.335  -0.013  0.00  0.00    +0.300 A 
ATOM      6  N   LIG    1        2.361   0.015  -0.020  0.00  0.00    -0.510 NA
ENDROOT
BRANCH   1   7
ATOM      7  N   LIG    1        1.256  -2.057  -0.021  0.00  0.00    -1.040 N 
ATOM      8  H   LIG    1        0.427  -2.561  -0.015  0.00  0.00    +0.440 HD
BRANCH   7  10
ATOM      9  C   LIG    1        3.478  -2.428   1.548  0.00  0.00    -0.260 C 
ATOM     10  S   LIG    1        2.708  -2.853  -0.039  0.00  0.00    +2.610 S 
ATOM     11  O   LIG    1        3.421  -2.257  -1.114  0.00  0.00    -0.930 OA
ATOM     12  O   LIG    1        2.353  -4.229  -0.068  0.00  0.00    -0.950 OA
ENDBRANCH   7  10
ENDBRANCH   1   7
BRANCH   4  13
ATOM     13  O   LIG    1        1.226   3.419   0.008  0.00  0.00    -0.490 OA
ATOM     14  H   LIG    1        1.242   3.808   0.893  0.00  0.00    +0.390 HD
ENDBRANCH   4  13
TORSDOF 3
