REMARK  Name = ZINCrD000000CyA9.0
REMARK                            x       y       z     vdW  Elec       q    Type
REMARK                         _______ _______ _______ _____ _____    ______ ____
ROOT
ATOM      1  O   LIG    1        3.511   1.692  -0.076  0.00  0.00    -0.520 OA
ATOM      2  C   LIG    1        2.469   1.069  -0.010  0.00  0.00    +0.580 C 
ATOM      3  N   LIG    1        2.494  -0.276   0.083  0.00  0.00    -0.610 N 
ATOM      4  C   LIG    1        1.312  -1.157   0.098  0.00  0.00    +0.260 C 
ATOM      5  C   LIG    1        1.787  -2.444   0.817  0.00  0.00    +0.080 C 
ATOM      6  C   LIG    1        3.242  -2.575   0.294  0.00  0.00    +0.170 C 
ATOM      7  C   LIG    1        3.703  -1.106   0.178  0.00  0.00    +0.250 C 
ENDROOT
BRANCH   2   8
ATOM      8  C   LIG    1        1.178   1.784  -0.032  0.00  0.00    -0.110 A 
ATOM      9  C   LIG    1        0.061   1.192  -0.626  0.00  0.00    +0.070 A 
ATOM     10  C   LIG    1       -1.145   1.863  -0.651  0.00  0.00    -0.040 A 
ATOM     11  C   LIG    1       -1.248   3.122  -0.075  0.00  0.00    +0.100 A 
ATOM     12  O   LIG    1       -2.439   3.786  -0.092  0.00  0.00    -0.310 OA
ATOM     13  C   LIG    1       -2.492   4.953  -0.914  0.00  0.00    +0.230 C 
ATOM     14  C   LIG    1       -1.956   6.165  -0.168  0.00  0.00    +0.000 C 
ATOM     15  C   LIG    1       -0.478   6.033   0.164  0.00  0.00    +0.230 C 
ATOM     16  O   LIG    1       -0.257   4.955   1.076  0.00  0.00    -0.310 OA
ATOM     17  C   LIG    1       -0.140   3.715   0.517  0.00  0.00    +0.070 A 
ATOM     18 CL   LIG    1       -2.531   1.131  -1.397  0.00  0.00    -0.040 Cl
ATOM     19  C   LIG    1        1.072   3.054   0.542  0.00  0.00    +0.100 A 
ENDBRANCH   2   8
BRANCH   6  20
ATOM     20  C   LIG    1        4.097  -3.333   1.276  0.00  0.00    -0.120 A 
ATOM     21  C   LIG    1        4.190  -2.903   2.587  0.00  0.00    +0.050 A 
ATOM     22  C   LIG    1        4.969  -3.601   3.490  0.00  0.00    -0.010 A 
ATOM     23  C   LIG    1        5.665  -4.725   3.079  0.00  0.00    +0.100 A 
ATOM     24  C   LIG    1        5.575  -5.152   1.765  0.00  0.00    -0.010 A 
ATOM     25  F   LIG    1        6.431  -5.405   3.960  0.00  0.00    -0.140 F 
ATOM     26  C   LIG    1        4.791  -4.456   0.865  0.00  0.00    +0.060 A 
ENDBRANCH   6  20
BRANCH   6  27
ATOM     27  O   LIG    1        3.264  -3.208  -0.987  0.00  0.00    -0.540 OA
ATOM     28  H   LIG    1        4.150  -3.314  -1.359  0.00  0.00    +0.380 HD
ENDBRANCH   6  27
TORSDOF 3
