REMARK  Name = ZINCpe000027pGSk.0
REMARK                            x       y       z     vdW  Elec       q    Type
REMARK                         _______ _______ _______ _____ _____    ______ ____
ROOT
ATOM      1  N   LIG    1        0.002  -0.004   0.002  0.00  0.00    -0.700 N 
ATOM      2  H   LIG    1       -0.681  -0.501   0.479  0.00  0.00    +0.410 HD
ATOM      3  C   LIG    1        0.969  -0.661  -0.668  0.00  0.00    +0.570 C 
ATOM      4  O   LIG    1        1.825  -0.038  -1.267  0.00  0.00    -0.520 OA
ENDROOT
BRANCH   3   5
ATOM      5  C   LIG    1        0.989  -2.139  -0.677  0.00  0.00    -0.210 A 
ATOM      6  C   LIG    1        0.017  -2.876   0.010  0.00  0.00    +0.380 A 
ATOM      7  N   LIG    1        0.070  -4.196  -0.028  0.00  0.00    -0.480 NA
ATOM      8  C   LIG    1        1.025  -4.818  -0.691  0.00  0.00    +0.260 A 
ATOM      9  N   LIG    1        1.964  -4.163  -1.347  0.00  0.00    -0.480 NA
ATOM     10  C   LIG    1        1.984  -2.842  -1.366  0.00  0.00    +0.420 A 
BRANCH   8  11
ATOM     11  C   LIG    1        1.046  -6.324  -0.700  0.00  0.00    +0.550 C 
ATOM     12  F   LIG    1        1.903  -6.774  -1.710  0.00  0.00    -0.150 F 
ATOM     13  F   LIG    1       -0.246  -6.807  -0.935  0.00  0.00    -0.160 F 
ATOM     14  F   LIG    1        1.500  -6.792   0.538  0.00  0.00    -0.160 F 
ENDBRANCH   8  11
ENDBRANCH   3   5
BRANCH   1  19
ATOM     15  C   LIG    1       -0.793   1.985   1.239  0.00  0.00    +0.150 C 
ATOM     16  C   LIG    1       -1.972   2.777   0.630  0.00  0.00    +0.210 C 
ATOM     17  O   LIG    1       -2.154   2.213  -0.687  0.00  0.00    -0.360 OA
ATOM     18  C   LIG    1       -0.816   1.998  -1.198  0.00  0.00    +0.210 C 
ATOM     19  C   LIG    1       -0.018   1.461   0.010  0.00  0.00    +0.240 C 
BRANCH  15  20
ATOM     20  O   LIG    1       -1.276   0.896   2.028  0.00  0.00    -0.290 OA
BRANCH  20  24
ATOM     21  C   LIG    1       -2.207   0.209   6.773  0.00  0.00    +0.360 C 
ATOM     22  N   LIG    1       -1.814   0.816   5.499  0.00  0.00    -0.370 N 
ATOM     23  C   LIG    1       -1.839   0.210   4.282  0.00  0.00    +0.210 A 
ATOM     24  C   LIG    1       -1.401   1.110   3.368  0.00  0.00    -0.030 A 
ATOM     25  C   LIG    1       -1.095   2.298   4.045  0.00  0.00    +0.180 A 
ATOM     26  N   LIG    1       -1.347   2.124   5.317  0.00  0.00    -0.270 NA
ENDBRANCH  20  24
ENDBRANCH  15  20
ENDBRANCH   1  19
TORSDOF 5
