REMARK  Name = ZINCrH000004mo7g.0
REMARK                            x       y       z     vdW  Elec       q    Type
REMARK                         _______ _______ _______ _____ _____    ______ ____
ROOT
ATOM      1  C   LIG    1        6.239   0.871   3.069  0.00  0.00    +0.350 C 
ATOM      2  C   LIG    1        7.151   2.066   2.788  0.00  0.00    +0.040 C 
ENDROOT
BRANCH   1   6
ATOM      3  C   LIG    1        6.438   0.068   6.966  0.00  0.00    +0.140 A 
ATOM      4  N   LIG    1        7.068  -0.811   6.241  0.00  0.00    -0.460 NA
ATOM      5  C   LIG    1        7.058  -0.629   4.940  0.00  0.00    +0.090 A 
ATOM      6  C   LIG    1        6.394   0.448   4.507  0.00  0.00    -0.240 A 
ATOM      7  C   LIG    1        7.751  -1.575   3.994  0.00  0.00    +0.150 C 
ATOM      8  S   LIG    1        5.739   1.292   5.909  0.00  0.00    +0.080 S 
BRANCH   3  12
ATOM      9  C   LIG    1        6.129   0.003  11.204  0.00  0.00    +0.150 A 
ATOM     10  C   LIG    1        6.833  -0.997  10.545  0.00  0.00    -0.010 A 
ATOM     11  C   LIG    1        6.935  -0.980   9.171  0.00  0.00    +0.110 A 
ATOM     12  C   LIG    1        6.330   0.045   8.440  0.00  0.00    -0.070 A 
ATOM     13  C   LIG    1        5.628   1.051   9.107  0.00  0.00    +0.080 A 
ATOM     14  C   LIG    1        5.526   1.024  10.481  0.00  0.00    -0.070 A 
BRANCH   9  16
ATOM     15  C   LIG    1        5.293   1.041  13.171  0.00  0.00    +0.240 C 
ATOM     16  O   LIG    1        6.031  -0.018  12.558  0.00  0.00    -0.310 OA
ENDBRANCH   9  16
ENDBRANCH   3  12
ENDBRANCH   1   6
BRANCH   1  17
ATOM     17  N   LIG    1        4.846   1.250   2.820  0.00  0.00    -0.740 N 
ATOM     18  H   LIG    1        4.287   1.554   3.552  0.00  0.00    +0.390 HD
ATOM     19  C   LIG    1        4.341   1.177   1.572  0.00  0.00    +0.710 C 
ATOM     20  N   LIG    1        3.059   1.526   1.343  0.00  0.00    -0.740 N 
ATOM     21  H   LIG    1        2.501   1.829   2.075  0.00  0.00    +0.400 HD
ATOM     22  O   LIG    1        5.041   0.796   0.654  0.00  0.00    -0.590 OA
BRANCH  20  23
ATOM     23  C   LIG    1        2.510   1.446  -0.013  0.00  0.00    +0.370 C 
BRANCH  23  24
ATOM     24  C   LIG    1        1.069   1.888   0.002  0.00  0.00    -0.260 A 
ATOM     25  C   LIG    1       -0.013   1.076   0.008  0.00  0.00    +0.270 A 
ATOM     26  N   LIG    1       -1.113   1.857   0.017  0.00  0.00    -0.470 N 
ATOM     27  H   LIG    1       -2.033   1.547   0.019  0.00  0.00    +0.440 HD
ATOM     28  N   LIG    1       -0.694   3.193   0.025  0.00  0.00    -0.290 NA
ATOM     29  C   LIG    1        0.614   3.211   0.013  0.00  0.00    +0.090 A 
ATOM     30  C   LIG    1        1.481   4.444   0.011  0.00  0.00    +0.150 C 
ENDBRANCH  23  24
ENDBRANCH  20  23
ENDBRANCH   1  17
TORSDOF 6
