REMARK  Name = ZINCrH000004mo7g.1
REMARK                            x       y       z     vdW  Elec       q    Type
REMARK                         _______ _______ _______ _____ _____    ______ ____
ROOT
ATOM      1  C   LIG    1       -2.550   1.613   0.022  0.00  0.00    +0.350 C 
ATOM      2  C   LIG    1       -3.171   1.766  -1.367  0.00  0.00    +0.040 C 
ENDROOT
BRANCH   1   6
ATOM      3  C   LIG    1        0.953   3.511   0.012  0.00  0.00    +0.140 A 
ATOM      4  N   LIG    1        1.085   2.215   0.004  0.00  0.00    -0.460 NA
ATOM      5  C   LIG    1       -0.018   1.503   0.010  0.00  0.00    +0.090 A 
ATOM      6  C   LIG    1       -1.161   2.197   0.019  0.00  0.00    -0.240 A 
ATOM      7  C   LIG    1        0.002  -0.004   0.002  0.00  0.00    +0.150 C 
ATOM      8  S   LIG    1       -0.762   3.914   0.030  0.00  0.00    +0.080 S 
BRANCH   3  12
ATOM      9  C   LIG    1        4.144   6.316  -0.004  0.00  0.00    +0.150 A 
ATOM     10  C   LIG    1        4.419   4.955  -0.014  0.00  0.00    -0.010 A 
ATOM     11  C   LIG    1        3.386   4.042  -0.009  0.00  0.00    +0.110 A 
ATOM     12  C   LIG    1        2.063   4.487   0.006  0.00  0.00    -0.070 A 
ATOM     13  C   LIG    1        1.792   5.856   0.011  0.00  0.00    +0.080 A 
ATOM     14  C   LIG    1        2.830   6.763   0.012  0.00  0.00    -0.070 A 
BRANCH   9  16
ATOM     15  C   LIG    1        4.812   8.597   0.002  0.00  0.00    +0.240 C 
ATOM     16  O   LIG    1        5.165   7.213  -0.009  0.00  0.00    -0.310 OA
ENDBRANCH   9  16
ENDBRANCH   3  12
ENDBRANCH   1   6
BRANCH   1  17
ATOM     17  N   LIG    1       -3.374   2.318   1.007  0.00  0.00    -0.740 N 
ATOM     18  H   LIG    1       -3.153   3.227   1.262  0.00  0.00    +0.390 HD
ATOM     19  C   LIG    1       -4.440   1.704   1.557  0.00  0.00    +0.710 C 
ATOM     20  N   LIG    1       -5.199   2.353   2.462  0.00  0.00    -0.740 N 
ATOM     21  H   LIG    1       -4.977   3.262   2.718  0.00  0.00    +0.400 HD
ATOM     22  O   LIG    1       -4.718   0.564   1.236  0.00  0.00    -0.590 OA
BRANCH  20  23
ATOM     23  C   LIG    1       -6.357   1.685   3.061  0.00  0.00    +0.370 C 
BRANCH  23  24
ATOM     24  C   LIG    1       -7.029   2.620   4.033  0.00  0.00    -0.270 A 
ATOM     25  C   LIG    1       -7.880   3.623   3.715  0.00  0.00    +0.110 A 
ATOM     26  N   LIG    1       -8.259   4.221   4.864  0.00  0.00    -0.470 N 
ATOM     27  H   LIG    1       -8.867   4.973   4.942  0.00  0.00    +0.440 HD
ATOM     28  N   LIG    1       -7.620   3.564   5.923  0.00  0.00    -0.290 NA
ATOM     29  C   LIG    1       -8.325   4.004   2.326  0.00  0.00    +0.150 C 
ATOM     30  C   LIG    1       -6.888   2.601   5.424  0.00  0.00    +0.260 A 
ENDBRANCH  23  24
ENDBRANCH  20  23
ENDBRANCH   1  17
TORSDOF 6
