REMARK  Name = ZINCrD0000074RA2.0
REMARK                            x       y       z     vdW  Elec       q    Type
REMARK                         _______ _______ _______ _____ _____    ______ ____
ROOT
ATOM      1  C   LIG    1        0.942  -0.690   0.641  0.00  0.00    +0.600 C 
ATOM      2  N   LIG    1       -0.023  -0.016  -0.017  0.00  0.00    -0.720 N 
ATOM      3  H   LIG    1       -0.709  -0.501  -0.501  0.00  0.00    +0.400 HD
ATOM      4  O   LIG    1        1.802  -0.081   1.248  0.00  0.00    -0.520 OA
ENDROOT
BRANCH   2   5
ATOM      5  C   LIG    1       -0.035   1.449   0.001  0.00  0.00    +0.230 C 
ATOM      6  C   LIG    1       -0.755   1.938   1.260  0.00  0.00    +0.000 C 
ATOM      7  C   LIG    1       -0.735   3.469   1.292  0.00  0.00    +0.280 C 
ATOM      8  N   LIG    1       -1.305   3.976   0.036  0.00  0.00    -0.620 N 
ATOM      9  C   LIG    1       -0.746   3.499  -1.236  0.00  0.00    +0.280 C 
ATOM     10  C   LIG    1       -2.321   4.861   0.051  0.00  0.00    +0.520 C 
ATOM     11  O   LIG    1       -2.727   5.336  -0.989  0.00  0.00    -0.540 OA
ATOM     12  C   LIG    1       -0.765   1.968  -1.240  0.00  0.00    +0.030 C 
BRANCH  10  13
ATOM     13  C   LIG    1       -2.954   5.260   1.359  0.00  0.00    -0.030 C 
ATOM     14  C   LIG    1       -4.024   4.236   1.742  0.00  0.00    +0.050 C 
ATOM     15  C   LIG    1       -3.598   6.640   1.214  0.00  0.00    +0.050 C 
ENDBRANCH  10  13
ENDBRANCH   2   5
BRANCH   1  21
ATOM     16  C   LIG    1        1.616  -3.067  -0.340  0.00  0.00    +0.100 A 
ATOM     17  N   LIG    1        1.334  -4.275   0.077  0.00  0.00    -0.340 NA
ATOM     18  O   LIG    1        0.646  -4.263   1.068  0.00  0.00    +0.100 OA
ATOM     19  C   LIG    1        0.350  -3.033   1.494  0.00  0.00    +0.030 A 
ATOM     20  C   LIG    1       -0.485  -2.672   2.696  0.00  0.00    +0.210 C 
ATOM     21  C   LIG    1        0.954  -2.162   0.623  0.00  0.00    -0.250 A 
BRANCH  16  28
ATOM     22  C   LIG    1        2.774  -5.130  -2.005  0.00  0.00    +0.100 C 
ATOM     23  C   LIG    1        2.989  -3.675  -2.331  0.00  0.00    -0.050 A 
ATOM     24  C   LIG    1        3.738  -3.316  -3.433  0.00  0.00    +0.010 A 
ATOM     25  C   LIG    1        3.941  -1.980  -3.730  0.00  0.00    +0.030 A 
ATOM     26  C   LIG    1        3.391  -0.997  -2.928  0.00  0.00    +0.010 A 
ATOM     27  C   LIG    1        2.635  -1.344  -1.827  0.00  0.00    +0.030 A 
ATOM     28  C   LIG    1        2.427  -2.688  -1.523  0.00  0.00    -0.040 A 
ENDBRANCH  16  28
ENDBRANCH   1  21
TORSDOF 4
