REMARK  Name = ZINCkj000005hcqD.1
REMARK                            x       y       z     vdW  Elec       q    Type
REMARK                         _______ _______ _______ _____ _____    ______ ____
ROOT
ATOM      1  C   LIG    1       -4.448   5.418  -2.763  0.00  0.00    +0.520 C 
ATOM      2  N   LIG    1       -5.449   6.275  -3.045  0.00  0.00    -0.740 N 
ATOM      3  H   LIG    1       -5.973   6.662  -2.327  0.00  0.00    +0.410 HD
ATOM      4  O   LIG    1       -3.792   4.934  -3.662  0.00  0.00    -0.500 OA
ENDROOT
BRANCH   1   5
ATOM      5  C   LIG    1       -4.143   5.061  -1.331  0.00  0.00    +0.220 C 
BRANCH   5   7
ATOM      6  C   LIG    1       -3.386   2.832  -1.901  0.00  0.00    +0.190 C 
ATOM      7  N   LIG    1       -3.018   4.117  -1.291  0.00  0.00    -0.520 NA
BRANCH   7   8
ATOM      8  C   LIG    1       -2.538   3.929   0.085  0.00  0.00    +0.240 C 
BRANCH   8   9
ATOM      9  C   LIG    1       -1.243   3.158   0.064  0.00  0.00    -0.090 A 
ATOM     10  C   LIG    1       -1.260   1.776   0.122  0.00  0.00    +0.010 A 
ATOM     11  C   LIG    1       -0.072   1.069   0.108  0.00  0.00    +0.000 A 
ATOM     12  C   LIG    1        1.132   1.743   0.026  0.00  0.00    +0.010 A 
ATOM     13  C   LIG    1        1.149   3.124  -0.037  0.00  0.00    +0.000 A 
ATOM     14  C   LIG    1       -0.039   3.831  -0.018  0.00  0.00    +0.020 A 
ENDBRANCH   8   9
ENDBRANCH   7   8
ENDBRANCH   5   7
ENDBRANCH   1   5
BRANCH   2  15
ATOM     15  C   LIG    1       -5.745   6.622  -4.437  0.00  0.00    +0.280 C 
BRANCH  15  16
ATOM     16  C   LIG    1       -6.990   7.510  -4.487  0.00  0.00    +0.160 C 
ATOM     17  C   LIG    1       -6.691   8.872  -3.825  0.00  0.00    +0.080 C 
ATOM     18  C   LIG    1       -7.456   9.875  -4.729  0.00  0.00    +0.080 C 
ATOM     19  C   LIG    1       -7.278   9.235  -6.128  0.00  0.00    +0.260 C 
ATOM     20  N   LIG    1       -7.359   7.778  -5.890  0.00  0.00    -0.380 N 
ATOM     21  C   LIG    1       -6.429   7.080  -6.787  0.00  0.00    +0.330 C 
ATOM     22  H   LIG    1       -8.301   7.458  -6.060  0.00  0.00    +0.430 HD
ENDBRANCH  15  16
ENDBRANCH   2  15
TORSDOF 6
