REMARK  Name = ZINCkj000005hcqD.0
REMARK                            x       y       z     vdW  Elec       q    Type
REMARK                         _______ _______ _______ _____ _____    ______ ____
ROOT
ATOM      1  C   LIG    1       -4.873   5.738  -3.320  0.00  0.00    +0.520 C 
ATOM      2  N   LIG    1       -6.206   5.867  -3.466  0.00  0.00    -0.760 N 
ATOM      3  H   LIG    1       -6.739   6.244  -2.748  0.00  0.00    +0.400 HD
ATOM      4  O   LIG    1       -4.207   5.266  -4.218  0.00  0.00    -0.490 OA
ENDROOT
BRANCH   1   5
ATOM      5  C   LIG    1       -4.209   6.179  -2.041  0.00  0.00    +0.210 C 
BRANCH   5   7
ATOM      6  C   LIG    1       -2.148   6.788  -3.156  0.00  0.00    +0.190 C 
ATOM      7  N   LIG    1       -2.763   5.935  -2.131  0.00  0.00    -0.520 NA
BRANCH   7   8
ATOM      8  C   LIG    1       -2.115   6.129  -0.827  0.00  0.00    +0.240 C 
BRANCH   8   9
ATOM      9  C   LIG    1       -0.692   5.638  -0.895  0.00  0.00    -0.090 A 
ATOM     10  C   LIG    1       -0.399   4.322  -0.590  0.00  0.00    +0.020 A 
ATOM     11  C   LIG    1        0.906   3.872  -0.649  0.00  0.00    +0.000 A 
ATOM     12  C   LIG    1        1.919   4.736  -1.022  0.00  0.00    +0.010 A 
ATOM     13  C   LIG    1        1.626   6.051  -1.331  0.00  0.00    +0.000 A 
ATOM     14  C   LIG    1        0.321   6.502  -1.268  0.00  0.00    +0.010 A 
ENDBRANCH   8   9
ENDBRANCH   7   8
ENDBRANCH   5   7
ENDBRANCH   1   5
BRANCH   2  15
ATOM     15  C   LIG    1       -6.852   5.437  -4.710  0.00  0.00    +0.310 C 
BRANCH  15  16
ATOM     16  C   LIG    1       -8.370   5.548  -4.560  0.00  0.00    +0.160 C 
ATOM     17  C   LIG    1       -9.076   5.051  -5.846  0.00  0.00    +0.090 C 
ATOM     18  C   LIG    1      -10.472   4.648  -5.302  0.00  0.00    +0.080 C 
ATOM     19  C   LIG    1      -10.149   4.082  -3.903  0.00  0.00    +0.250 C 
ATOM     20  N   LIG    1       -8.850   4.645  -3.493  0.00  0.00    -0.390 N 
ATOM     21  C   LIG    1       -9.011   5.399  -2.242  0.00  0.00    +0.320 C 
ATOM     22  H   LIG    1       -8.185   3.899  -3.355  0.00  0.00    +0.430 HD
ENDBRANCH  15  16
ENDBRANCH   2  15
TORSDOF 6
