REMARK  Name = ZINCnE000001TDfu.1
REMARK                            x       y       z     vdW  Elec       q    Type
REMARK                         _______ _______ _______ _____ _____    ______ ____
ROOT
ATOM      1  C   LIG    1        4.238   1.060  -3.089  0.00  0.00    -0.130 A 
ATOM      2  C   LIG    1        3.761  -0.185  -3.507  0.00  0.00    +0.020 A 
ATOM      3  C   LIG    1        2.567  -0.656  -3.011  0.00  0.00    +0.010 A 
ATOM      4  C   LIG    1        1.830   0.091  -2.099  0.00  0.00    -0.090 A 
ATOM      5  C   LIG    1        2.297   1.319  -1.679  0.00  0.00    -0.090 A 
ATOM      6  C   LIG    1        1.552   2.174  -0.687  0.00  0.00    +0.060 C 
ATOM      7  C   LIG    1        0.096   1.725  -0.578  0.00  0.00    +0.020 C 
ATOM      8  C   LIG    1        0.075   0.212  -0.330  0.00  0.00    -0.020 C 
ATOM      9  C   LIG    1        0.530  -0.492  -1.607  0.00  0.00    +0.230 C 
ATOM     10  C   LIG    1        3.496   1.806  -2.173  0.00  0.00    +0.030 A 
ENDROOT
BRANCH   1  12
ATOM     11  O   LIG    1        5.927   2.672  -3.244  0.00  0.00    -0.690 OA
ATOM     12  C   LIG    1        5.515   1.582  -3.612  0.00  0.00    +0.520 C 
ATOM     13  O   LIG    1        6.161   0.923  -4.415  0.00  0.00    -0.690 OA
ENDBRANCH   1  12
BRANCH   9  14
ATOM     14  N   LIG    1        0.716  -1.923  -1.331  0.00  0.00    -0.680 NA
ATOM     15  H   LIG    1        1.114  -2.066  -0.415  0.00  0.00    +0.350 HD
BRANCH  14  16
ATOM     16  C   LIG    1       -0.549  -2.655  -1.476  0.00  0.00    +0.300 C 
BRANCH  16  17
ATOM     17  C   LIG    1       -0.296  -4.132  -1.312  0.00  0.00    -0.000 A 
ATOM     18  C   LIG    1       -0.328  -4.837  -0.156  0.00  0.00    -0.020 A 
ATOM     19  C   LIG    1       -0.027  -6.160  -0.553  0.00  0.00    -0.070 A 
ATOM     20  N   LIG    1        0.156  -6.123  -1.842  0.00  0.00    -0.330 NA
ATOM     21  O   LIG    1        0.010  -5.006  -2.281  0.00  0.00    +0.130 OA
BRANCH  19  22
ATOM     22  C   LIG    1        0.069  -7.371   0.338  0.00  0.00    +0.490 C 
ATOM     23  F   LIG    1       -1.160  -7.580   0.974  0.00  0.00    -0.190 F 
ATOM     24  F   LIG    1        1.062  -7.164   1.301  0.00  0.00    -0.190 F 
ENDBRANCH  19  22
ENDBRANCH  16  17
ENDBRANCH  14  16
ENDBRANCH   9  14
TORSDOF 5
