REMARK  Name = ZINCvU0000000BPS.0
REMARK                            x       y       z     vdW  Elec       q    Type
REMARK                         _______ _______ _______ _____ _____    ______ ____
ROOT
ATOM      1  C   LIG    1       -3.181   2.072  -0.899  0.00  0.00    +0.560 C 
ATOM      2  S   LIG    1       -2.963   3.709  -0.448  0.00  0.00    -0.580 S 
ENDROOT
BRANCH   1   3
ATOM      3  N   LIG    1       -4.341   1.446  -0.621  0.00  0.00    -0.630 N 
ATOM      4  H   LIG    1       -4.488   0.538  -0.930  0.00  0.00    +0.400 HD
BRANCH   3   5
ATOM      5  C   LIG    1       -5.335   2.105   0.114  0.00  0.00    +0.130 A 
ATOM      6  C   LIG    1       -5.990   1.445   1.145  0.00  0.00    +0.020 A 
ATOM      7  C   LIG    1       -6.966   2.097   1.871  0.00  0.00    +0.020 A 
ATOM      8  C   LIG    1       -7.301   3.408   1.565  0.00  0.00    +0.090 A 
ATOM      9  C   LIG    1       -6.650   4.067   0.531  0.00  0.00    +0.020 A 
ATOM     10  C   LIG    1       -5.670   3.417  -0.193  0.00  0.00    +0.110 A 
BRANCH   8  11
ATOM     11  O   LIG    1       -8.265   4.048   2.277  0.00  0.00    -0.260 OA
BRANCH  11  12
ATOM     12  C   LIG    1       -9.502   4.156   1.724  0.00  0.00    +0.120 A 
ATOM     13  C   LIG    1       -9.729   3.694   0.435  0.00  0.00    -0.070 A 
ATOM     14  C   LIG    1      -10.987   3.801  -0.124  0.00  0.00    +0.050 A 
ATOM     15  C   LIG    1      -12.018   4.378   0.596  0.00  0.00    -0.030 A 
ATOM     16  C   LIG    1      -11.793   4.844   1.878  0.00  0.00    +0.050 A 
ATOM     17  C   LIG    1      -10.537   4.734   2.443  0.00  0.00    -0.020 A 
ENDBRANCH  11  12
ENDBRANCH   8  11
ENDBRANCH   3   5
ENDBRANCH   1   3
BRANCH   1  18
ATOM     18  N   LIG    1       -2.192   1.411  -1.533  0.00  0.00    -0.560 N 
BRANCH  18  19
ATOM     19  C   LIG    1       -2.379   0.010  -1.919  0.00  0.00    +0.270 C 
BRANCH  19  21
ATOM     20  C   LIG    1       -2.106  -2.362  -1.185  0.00  0.00    +0.030 C 
ATOM     21  C   LIG    1       -1.911  -0.900  -0.781  0.00  0.00    +0.000 C 
ENDBRANCH  19  21
ENDBRANCH  18  19
BRANCH  18  22
ATOM     22  C   LIG    1       -0.931   2.092  -1.835  0.00  0.00    +0.360 C 
BRANCH  22  23
ATOM     23  C   LIG    1        0.041   1.907  -0.668  0.00  0.00    +0.110 C 
ATOM     24  C   LIG    1        1.359   2.632  -0.973  0.00  0.00    +0.230 C 
ATOM     25  O   LIG    1        2.239   2.449   0.142  0.00  0.00    -0.310 OA
ATOM     26  C   LIG    1        1.708   2.649   1.379  0.00  0.00    +0.040 A 
ATOM     27  C   LIG    1        2.554   2.845   2.460  0.00  0.00    +0.020 A 
ATOM     28  C   LIG    1        2.030   3.047   3.723  0.00  0.00    +0.010 A 
ATOM     29  C   LIG    1        0.661   3.053   3.912  0.00  0.00    +0.020 A 
ATOM     30  C   LIG    1       -0.189   2.859   2.839  0.00  0.00    +0.020 A 
ATOM     31  C   LIG    1        0.331   2.658   1.569  0.00  0.00    +0.060 A 
ATOM     32  O   LIG    1       -0.518   2.475   0.521  0.00  0.00    -0.260 OA
ENDBRANCH  22  23
ENDBRANCH  18  22
ENDBRANCH   1  18
TORSDOF 9
