REMARK  Name = ZINCqH0000032qM2.0
REMARK                            x       y       z     vdW  Elec       q    Type
REMARK                         _______ _______ _______ _____ _____    ______ ____
ROOT
ATOM      1  C   LIG    1        4.758   0.025  -0.165  0.00  0.00    +0.510 C 
ATOM      2  N   LIG    1        3.614  -0.597  -0.509  0.00  0.00    -0.670 N 
ATOM      3  H   LIG    1        3.629  -1.532  -0.768  0.00  0.00    +0.420 HD
ATOM      4  O   LIG    1        4.729   1.166   0.247  0.00  0.00    -0.500 OA
ENDROOT
BRANCH   2   5
ATOM      5  C   LIG    1        2.403   0.104  -0.492  0.00  0.00    +0.140 A 
ATOM      6  C   LIG    1        1.221  -0.557  -0.185  0.00  0.00    +0.000 A 
ATOM      7  C   LIG    1        0.022   0.132  -0.167  0.00  0.00    +0.050 A 
ATOM      8  C   LIG    1       -0.008   1.481  -0.455  0.00  0.00    +0.020 A 
ATOM      9  C   LIG    1        1.175   2.155  -0.765  0.00  0.00    -0.010 A 
ATOM     10  C   LIG    1        2.384   1.460  -0.782  0.00  0.00    +0.080 A 
BRANCH   9  11
ATOM     11  C   LIG    1        1.146   3.601  -1.073  0.00  0.00    +0.110 A 
ATOM     12  N   LIG    1        2.183   4.331  -1.369  0.00  0.00    -0.460 NA
ATOM     13  C   LIG    1        1.966   5.602  -1.619  0.00  0.00    +0.220 A 
ATOM     14  C   LIG    1        0.694   6.005  -1.529  0.00  0.00    -0.070 A 
ATOM     15  S   LIG    1       -0.295   4.614  -1.091  0.00  0.00    +0.090 S 
ENDBRANCH   9  11
ENDBRANCH   2   5
BRANCH   1  16
ATOM     16  C   LIG    1        6.076  -0.696  -0.292  0.00  0.00    +0.260 C 
BRANCH  16  17
ATOM     17  N   LIG    1        7.168   0.281  -0.305  0.00  0.00    -0.700 N 
ATOM     18  H   LIG    1        7.047   1.149   0.111  0.00  0.00    +0.420 HD
ATOM     19  C   LIG    1        8.340  -0.027  -0.893  0.00  0.00    +0.610 C 
ATOM     20  O   LIG    1        8.492  -1.116  -1.414  0.00  0.00    -0.510 OA
BRANCH  19  21
ATOM     21  C   LIG    1        9.433   0.951  -0.906  0.00  0.00    -0.090 A 
ATOM     22  C   LIG    1       10.668   0.767  -1.460  0.00  0.00    +0.050 A 
ATOM     23  C   LIG    1       11.388   1.953  -1.243  0.00  0.00    -0.070 A 
ATOM     24  C   LIG    1       10.574   2.795  -0.569  0.00  0.00    +0.210 A 
ATOM     25  O   LIG    1        9.397   2.187  -0.367  0.00  0.00    -0.160 OA
ENDBRANCH  19  21
ENDBRANCH  16  17
BRANCH  16  27
ATOM     26  C   LIG    1        7.525  -2.474   0.698  0.00  0.00    +0.050 C 
ATOM     27  C   LIG    1        6.254  -1.645   0.894  0.00  0.00    -0.010 C 
ATOM     28  C   LIG    1        6.371  -0.832   2.185  0.00  0.00    +0.030 C 
ENDBRANCH  16  27
ENDBRANCH   1  16
TORSDOF 6
