REMARK  Name = ZINCqH0000001RZc.0
REMARK                            x       y       z     vdW  Elec       q    Type
REMARK                         _______ _______ _______ _____ _____    ______ ____
ROOT
ATOM      1  C   LIG    1       -2.508   0.985   0.019  0.00  0.00    +0.530 C 
ATOM      2  O   LIG    1       -3.571   1.573   0.028  0.00  0.00    -0.500 OA
ENDROOT
BRANCH   1   8
ATOM      3  N   LIG    1        2.186   3.968   0.002  0.00  0.00    -0.380 N 
ATOM      4  N   LIG    1        1.659   5.262   0.013  0.00  0.00    -0.230 NA
ATOM      5  C   LIG    1        0.358   5.216   0.025  0.00  0.00    +0.310 A 
ATOM      6  C   LIG    1       -0.034   3.809   0.022  0.00  0.00    -0.240 A 
ATOM      7  C   LIG    1       -1.260   3.142   0.030  0.00  0.00    +0.240 A 
ATOM      8  C   LIG    1       -1.244   1.746   0.018  0.00  0.00    -0.230 A 
ATOM      9  C   LIG    1       -0.013   1.076   0.008  0.00  0.00    +0.410 A 
ATOM     10  N   LIG    1        1.123   1.734   0.001  0.00  0.00    -0.510 NA
ATOM     11  C   LIG    1        1.163   3.062   0.007  0.00  0.00    +0.340 A 
BRANCH   3  13
ATOM     12  C   LIG    1        4.261   4.227  -1.267  0.00  0.00    +0.050 C 
ATOM     13  C   LIG    1        3.613   3.634  -0.014  0.00  0.00    +0.270 C 
ATOM     14  C   LIG    1        4.286   4.214   1.232  0.00  0.00    +0.050 C 
ENDBRANCH   3  13
ENDBRANCH   1   8
BRANCH   1  15
ATOM     15  O   LIG    1       -2.484  -0.362   0.012  0.00  0.00    -0.350 OA
BRANCH  15  16
ATOM     16  C   LIG    1       -3.765  -1.045   0.015  0.00  0.00    +0.230 C 
BRANCH  16  17
ATOM     17  C   LIG    1       -3.537  -2.558   0.005  0.00  0.00    +0.060 C 
BRANCH  17  18
ATOM     18  C   LIG    1       -4.887  -3.278   0.008  0.00  0.00    +0.200 C 
BRANCH  18  19
ATOM     19  O   LIG    1       -4.674  -4.691  -0.001  0.00  0.00    -0.310 OA
BRANCH  19  20
ATOM     20  C   LIG    1       -5.780  -5.481   0.000  0.00  0.00    +0.120 A 
ATOM     21  C   LIG    1       -7.043  -4.909   0.015  0.00  0.00    -0.040 A 
ATOM     22  C   LIG    1       -8.166  -5.714   0.012  0.00  0.00    +0.030 A 
ATOM     23  C   LIG    1       -8.031  -7.091   0.003  0.00  0.00    +0.060 A 
ATOM     24  C   LIG    1       -6.771  -7.665  -0.007  0.00  0.00    +0.030 A 
ATOM     25  F   LIG    1       -9.130  -7.878   0.005  0.00  0.00    -0.140 F 
ATOM     26  C   LIG    1       -5.646  -6.862  -0.008  0.00  0.00    +0.020 A 
ENDBRANCH  19  20
ENDBRANCH  18  19
ENDBRANCH  17  18
ENDBRANCH  16  17
ENDBRANCH  15  16
ENDBRANCH   1  15
TORSDOF 8
