REMARK  Name = ZINCpk00001AZiA0.0
REMARK                            x       y       z     vdW  Elec       q    Type
REMARK                         _______ _______ _______ _____ _____    ______ ____
ROOT
ATOM      1  C   LIG    1        5.321   1.166   2.566  0.00  0.00    +0.260 C 
ATOM      2  O   LIG    1        6.023  -0.078   2.401  0.00  0.00    -0.350 OA
ATOM      3  C   LIG    1        5.057  -1.051   1.950  0.00  0.00    +0.220 C 
ATOM      4  C   LIG    1        3.794  -0.721   2.787  0.00  0.00    +0.040 C 
ATOM      5  C   LIG    1        3.847   0.824   2.859  0.00  0.00    -0.030 C 
ENDROOT
BRANCH   1  10
ATOM      6  N   LIG    1        5.988   3.285   3.818  0.00  0.00    -0.310 N 
ATOM      7  N   LIG    1        6.595   3.592   5.043  0.00  0.00    -0.260 NA
ATOM      8  C   LIG    1        6.874   2.468   5.653  0.00  0.00    +0.230 A 
ATOM      9  C   LIG    1        6.451   1.411   4.841  0.00  0.00    -0.080 A 
ATOM     10  C   LIG    1        5.907   1.939   3.720  0.00  0.00    +0.070 A 
BRANCH   6  16
ATOM     11  C   LIG    1        4.732   5.277   3.249  0.00  0.00    +0.150 A 
ATOM     12  C   LIG    1        4.299   6.191   2.303  0.00  0.00    -0.060 A 
ATOM     13  C   LIG    1        4.660   6.038   0.977  0.00  0.00    +0.060 A 
ATOM     14  C   LIG    1        5.459   4.977   0.592  0.00  0.00    +0.000 A 
ATOM     15  C   LIG    1        5.900   4.064   1.531  0.00  0.00    +0.060 A 
ATOM     16  C   LIG    1        5.542   4.211   2.863  0.00  0.00    +0.110 A 
BRANCH  11  18
ATOM     17  C   LIG    1        3.542   6.539   4.875  0.00  0.00    +0.250 C 
ATOM     18  O   LIG    1        4.373   5.423   4.552  0.00  0.00    -0.300 OA
ENDBRANCH  11  18
ENDBRANCH   6  16
ENDBRANCH   1  10
BRANCH   5  19
ATOM     19  C   LIG    1        2.948   1.432   1.814  0.00  0.00    +0.520 C 
ATOM     20  N   LIG    1        1.732   1.901   2.161  0.00  0.00    -0.720 N 
ATOM     21  H   LIG    1        1.437   1.847   3.083  0.00  0.00    +0.410 HD
ATOM     22  O   LIG    1        3.317   1.500   0.661  0.00  0.00    -0.530 OA
BRANCH  20  23
ATOM     23  C   LIG    1        0.858   2.491   1.145  0.00  0.00    +0.240 C 
BRANCH  23  24
ATOM     24  C   LIG    1       -0.451   2.940   1.797  0.00  0.00    +0.200 C 
ATOM     25  C   LIG    1       -1.413   3.442   0.719  0.00  0.00    +0.020 C 
BRANCH  24  26
ATOM     26  O   LIG    1       -0.184   3.994   2.725  0.00  0.00    -0.560 OA
ATOM     27  H   LIG    1        0.219   4.777   2.326  0.00  0.00    +0.380 HD
ENDBRANCH  24  26
ENDBRANCH  23  24
ENDBRANCH  20  23
ENDBRANCH   5  19
TORSDOF 7
