REMARK  Name = ZINCb70000001CIG.0
REMARK                            x       y       z     vdW  Elec       q    Type
REMARK                         _______ _______ _______ _____ _____    ______ ____
ROOT
ATOM      1  C   LIG    1       -1.156  -0.901   0.008  0.00  0.00    +0.360 C 
ATOM      2  N   LIG    1        0.002  -0.004   0.002  0.00  0.00    -0.460 N 
ATOM      3  C   LIG    1       -0.016   1.351   0.009  0.00  0.00    +0.070 A 
ATOM      4  N   LIG    1        1.224   1.756  -0.000  0.00  0.00    -0.230 NA
ATOM      5  N   LIG    1        2.012   0.739  -0.013  0.00  0.00    -0.280 NA
ATOM      6  C   LIG    1        1.309  -0.361  -0.012  0.00  0.00    +0.260 A 
ENDROOT
BRANCH   6   7
ATOM      7  C   LIG    1        1.851  -1.767  -0.025  0.00  0.00    +0.010 C 
ATOM      8  C   LIG    1        3.359  -1.944   0.166  0.00  0.00    +0.080 C 
ATOM      9  C   LIG    1        2.729  -2.175  -1.210  0.00  0.00    +0.060 C 
ENDBRANCH   6   7
BRANCH   3  10
ATOM     10  C   LIG    1       -1.242   2.227   0.020  0.00  0.00    +0.420 C 
BRANCH  10  11
ATOM     11  N   LIG    1       -1.633   2.505   1.409  0.00  0.00    -0.640 N 
ATOM     12  H   LIG    1       -1.837   1.636   1.881  0.00  0.00    +0.430 HD
ATOM     13  H   LIG    1       -2.454   3.091   1.416  0.00  0.00    +0.450 HD
ATOM     14  H   LIG    1       -0.878   2.977   1.883  0.00  0.00    +0.440 HD
ENDBRANCH  10  11
ENDBRANCH   3  10
TORSDOF 3
