REMARK  Name = ZINCrg000000nQ5i.0
REMARK                            x       y       z     vdW  Elec       q    Type
REMARK                         _______ _______ _______ _____ _____    ______ ____
ROOT
ATOM      1  C   LIG    1       -2.483   4.735   4.311  0.00  0.00    -0.630 A 
ATOM      2  C   LIG    1       -2.312   6.074   3.984  0.00  0.00    +0.110 A 
ATOM      3  C   LIG    1       -1.667   6.434   2.837  0.00  0.00    +0.110 A 
ATOM      4  C   LIG    1       -1.169   5.448   1.975  0.00  0.00    +0.040 A 
ATOM      5  N   LIG    1       -0.507   5.500   0.802  0.00  0.00    -0.200 NA
ATOM      6  N   LIG    1       -0.250   4.311   0.381  0.00  0.00    +0.010 NA
ATOM      7  N   LIG    1       -0.761   3.374   1.291  0.00  0.00    -0.260 N 
ATOM      8  C   LIG    1       -1.343   4.093   2.308  0.00  0.00    +0.090 A 
ATOM      9  C   LIG    1       -2.002   3.747   3.482  0.00  0.00    +0.170 A 
ENDROOT
BRANCH   1  10
ATOM     10  S   LIG    1       -3.319   4.298   5.800  0.00  0.00    +2.690 S 
ATOM     11  O   LIG    1       -3.198   5.415   6.670  0.00  0.00    -0.940 OA
ATOM     12  O   LIG    1       -2.874   2.993   6.142  0.00  0.00    -0.940 OA
BRANCH  10  13
ATOM     13  N   LIG    1       -4.929   4.162   5.436  0.00  0.00    -0.990 NA
BRANCH  13  15
ATOM     14  C   LIG    1       -6.062   2.140   6.215  0.00  0.00    +0.010 C 
ATOM     15  C   LIG    1       -5.477   2.873   5.006  0.00  0.00    +0.280 C 
ENDBRANCH  13  15
BRANCH  13  16
ATOM     16  C   LIG    1       -5.806   5.332   5.543  0.00  0.00    +0.300 C 
ATOM     17  C   LIG    1       -5.927   6.005   4.174  0.00  0.00    +0.010 C 
ENDBRANCH  13  16
ENDBRANCH  10  13
ENDBRANCH   1  10
BRANCH   7  18
ATOM     18  O   LIG    1       -0.687   1.964   1.186  0.00  0.00    -0.080 OA
BRANCH  18  19
ATOM     19  C   LIG    1       -0.018   1.503   0.010  0.00  0.00    +0.230 C 
BRANCH  19  20
ATOM     20  C   LIG    1        0.002  -0.004   0.002  0.00  0.00    +0.530 C 
ATOM     21  N   LIG    1        0.585  -0.664  -1.018  0.00  0.00    -0.720 N 
ATOM     22  H   LIG    1        0.992  -0.170  -1.747  0.00  0.00    +0.400 HD
ATOM     23  O   LIG    1       -0.506  -0.622   0.913  0.00  0.00    -0.510 OA
BRANCH  21  24
ATOM     24  C   LIG    1        0.605  -2.129  -1.026  0.00  0.00    +0.240 C 
ATOM     25  C   LIG    1        1.801  -2.628  -0.213  0.00  0.00    +0.020 C 
BRANCH  24  26
ATOM     26  C   LIG    1        0.724  -2.630  -2.467  0.00  0.00    -0.020 C 
ATOM     27  C   LIG    1        0.619  -4.156  -2.487  0.00  0.00    +0.030 C 
ATOM     28  C   LIG    1        2.075  -2.204  -3.045  0.00  0.00    +0.020 C 
ENDBRANCH  24  26
ENDBRANCH  21  24
ENDBRANCH  19  20
ENDBRANCH  18  19
ENDBRANCH   7  18
TORSDOF 9
