REMARK  Name = ZINCrD000000fU0U.0
REMARK                            x       y       z     vdW  Elec       q    Type
REMARK                         _______ _______ _______ _____ _____    ______ ____
ROOT
ATOM      1  C   LIG    1       -2.652   2.636   4.071  0.00  0.00    -0.140 A 
ATOM      2  C   LIG    1       -1.846   3.649   3.749  0.00  0.00    -0.010 A 
ATOM      3  C   LIG    1       -1.377   3.631   2.447  0.00  0.00    +0.170 A 
ATOM      4  C   LIG    1       -1.809   2.608   1.708  0.00  0.00    -0.800 A 
ATOM      5  S   LIG    1       -2.860   1.583   2.677  0.00  0.00    +0.240 S 
ENDROOT
BRANCH   4   6
ATOM      6  S   LIG    1       -1.387   2.324   0.021  0.00  0.00    +2.710 S 
ATOM      7  O   LIG    1       -2.424   1.518  -0.522  0.00  0.00    -0.910 OA
ATOM      8  O   LIG    1       -1.019   3.586  -0.518  0.00  0.00    -0.930 OA
BRANCH   6   9
ATOM      9  N   LIG    1       -0.017   1.393   0.010  0.00  0.00    -0.930 N 
ATOM     10  C   LIG    1        1.353   1.914  -0.001  0.00  0.00    +0.290 C 
ATOM     11  C   LIG    1        2.257   0.671  -0.016  0.00  0.00    +0.120 C 
ATOM     12  C   LIG    1        1.297  -0.497  -0.013  0.00  0.00    -0.100 A 
ATOM     13  C   LIG    1        1.528  -1.860  -0.023  0.00  0.00    +0.040 A 
ATOM     14  C   LIG    1        0.466  -2.745  -0.018  0.00  0.00    +0.030 A 
ATOM     15  C   LIG    1       -0.831  -2.265  -0.003  0.00  0.00    +0.020 A 
ATOM     16  C   LIG    1       -1.067  -0.905   0.007  0.00  0.00    +0.070 A 
ATOM     17  F   LIG    1       -2.337  -0.443   0.022  0.00  0.00    -0.110 F 
ATOM     18  C   LIG    1        0.002  -0.004   0.002  0.00  0.00    +0.120 A 
ENDBRANCH   6   9
ENDBRANCH   4   6
BRANCH   1  19
ATOM     19  C   LIG    1       -3.287   2.425   5.421  0.00  0.00    +0.120 C 
BRANCH  19  20
ATOM     20  C   LIG    1       -4.644   3.131   5.462  0.00  0.00    +0.270 C 
BRANCH  20  22
ATOM     21  C   LIG    1       -6.469   3.461   7.042  0.00  0.00    +0.520 C 
ATOM     22  N   LIG    1       -5.261   2.926   6.775  0.00  0.00    -0.730 N 
ATOM     23  H   LIG    1       -4.801   2.406   7.452  0.00  0.00    +0.400 HD
ATOM     24  O   LIG    1       -7.045   4.111   6.196  0.00  0.00    -0.530 OA
BRANCH  21  26
ATOM     25  C   LIG    1       -8.461   3.955   8.434  0.00  0.00    +0.050 C 
ATOM     26  C   LIG    1       -7.104   3.250   8.392  0.00  0.00    -0.090 C 
ATOM     27  C   LIG    1       -6.196   3.828   9.479  0.00  0.00    +0.050 C 
ATOM     28  C   LIG    1       -7.301   1.752   8.636  0.00  0.00    +0.050 C 
ENDBRANCH  21  26
ENDBRANCH  20  22
ENDBRANCH  19  20
ENDBRANCH   1  19
TORSDOF 6
