REMARK  Name = ZINCqH0000004T2U.0
REMARK                            x       y       z     vdW  Elec       q    Type
REMARK                         _______ _______ _______ _____ _____    ______ ____
ROOT
ATOM      1  C   LIG    1       -4.717  -2.779  -2.697  0.00  0.00    +0.120 A 
ATOM      2  C   LIG    1       -5.275  -3.084  -3.930  0.00  0.00    +0.050 A 
ATOM      3  C   LIG    1       -4.643  -2.683  -5.092  0.00  0.00    +0.000 A 
ATOM      4  C   LIG    1       -3.459  -1.973  -5.030  0.00  0.00    +0.030 A 
ATOM      5  C   LIG    1       -2.899  -1.661  -3.805  0.00  0.00    -0.060 A 
ATOM      6  C   LIG    1       -3.526  -2.059  -2.635  0.00  0.00    +0.100 A 
ENDROOT
BRANCH   1   8
ATOM      7  C   LIG    1       -6.178  -4.255  -1.532  0.00  0.00    +0.510 C 
ATOM      8  N   LIG    1       -5.353  -3.189  -1.518  0.00  0.00    -0.670 N 
ATOM      9  H   LIG    1       -5.199  -2.706  -0.691  0.00  0.00    +0.410 HD
ATOM     10  O   LIG    1       -6.293  -4.919  -2.541  0.00  0.00    -0.510 OA
BRANCH   7  11
ATOM     11  C   LIG    1       -6.957  -4.621  -0.296  0.00  0.00    +0.150 C 
BRANCH  11  14
ATOM     12  N   LIG    1       -8.450  -7.916  -0.756  0.00  0.00    -0.370 N 
ATOM     13  C   LIG    1       -7.418  -7.127  -0.392  0.00  0.00    +0.240 A 
ATOM     14  C   LIG    1       -7.797  -5.841  -0.574  0.00  0.00    -0.230 A 
ATOM     15  C   LIG    1       -9.108  -5.844  -1.060  0.00  0.00    +0.240 A 
ATOM     16  N   LIG    1       -9.499  -7.087  -1.176  0.00  0.00    -0.290 NA
BRANCH  12  18
ATOM     17  C   LIG    1       -9.668  -9.852   0.108  0.00  0.00    +0.040 C 
ATOM     18  C   LIG    1       -8.471  -9.380  -0.719  0.00  0.00    +0.320 C 
ENDBRANCH  12  18
ENDBRANCH  11  14
ENDBRANCH   7  11
ENDBRANCH   1   8
BRANCH   6  19
ATOM     19  O   LIG    1       -2.977  -1.753  -1.429  0.00  0.00    -0.320 OA
BRANCH  19  20
ATOM     20  C   LIG    1       -1.751  -1.018  -1.443  0.00  0.00    +0.190 C 
BRANCH  20  21
ATOM     21  C   LIG    1       -1.290  -0.770  -0.005  0.00  0.00    +0.080 C 
BRANCH  21  22
ATOM     22  C   LIG    1        0.002   0.005  -0.019  0.00  0.00    -0.090 A 
ATOM     23  C   LIG    1       -0.020   1.387  -0.005  0.00  0.00    +0.010 A 
ATOM     24  C   LIG    1        1.165   2.098  -0.018  0.00  0.00    +0.000 A 
ATOM     25  C   LIG    1        2.373   1.427  -0.045  0.00  0.00    +0.000 A 
ATOM     26  C   LIG    1        2.396   0.045  -0.058  0.00  0.00    +0.000 A 
ATOM     27  C   LIG    1        1.210  -0.666  -0.044  0.00  0.00    +0.010 A 
ENDBRANCH  21  22
ENDBRANCH  20  21
ENDBRANCH  19  20
ENDBRANCH   6  19
TORSDOF 8
