REMARK  Name = ZINCpk00000e9cPp.0
REMARK                            x       y       z     vdW  Elec       q    Type
REMARK                         _______ _______ _______ _____ _____    ______ ____
ROOT
ATOM      1  C   LIG    1       -3.760   1.962   2.664  0.00  0.00    +0.610 C 
ATOM      2  N   LIG    1       -3.151   2.370   1.533  0.00  0.00    -0.710 N 
ATOM      3  H   LIG    1       -3.243   3.289   1.237  0.00  0.00    +0.410 HD
ATOM      4  O   LIG    1       -3.646   0.810   3.035  0.00  0.00    -0.540 OA
ENDROOT
BRANCH   1   7
ATOM      5  N   LIG    1       -5.838   3.767   5.002  0.00  0.00    -0.350 N 
ATOM      6  C   LIG    1       -5.232   2.629   4.610  0.00  0.00    +0.300 A 
ATOM      7  C   LIG    1       -4.567   2.914   3.452  0.00  0.00    -0.110 A 
ATOM      8  N   LIG    1       -4.766   4.209   3.154  0.00  0.00    -0.200 NA
ATOM      9  N   LIG    1       -5.520   4.745   4.049  0.00  0.00    -0.050 NA
BRANCH   5  10
ATOM     10  C   LIG    1       -6.669   3.948   6.195  0.00  0.00    +0.350 C 
BRANCH  10  11
ATOM     11  C   LIG    1       -6.101   5.086   7.045  0.00  0.00    -0.150 C 
ATOM     12  C   LIG    1       -7.104   5.665   8.061  0.00  0.00    +0.240 C 
ATOM     13  O   LIG    1       -6.606   6.953   7.647  0.00  0.00    -0.370 OA
ATOM     14  C   LIG    1       -6.168   6.465   6.363  0.00  0.00    +0.250 C 
BRANCH  11  16
ATOM     15  C   LIG    1       -4.240   5.946   8.475  0.00  0.00    +0.020 C 
ATOM     16  C   LIG    1       -4.731   4.758   7.644  0.00  0.00    +0.030 C 
ENDBRANCH  11  16
ENDBRANCH  10  11
ENDBRANCH   5  10
ENDBRANCH   1   7
BRANCH   2  17
ATOM     17  C   LIG    1       -2.350   1.425   0.751  0.00  0.00    +0.250 C 
ATOM     18  C   LIG    1       -0.873   1.442   1.225  0.00  0.00    +0.010 C 
ATOM     19  C   LIG    1       -0.113   0.918  -0.018  0.00  0.00    +0.040 C 
ATOM     20  C   LIG    1       -0.858   1.546  -1.214  0.00  0.00    +0.040 C 
ATOM     21  C   LIG    1       -2.280   1.869  -0.725  0.00  0.00    +0.230 C 
BRANCH  21  22
ATOM     22  N   LIG    1       -2.533   3.308  -0.829  0.00  0.00    -0.460 N 
ATOM     23  C   LIG    1       -3.526   3.908  -1.554  0.00  0.00    +0.120 A 
ATOM     24  C   LIG    1       -3.397   5.236  -1.367  0.00  0.00    +0.150 A 
ATOM     25  N   LIG    1       -2.348   5.441  -0.557  0.00  0.00    -0.480 NA
ATOM     26  C   LIG    1       -1.825   4.290  -0.231  0.00  0.00    +0.370 A 
ENDBRANCH  21  22
ENDBRANCH   2  17
TORSDOF 6
