REMARK  Name = ZINCrD000000ADiB.0
REMARK                            x       y       z     vdW  Elec       q    Type
REMARK                         _______ _______ _______ _____ _____    ______ ____
ROOT
ATOM      1  N   LIG    1       -2.501   5.581   0.916  0.00  0.00    -0.480 N 
ATOM      2  C   LIG    1       -3.829   5.547   1.290  0.00  0.00    +0.060 A 
ATOM      3  C   LIG    1       -4.995   5.105   0.680  0.00  0.00    +0.010 A 
ATOM      4  C   LIG    1       -6.197   5.208   1.347  0.00  0.00    +0.030 A 
ATOM      5  C   LIG    1       -6.248   5.744   2.626  0.00  0.00    +0.000 A 
ATOM      6  C   LIG    1       -5.110   6.178   3.245  0.00  0.00    +0.070 A 
ATOM      7  C   LIG    1       -3.880   6.084   2.588  0.00  0.00    +0.050 A 
ATOM      8  N   LIG    1       -2.609   6.420   2.927  0.00  0.00    -0.480 NA
ATOM      9  C   LIG    1       -1.803   6.125   1.949  0.00  0.00    +0.300 A 
ENDROOT
BRANCH   9  10
ATOM     10  C   LIG    1       -0.314   6.354   1.960  0.00  0.00    +0.070 C 
ATOM     11  C   LIG    1        0.315   5.568   3.112  0.00  0.00    +0.030 C 
ATOM     12  C   LIG    1        1.827   5.801   3.123  0.00  0.00    +0.010 C 
ATOM     13  C   LIG    1        2.113   7.292   3.307  0.00  0.00    +0.010 C 
ATOM     14  C   LIG    1        1.484   8.078   2.154  0.00  0.00    +0.010 C 
ATOM     15  C   LIG    1       -0.028   7.846   2.144  0.00  0.00    +0.030 C 
ENDBRANCH   9  10
BRANCH   1  16
ATOM     16  C   LIG    1       -1.946   5.122  -0.360  0.00  0.00    +0.330 C 
BRANCH  16  18
ATOM     17  O   LIG    1       -1.733   3.076   0.797  0.00  0.00    -0.510 OA
ATOM     18  C   LIG    1       -1.561   3.670  -0.247  0.00  0.00    +0.500 C 
ATOM     19  N   LIG    1       -1.026   3.030  -1.305  0.00  0.00    -0.700 N 
ATOM     20  H   LIG    1       -0.821   3.522  -2.116  0.00  0.00    +0.410 HD
BRANCH  19  21
ATOM     21  C   LIG    1       -0.753   1.593  -1.232  0.00  0.00    +0.160 C 
ATOM     22  C   LIG    1        0.197   1.089  -2.331  0.00  0.00    +0.070 C 
ATOM     23  C   LIG    1        1.353   1.409  -1.366  0.00  0.00    +0.260 C 
ATOM     24  F   LIG    1        2.374   0.453  -1.373  0.00  0.00    -0.180 F 
ATOM     25  F   LIG    1        1.833   2.718  -1.485  0.00  0.00    -0.180 F 
ATOM     26  C   LIG    1        0.345   1.225  -0.220  0.00  0.00    +0.070 C 
BRANCH  21  27
ATOM     27  C   LIG    1       -2.025   0.753  -1.088  0.00  0.00    +0.210 C 
BRANCH  27  28
ATOM     28  O   LIG    1       -2.921   1.061  -2.158  0.00  0.00    -0.570 OA
ATOM     29  H   LIG    1       -3.750   0.564  -2.131  0.00  0.00    +0.390 HD
ENDBRANCH  27  28
ENDBRANCH  21  27
ENDBRANCH  19  21
ENDBRANCH  16  18
ENDBRANCH   1  16
TORSDOF 6
