REMARK  Name = ZINCpe00000gMVxD.1
REMARK                            x       y       z     vdW  Elec       q    Type
REMARK                         _______ _______ _______ _____ _____    ______ ____
ROOT
ATOM      1  C   LIG    1        1.176   3.587   0.010  0.00  0.00    +0.100 C 
ATOM      2  C   LIG    1        1.168   2.080   0.002  0.00  0.00    +0.180 A 
ATOM      3  C   LIG    1       -0.017   1.406   0.010  0.00  0.00    -0.340 A 
ATOM      4  C   LIG    1        0.002  -0.004   0.002  0.00  0.00    +0.500 A 
ATOM      5  N   LIG    1        1.196  -0.636  -0.013  0.00  0.00    -0.610 NA
ATOM      6  C   LIG    1        2.346   0.094  -0.020  0.00  0.00    +0.380 A 
ATOM      7  O   LIG    1       -1.038  -0.640   0.009  0.00  0.00    -0.620 OA
ATOM      8  N   LIG    1        2.319   1.409  -0.013  0.00  0.00    -0.610 NA
ENDROOT
BRANCH   6   9
ATOM      9  C   LIG    1        3.650  -0.605  -0.035  0.00  0.00    +0.200 A 
ATOM     10  C   LIG    1        4.831   0.135  -0.049  0.00  0.00    +0.020 A 
ATOM     11  C   LIG    1        6.044  -0.535  -0.058  0.00  0.00    +0.040 A 
ATOM     12  C   LIG    1        6.035  -1.921  -0.065  0.00  0.00    -0.050 A 
ATOM     13  C   LIG    1        4.823  -2.593  -0.057  0.00  0.00    +0.240 A 
ATOM     14  N   LIG    1        3.685  -1.933  -0.043  0.00  0.00    -0.440 NA
ENDBRANCH   6   9
BRANCH   3  15
ATOM     15  C   LIG    1       -1.325   2.155   0.020  0.00  0.00    +0.120 C 
BRANCH  15  16
ATOM     16  C   LIG    1       -1.829   2.304  -1.392  0.00  0.00    +0.520 C 
ATOM     17  N   LIG    1       -2.991   2.945  -1.629  0.00  0.00    -0.740 N 
ATOM     18  H   LIG    1       -3.502   3.310  -0.890  0.00  0.00    +0.400 HD
ATOM     19  O   LIG    1       -1.189   1.848  -2.316  0.00  0.00    -0.510 OA
BRANCH  17  20
ATOM     20  C   LIG    1       -3.481   3.091  -3.001  0.00  0.00    +0.240 C 
ATOM     21  C   LIG    1       -2.848   4.329  -3.643  0.00  0.00    +0.050 C 
ATOM     22  C   LIG    1       -3.424   4.521  -5.047  0.00  0.00    +0.260 C 
ATOM     23  N   LIG    1       -4.878   4.700  -4.963  0.00  0.00    -0.390 N 
ATOM     24  C   LIG    1       -5.499   3.489  -4.416  0.00  0.00    +0.260 C 
ATOM     25  C   LIG    1       -5.416   4.961  -6.305  0.00  0.00    +0.310 C 
ATOM     26  H   LIG    1       -5.084   5.484  -4.361  0.00  0.00    +0.420 HD
ATOM     27  C   LIG    1       -5.003   3.258  -2.987  0.00  0.00    +0.050 C 
ENDBRANCH  17  20
ENDBRANCH  15  16
ENDBRANCH   3  15
TORSDOF 4
