REMARK  Name = ZINCnE000001Tviq.0
REMARK                            x       y       z     vdW  Elec       q    Type
REMARK                         _______ _______ _______ _____ _____    ______ ____
ROOT
ATOM      1  C   LIG    1       -0.013   1.086   0.008  0.00  0.00    +0.300 C 
ATOM      2  C   LIG    1        1.420   1.599  -0.003  0.00  0.00    +0.020 C 
ATOM      3  C   LIG    1        1.964   1.704   1.417  0.00  0.00    +0.120 C 
ATOM      4  O   LIG    1        1.145   2.590   2.179  0.00  0.00    -0.310 OA
ATOM      5  C   LIG    1       -0.180   2.280   2.230  0.00  0.00    +0.130 A 
ATOM      6  C   LIG    1       -0.928   2.701   3.321  0.00  0.00    -0.040 A 
ATOM      7  C   LIG    1       -2.272   2.396   3.399  0.00  0.00    +0.030 A 
ATOM      8  C   LIG    1       -2.870   1.668   2.387  0.00  0.00    -0.040 A 
ATOM      9  C   LIG    1       -2.128   1.251   1.300  0.00  0.00    +0.080 A 
ATOM     10  C   LIG    1        3.413   2.224   1.389  0.00  0.00    +0.060 C 
ATOM     11  C   LIG    1        4.119   1.442   2.525  0.00  0.00    +0.020 C 
ATOM     12  C   LIG    1        3.477   0.035   2.422  0.00  0.00    +0.020 C 
ATOM     13  C   LIG    1        1.999   0.318   2.076  0.00  0.00    +0.010 C 
ATOM     14  C   LIG    1       -0.777   1.556   1.213  0.00  0.00    -0.160 A 
ENDROOT
BRANCH   1  17
ATOM     15  O   LIG    1       -2.102  -0.161  -1.156  0.00  0.00    -0.630 OA
ATOM     16  C   LIG    1       -1.732   0.860  -1.703  0.00  0.00    +0.650 C 
ATOM     17  N   LIG    1       -0.695   1.558  -1.199  0.00  0.00    -0.730 N 
ATOM     18  H   LIG    1       -0.401   2.372  -1.636  0.00  0.00    +0.390 HD
ATOM     19  N   LIG    1       -2.360   1.294  -2.814  0.00  0.00    -0.670 NA
BRANCH  19  20
ATOM     20  C   LIG    1       -3.434   0.572  -3.336  0.00  0.00    +0.180 A 
ATOM     21  C   LIG    1       -4.176   0.861  -4.437  0.00  0.00    +0.010 A 
ATOM     22  N   LIG    1       -5.136   0.010  -4.712  0.00  0.00    -0.210 NA
ATOM     23  N   LIG    1       -5.301  -1.003  -3.944  0.00  0.00    -0.330 NA
ATOM     24  S   LIG    1       -4.114  -0.893  -2.733  0.00  0.00    +0.110 S 
ENDBRANCH  19  20
ENDBRANCH   1  17
TORSDOF 2
