REMARK  Name = ZINCnE00000hdc9S.0
REMARK                            x       y       z     vdW  Elec       q    Type
REMARK                         _______ _______ _______ _____ _____    ______ ____
ROOT
ATOM      1  N   LIG    1        1.356   2.033   0.000  0.00  0.00    -0.580 N 
ATOM      2  C   LIG    1        1.987   2.261   1.167  0.00  0.00    +0.570 C 
ATOM      3  C   LIG    1        3.304   2.932   1.159  0.00  0.00    -0.150 A 
ATOM      4  C   LIG    1        4.116   2.933   2.291  0.00  0.00    +0.070 A 
ATOM      5  C   LIG    1        5.348   3.556   2.246  0.00  0.00    -0.030 A 
ATOM      6  C   LIG    1        5.772   4.175   1.084  0.00  0.00    +0.030 A 
ATOM      7  C   LIG    1        4.965   4.183  -0.041  0.00  0.00    +0.000 A 
ATOM      8  C   LIG    1        3.732   3.568  -0.008  0.00  0.00    +0.020 A 
ATOM      9  C   LIG    1        2.837   3.576  -1.219  0.00  0.00    -0.040 C 
ATOM     10  O   LIG    1        1.482   1.916   2.217  0.00  0.00    -0.540 OA
ATOM     11  C   LIG    1        2.019   2.289  -1.277  0.00  0.00    +0.340 C 
ENDROOT
BRANCH  11  12
ATOM     12  C   LIG    1        2.933   1.135  -1.600  0.00  0.00    -0.110 A 
ATOM     13  C   LIG    1        3.676   0.528  -0.674  0.00  0.00    -0.030 A 
ATOM     14  S   LIG    1        4.608  -0.764  -1.420  0.00  0.00    +0.070 S 
ATOM     15  C   LIG    1        3.915  -0.396  -2.994  0.00  0.00    -0.060 A 
ATOM     16  C   LIG    1        3.061   0.622  -2.879  0.00  0.00    +0.020 A 
ENDBRANCH  11  12
BRANCH   9  17
ATOM     17  C   LIG    1        1.905   4.758  -1.140  0.00  0.00    +0.510 C 
ATOM     18  O   LIG    1        0.801   4.699  -1.655  0.00  0.00    -0.680 OA
ATOM     19  O   LIG    1        2.254   5.772  -0.561  0.00  0.00    -0.680 OA
ENDBRANCH   9  17
BRANCH   1  20
ATOM     20  C   LIG    1       -0.019   1.526   0.010  0.00  0.00    +0.320 C 
BRANCH  20  21
ATOM     21  C   LIG    1        0.002  -0.004   0.002  0.00  0.00    +0.070 C 
BRANCH  21  23
ATOM     22  C   LIG    1       -1.471  -2.431   0.003  0.00  0.00    +0.120 C 
ATOM     23  S   LIG    1       -1.700  -0.632   0.015  0.00  0.00    -0.260 S 
ENDBRANCH  21  23
ENDBRANCH  20  21
ENDBRANCH   1  20
TORSDOF 5
