REMARK  Name = ZINCrD0000075seq.0
REMARK                            x       y       z     vdW  Elec       q    Type
REMARK                         _______ _______ _______ _____ _____    ______ ____
ROOT
ATOM      1  C   LIG    1        1.083   1.913   0.002  0.00  0.00    -0.050 A 
ATOM      2  C   LIG    1       -0.013   1.076   0.008  0.00  0.00    +0.090 A 
ATOM      3  C   LIG    1       -1.146   1.894   0.017  0.00  0.00    +0.000 A 
ATOM      4  C   LIG    1       -0.707   3.188   0.025  0.00  0.00    +0.050 A 
ATOM      5  O   LIG    1        0.636   3.187   0.013  0.00  0.00    -0.130 OA
ENDROOT
BRANCH   4   6
ATOM      6  C   LIG    1       -1.567   4.388   0.039  0.00  0.00    +0.030 A 
ATOM      7  C   LIG    1       -1.337   5.405   0.968  0.00  0.00    +0.090 A 
ATOM      8  C   LIG    1       -2.144   6.524   0.975  0.00  0.00    +0.120 A 
ATOM      9  C   LIG    1       -3.180   6.640   0.066  0.00  0.00    -0.020 A 
ATOM     10  C   LIG    1       -3.416   5.637  -0.857  0.00  0.00    +0.130 A 
ATOM     11  C   LIG    1       -2.612   4.514  -0.880  0.00  0.00    -0.020 A 
ATOM     12 CL   LIG    1       -2.904   3.259  -2.044  0.00  0.00    -0.020 Cl
BRANCH   9  13
ATOM     13  N   LIG    1       -4.042   7.844   0.080  0.00  0.00    +0.020 N 
ATOM     14  O   LIG    1       -4.955   7.949  -0.719  0.00  0.00    -0.140 OA
ATOM     15  O   LIG    1       -3.837   8.729   0.892  0.00  0.00    -0.140 OA
ENDBRANCH   9  13
ENDBRANCH   4   6
BRANCH   1  16
ATOM     16  C   LIG    1        2.485   1.494  -0.013  0.00  0.00    +0.560 C 
ATOM     17  O   LIG    1        2.766   0.311  -0.022  0.00  0.00    -0.470 OA
BRANCH  16  18
ATOM     18  O   LIG    1        3.466   2.421  -0.018  0.00  0.00    -0.320 OA
BRANCH  18  19
ATOM     19  C   LIG    1        4.811   1.941  -0.033  0.00  0.00    +0.270 C 
BRANCH  19  21
ATOM     20  O   LIG    1        5.330   4.243  -0.026  0.00  0.00    -0.500 OA
ATOM     21  C   LIG    1        5.762   3.110  -0.035  0.00  0.00    +0.530 C 
ATOM     22  N   LIG    1        7.093   2.897  -0.049  0.00  0.00    -0.730 N 
ATOM     23  H   LIG    1        7.439   1.990  -0.057  0.00  0.00    +0.410 HD
BRANCH  22  24
ATOM     24  C   LIG    1        8.017   4.033  -0.052  0.00  0.00    +0.320 C 
BRANCH  24  25
ATOM     25  C   LIG    1        9.458   3.519  -0.068  0.00  0.00    +0.450 C 
ATOM     26  F   LIG    1        9.686   2.735   1.068  0.00  0.00    -0.180 F 
ATOM     27  F   LIG    1       10.340   4.605  -0.071  0.00  0.00    -0.170 F 
ATOM     28  F   LIG    1        9.665   2.747  -1.216  0.00  0.00    -0.180 F 
ENDBRANCH  24  25
ENDBRANCH  22  24
ENDBRANCH  19  21
ENDBRANCH  18  19
ENDBRANCH  16  18
ENDBRANCH   1  16
TORSDOF 8
