REMARK  Name = ZINCvU0000000GEa.0
REMARK                            x       y       z     vdW  Elec       q    Type
REMARK                         _______ _______ _______ _____ _____    ______ ____
ROOT
ATOM      1  P   LIG    1        3.112   3.776  -0.007  0.00  0.00    +0.990 P 
ENDROOT
BRANCH   1   8
ATOM      2  C   LIG    1       -0.773   3.123  -1.223  0.00  0.00    -0.050 C 
ATOM      3  C   LIG    1       -0.753   1.593  -1.232  0.00  0.00    +0.020 C 
ATOM      4  C   LIG    1       -0.013   1.086   0.008  0.00  0.00    -0.010 C 
ATOM      5  C   LIG    1       -0.729   1.579   1.267  0.00  0.00    +0.010 C 
ATOM      6  C   LIG    1       -0.750   3.109   1.275  0.00  0.00    -0.020 C 
ATOM      7  C   LIG    1        0.686   3.639   1.264  0.00  0.00    +0.050 C 
ATOM      8  C   LIG    1        1.402   3.145   0.006  0.00  0.00    -0.350 C 
ATOM      9  C   LIG    1        1.423   1.615  -0.003  0.00  0.00    +0.040 C 
ATOM     10  C   LIG    1        0.662   3.652  -1.234  0.00  0.00    +0.010 C 
ATOM     11  C   LIG    1       -1.490   3.616   0.036  0.00  0.00    +0.020 C 
BRANCH   2  13
ATOM     12  C   LIG    1       -1.534   5.159  -2.454  0.00  0.00    +0.000 C 
ATOM     13  C   LIG    1       -1.513   3.629  -2.463  0.00  0.00    +0.000 C 
ENDBRANCH   2  13
ENDBRANCH   1   8
BRANCH   1  14
ATOM     14  N   LIG    1        2.967   5.135  -0.914  0.00  0.00    -0.850 N 
ATOM     15  H   LIG    1        2.459   5.115  -1.740  0.00  0.00    +0.390 HD
ATOM     16  C   LIG    1        3.555   6.279  -0.511  0.00  0.00    +0.570 C 
ATOM     17  O   LIG    1        4.192   6.304   0.523  0.00  0.00    -0.490 OA
BRANCH  16  18
ATOM     18  C   LIG    1        3.424   7.505  -1.329  0.00  0.00    -0.140 A 
ATOM     19  C   LIG    1        2.698   7.478  -2.520  0.00  0.00    +0.030 A 
ATOM     20  C   LIG    1        2.576   8.626  -3.276  0.00  0.00    +0.000 A 
ATOM     21  C   LIG    1        3.180   9.799  -2.860  0.00  0.00    +0.040 A 
ATOM     22  C   LIG    1        3.906   9.831  -1.682  0.00  0.00    +0.000 A 
ATOM     23  C   LIG    1        4.031   8.691  -0.915  0.00  0.00    +0.080 A 
ENDBRANCH  16  18
ENDBRANCH   1  14
BRANCH   1  24
ATOM     24  N   LIG    1        3.848   2.747  -1.051  0.00  0.00    -0.840 N 
ATOM     25  H   LIG    1        3.417   2.516  -1.889  0.00  0.00    +0.380 HD
ATOM     26  C   LIG    1        5.050   2.222  -0.745  0.00  0.00    +0.570 C 
ATOM     27  O   LIG    1        5.590   2.511   0.305  0.00  0.00    -0.490 OA
BRANCH  26  28
ATOM     28  C   LIG    1        5.713   1.294  -1.685  0.00  0.00    -0.140 A 
ATOM     29  C   LIG    1        5.093   0.955  -2.889  0.00  0.00    +0.030 A 
ATOM     30  C   LIG    1        5.720   0.093  -3.765  0.00  0.00    +0.000 A 
ATOM     31  C   LIG    1        6.955  -0.445  -3.448  0.00  0.00    +0.040 A 
ATOM     32  C   LIG    1        7.572  -0.118  -2.253  0.00  0.00    +0.000 A 
ATOM     33  C   LIG    1        6.959   0.748  -1.371  0.00  0.00    +0.080 A 
ENDBRANCH  26  28
ENDBRANCH   1  24
TORSDOF 6
