REMARK  Name = ZINCnE000001SBan.0
REMARK                            x       y       z     vdW  Elec       q    Type
REMARK                         _______ _______ _______ _____ _____    ______ ____
ROOT
ATOM      1  C   LIG    1       -0.002  -4.178  -0.019  0.00  0.00    +0.120 A 
ATOM      2  N   LIG    1        1.061  -4.958  -0.033  0.00  0.00    -0.220 NA
ATOM      3  N   LIG    1        0.624  -6.289  -0.035  0.00  0.00    -0.330 N 
ATOM      4  C   LIG    1       -0.735  -6.286  -0.022  0.00  0.00    +0.260 A 
ATOM      5  C   LIG    1       -1.148  -5.000  -0.006  0.00  0.00    -0.190 A 
ATOM      6 BR   LIG    1       -2.943  -4.407   0.023  0.00  0.00    +0.010 Br
ENDROOT
BRANCH   3   7
ATOM      7  C   LIG    1        1.445  -7.425  -0.048  0.00  0.00    +0.160 A 
ATOM      8  C   LIG    1        0.878  -8.693  -0.042  0.00  0.00    +0.020 A 
ATOM      9  C   LIG    1        1.689  -9.811  -0.060  0.00  0.00    +0.010 A 
ATOM     10  C   LIG    1        3.066  -9.668  -0.072  0.00  0.00    +0.080 A 
ATOM     11  C   LIG    1        3.634  -8.405  -0.072  0.00  0.00    +0.020 A 
ATOM     12  F   LIG    1        3.858 -10.763  -0.085  0.00  0.00    -0.140 F 
ATOM     13  C   LIG    1        2.826  -7.284  -0.060  0.00  0.00    +0.060 A 
ENDBRANCH   3   7
BRANCH   1  15
ATOM     14  O   LIG    1       -1.047  -2.082   0.002  0.00  0.00    -0.520 OA
ATOM     15  C   LIG    1        0.006  -2.698  -0.012  0.00  0.00    +0.520 C 
BRANCH  15  16
ATOM     16  N   LIG    1        1.164  -2.037  -0.020  0.00  0.00    -0.670 NA
ATOM     17  C   LIG    1        1.171  -0.698  -0.013  0.00  0.00    +0.330 A 
ATOM     18  C   LIG    1        2.390   0.008  -0.021  0.00  0.00    -0.010 A 
ATOM     19  C   LIG    1        2.337   1.375  -0.013  0.00  0.00    +0.040 A 
ATOM     20  C   LIG    1        1.078   1.995   0.003  0.00  0.00    +0.010 A 
ATOM     21  N   LIG    1       -0.015   1.280   0.009  0.00  0.00    -0.210 NA
ATOM     22 CL   LIG    1        0.972   3.728   0.012  0.00  0.00    -0.070 Cl
ATOM     23  N   LIG    1        0.002  -0.004   0.002  0.00  0.00    -0.290 NA
ENDBRANCH  15  16
ENDBRANCH   1  15
TORSDOF 3
