REMARK  Name = ZINCkj000005guui.0
REMARK                            x       y       z     vdW  Elec       q    Type
REMARK                         _______ _______ _______ _____ _____    ______ ____
ROOT
ATOM      1  C   LIG    1       -0.014   1.209   0.009  0.00  0.00    +0.500 C 
ATOM      2  N   LIG    1       -1.191   1.867   0.018  0.00  0.00    -0.590 N 
ATOM      3  C   LIG    1       -1.233   3.337   0.032  0.00  0.00    +0.280 C 
ATOM      4  C   LIG    1       -2.163   3.803  -1.099  0.00  0.00    +0.210 C 
ATOM      5  N   LIG    1       -3.468   3.143  -0.957  0.00  0.00    -0.480 N 
ATOM      6  C   LIG    1       -3.347   1.687  -1.105  0.00  0.00    +0.210 C 
ATOM      7  C   LIG    1       -2.466   1.133   0.020  0.00  0.00    +0.320 C 
ATOM      8  O   LIG    1        0.002  -0.004   0.002  0.00  0.00    -0.520 OA
ENDROOT
BRANCH   5   9
ATOM      9  C   LIG    1       -4.394   3.664  -1.866  0.00  0.00    +0.110 A 
ATOM     10  C   LIG    1       -5.714   3.237  -1.834  0.00  0.00    +0.000 A 
ATOM     11  C   LIG    1       -6.629   3.755  -2.735  0.00  0.00    +0.130 A 
ATOM     12  C   LIG    1       -6.228   4.697  -3.666  0.00  0.00    +0.010 A 
ATOM     13  C   LIG    1       -4.913   5.125  -3.699  0.00  0.00    +0.060 A 
ATOM     14  F   LIG    1       -7.914   3.340  -2.704  0.00  0.00    -0.130 F 
ATOM     15  C   LIG    1       -3.996   4.615  -2.799  0.00  0.00    +0.040 A 
ATOM     16  F   LIG    1       -2.713   5.037  -2.830  0.00  0.00    -0.130 F 
ENDBRANCH   5   9
BRANCH   1  17
ATOM     17  C   LIG    1        1.280   1.980   0.001  0.00  0.00    +0.170 C 
BRANCH  17  18
ATOM     18  N   LIG    1        2.362   1.115  -0.488  0.00  0.00    -0.620 N 
ATOM     19  H   LIG    1        2.149   0.806  -1.425  0.00  0.00    +0.440 HD
ATOM     20  H   LIG    1        2.452   0.313   0.118  0.00  0.00    +0.440 HD
ATOM     21  H   LIG    1        3.229   1.631  -0.494  0.00  0.00    +0.440 HD
ENDBRANCH  17  18
BRANCH  17  23
ATOM     22  C   LIG    1        2.850   3.335   1.393  0.00  0.00    +0.060 C 
ATOM     23  C   LIG    1        1.604   2.448   1.421  0.00  0.00    +0.070 C 
ENDBRANCH  17  23
ENDBRANCH   1  17
TORSDOF 4
