REMARK  Name = ZINCrH000004spOy.0
REMARK                            x       y       z     vdW  Elec       q    Type
REMARK                         _______ _______ _______ _____ _____    ______ ____
ROOT
ATOM      1  N   LIG    1       -1.063  -0.740   0.119  0.00  0.00    -0.740 N 
ATOM      2  H   LIG    1       -1.925  -0.302   0.199  0.00  0.00    +0.390 HD
ATOM      3  C   LIG    1        0.059  -0.002   0.008  0.00  0.00    +0.720 C 
ATOM      4  N   LIG    1       -0.016   1.344   0.009  0.00  0.00    -0.680 N 
ATOM      5  H   LIG    1       -0.882   1.781   0.018  0.00  0.00    +0.410 HD
ATOM      6  O   LIG    1        1.139  -0.551  -0.092  0.00  0.00    -0.550 OA
ENDROOT
BRANCH   4   7
ATOM      7  C   LIG    1        1.155   2.110  -0.008  0.00  0.00    +0.220 A 
ATOM      8  C   LIG    1        2.264   1.667  -0.716  0.00  0.00    -0.020 A 
ATOM      9  C   LIG    1        3.423   2.424  -0.734  0.00  0.00    +0.150 A 
ATOM     10  C   LIG    1        3.478   3.624  -0.047  0.00  0.00    -0.080 A 
ATOM     11  C   LIG    1        2.369   4.071   0.662  0.00  0.00    +0.160 A 
ATOM     12  F   LIG    1        4.501   1.992  -1.423  0.00  0.00    -0.130 F 
ATOM     13  C   LIG    1        1.206   3.315   0.677  0.00  0.00    -0.040 A 
BRANCH  11  14
ATOM     14  N   LIG    1        2.425   5.283   1.354  0.00  0.00    -0.480 N 
ATOM     15  C   LIG    1        1.355   6.190   0.916  0.00  0.00    +0.170 C 
ATOM     16  C   LIG    1        1.416   7.479   1.740  0.00  0.00    +0.220 C 
ATOM     17  O   LIG    1        2.713   8.066   1.603  0.00  0.00    -0.380 OA
ATOM     18  C   LIG    1        3.779   7.209   2.022  0.00  0.00    +0.230 C 
ATOM     19  C   LIG    1        3.742   5.918   1.200  0.00  0.00    +0.170 C 
ENDBRANCH  11  14
ENDBRANCH   4   7
BRANCH   1  20
ATOM     20  C   LIG    1       -0.982  -2.203   0.118  0.00  0.00    +0.280 C 
ATOM     21  C   LIG    1       -0.118  -2.666   1.292  0.00  0.00    +0.070 C 
ATOM     22  C   LIG    1       -0.355  -2.677  -1.195  0.00  0.00    +0.070 C 
BRANCH  20  27
ATOM     23  C   LIG    1       -4.366  -5.816   0.459  0.00  0.00    +0.160 C 
ATOM     24  C   LIG    1       -3.906  -4.382   0.408  0.00  0.00    +0.060 A 
ATOM     25  C   LIG    1       -4.750  -3.349   0.484  0.00  0.00    -0.220 A 
ATOM     26  S   LIG    1       -3.802  -1.866   0.393  0.00  0.00    +0.110 S 
ATOM     27  C   LIG    1       -2.366  -2.783   0.253  0.00  0.00    +0.040 A 
ATOM     28  C   LIG    1       -6.247  -3.437   0.629  0.00  0.00    +0.150 C 
ATOM     29  N   LIG    1       -2.638  -4.044   0.284  0.00  0.00    -0.450 NA
ENDBRANCH  20  27
ENDBRANCH   1  20
TORSDOF 4
