REMARK  Name = ZINC9u0000000C5c.0
REMARK                            x       y       z     vdW  Elec       q    Type
REMARK                         _______ _______ _______ _____ _____    ______ ____
ROOT
ATOM      1  C   LIG    1        1.274  -0.435  -0.012  0.00  0.00    +0.020 A 
ATOM      2  C   LIG    1        2.086   0.638  -0.014  0.00  0.00    -0.060 A 
ATOM      3  C   LIG    1        1.254   1.781  -0.000  0.00  0.00    -0.060 A 
ATOM      4  C   LIG    1       -0.016   1.339   0.009  0.00  0.00    +0.150 A 
ATOM      5  O   LIG    1        0.002  -0.004   0.002  0.00  0.00    -0.180 OA
ENDROOT
BRANCH   1   9
ATOM      6  C   LIG    1        0.397  -2.082  -2.274  0.00  0.00    +0.050 C 
ATOM      7  C   LIG    1        1.264  -2.743  -1.201  0.00  0.00    -0.030 C 
ATOM      8  C   LIG    1        0.644  -2.946   0.183  0.00  0.00    +0.030 C 
ATOM      9  C   LIG    1        1.717  -1.875  -0.025  0.00  0.00    +0.040 C 
ENDBRANCH   1   9
TORSDOF 1
