REMARK  Name = ZINCpe00000xXcxg.0
REMARK                            x       y       z     vdW  Elec       q    Type
REMARK                         _______ _______ _______ _____ _____    ______ ____
ROOT
ATOM      1  C   LIG    1       -1.413  -2.041   0.005  0.00  0.00    +0.520 C 
ATOM      2  N   LIG    1       -2.571  -2.730   0.012  0.00  0.00    -0.610 N 
ATOM      3  C   LIG    1       -2.567  -4.199  -0.002  0.00  0.00    +0.280 C 
ATOM      4  C   LIG    1       -3.437  -4.688  -1.159  0.00  0.00    -0.040 C 
ATOM      5  C   LIG    1       -4.830  -4.064  -1.046  0.00  0.00    +0.040 C 
ATOM      6  C   LIG    1       -4.716  -2.540  -1.135  0.00  0.00    +0.240 C 
ATOM      7  C   LIG    1       -3.555  -6.213  -1.103  0.00  0.00    +0.030 C 
ATOM      8  C   LIG    1       -3.861  -2.027   0.028  0.00  0.00    +0.260 C 
ATOM      9  O   LIG    1       -0.354  -2.632  -0.009  0.00  0.00    -0.530 OA
ENDROOT
BRANCH   6  10
ATOM     10  N   LIG    1       -4.088  -2.170  -2.405  0.00  0.00    -0.720 N 
ATOM     11  H   LIG    1       -3.506  -2.799  -2.860  0.00  0.00    +0.400 HD
ATOM     12  C   LIG    1       -4.318  -0.955  -2.942  0.00  0.00    +0.560 C 
ATOM     13  O   LIG    1       -5.047  -0.167  -2.372  0.00  0.00    -0.520 OA
BRANCH  12  14
ATOM     14  C   LIG    1       -3.685  -0.582  -4.221  0.00  0.00    -0.170 A 
ATOM     15  C   LIG    1       -2.842  -1.483  -4.877  0.00  0.00    +0.060 A 
ATOM     16  C   LIG    1       -2.258  -1.130  -6.074  0.00  0.00    -0.010 A 
ATOM     17  C   LIG    1       -2.493   0.118  -6.626  0.00  0.00    +0.060 A 
ATOM     18  C   LIG    1       -3.320   1.020  -5.986  0.00  0.00    -0.020 A 
ATOM     19  C   LIG    1       -3.921   0.680  -4.783  0.00  0.00    +0.170 A 
BRANCH  19  20
ATOM     20  O   LIG    1       -4.733   1.565  -4.153  0.00  0.00    -0.480 OA
ATOM     21  H   LIG    1       -4.274   2.147  -3.532  0.00  0.00    +0.400 HD
ENDBRANCH  19  20
ENDBRANCH  12  14
ENDBRANCH   6  10
BRANCH   1  22
ATOM     22  C   LIG    1       -1.433  -0.534   0.013  0.00  0.00    +0.050 C 
BRANCH  22  23
ATOM     23  C   LIG    1        0.002  -0.004   0.002  0.00  0.00    +0.290 C 
BRANCH  23  26
ATOM     24  C   LIG    1        1.120   3.657   0.011  0.00  0.00    +0.110 C 
ATOM     25  C   LIG    1        1.140   2.151   0.003  0.00  0.00    +0.510 C 
ATOM     26  N   LIG    1       -0.018   1.461   0.010  0.00  0.00    -0.730 N 
ATOM     27  H   LIG    1       -0.864   1.934   0.017  0.00  0.00    +0.400 HD
ATOM     28  O   LIG    1        2.199   1.558  -0.011  0.00  0.00    -0.540 OA
ENDBRANCH  23  26
ENDBRANCH  22  23
ENDBRANCH   1  22
TORSDOF 6
