REMARK  Name = ZINCpe00000bK8uI.0
REMARK                            x       y       z     vdW  Elec       q    Type
REMARK                         _______ _______ _______ _____ _____    ______ ____
ROOT
ATOM      1  N   LIG    1        2.397  -2.640  -0.035  0.00  0.00    -0.460 N 
ATOM      2  C   LIG    1        2.506  -3.576   1.092  0.00  0.00    +0.210 C 
ATOM      3  C   LIG    1        3.784  -4.408   0.939  0.00  0.00    +0.300 C 
ATOM      4  N   LIG    1        4.922  -3.490   0.781  0.00  0.00    -0.620 N 
ATOM      5  C   LIG    1        4.828  -2.435  -0.239  0.00  0.00    +0.290 C 
ATOM      6  C   LIG    1        6.022  -3.613   1.550  0.00  0.00    +0.520 C 
ATOM      7  O   LIG    1        6.952  -2.848   1.405  0.00  0.00    -0.540 OA
ATOM      8  C   LIG    1        3.509  -1.681  -0.040  0.00  0.00    +0.220 C 
ENDROOT
BRANCH   1  13
ATOM      9  C   LIG    1        0.002  -0.004   0.002  0.00  0.00    +0.390 A 
ATOM     10  C   LIG    1       -1.190  -0.727   0.009  0.00  0.00    -0.130 A 
ATOM     11  C   LIG    1       -1.124  -2.108   0.002  0.00  0.00    +0.230 A 
ATOM     12  N   LIG    1        0.061  -2.699  -0.013  0.00  0.00    -0.550 NA
ATOM     13  C   LIG    1        1.177  -1.986  -0.020  0.00  0.00    +0.530 A 
ATOM     14  C   LIG    1       -2.386  -2.931   0.010  0.00  0.00    +0.150 C 
ATOM     15  N   LIG    1        1.155  -0.661  -0.018  0.00  0.00    -0.610 NA
BRANCH   9  17
ATOM     16  C   LIG    1        1.248   2.017   0.001  0.00  0.00    +0.260 C 
ATOM     17  O   LIG    1       -0.016   1.351   0.009  0.00  0.00    -0.300 OA
ENDBRANCH   9  17
ENDBRANCH   1  13
BRANCH   6  18
ATOM     18  C   LIG    1        6.097  -4.702   2.589  0.00  0.00    +0.060 C 
BRANCH  18  19
ATOM     19  C   LIG    1        7.441  -4.620   3.317  0.00  0.00    +0.130 C 
BRANCH  19  20
ATOM     20  C   LIG    1        7.515  -5.709   4.356  0.00  0.00    -0.240 A 
ATOM     21  C   LIG    1        7.119  -5.607   5.646  0.00  0.00    +0.230 A 
ATOM     22  N   LIG    1        7.349  -6.795   6.242  0.00  0.00    -0.380 N 
ATOM     23  N   LIG    1        7.913  -7.654   5.290  0.00  0.00    -0.300 NA
ATOM     24  C   LIG    1        7.064  -7.128   7.640  0.00  0.00    +0.360 C 
ATOM     25  C   LIG    1        8.013  -7.002   4.160  0.00  0.00    +0.230 A 
ENDBRANCH  19  20
ENDBRANCH  18  19
ENDBRANCH   6  18
TORSDOF 5
