REMARK  Name = ZINCrH000004rhMS.0
REMARK                            x       y       z     vdW  Elec       q    Type
REMARK                         _______ _______ _______ _____ _____    ______ ____
ROOT
ATOM      1  C   LIG    1       -0.590   0.717   2.453  0.00  0.00    +0.280 C 
ENDROOT
BRANCH   1   5
ATOM      2  N   LIG    1       -2.187   1.900  -0.709  0.00  0.00    -0.490 N 
ATOM      3  C   LIG    1       -0.820   1.627  -1.191  0.00  0.00    +0.200 C 
ATOM      4  C   LIG    1       -0.013   1.086   0.008  0.00  0.00    +0.010 C 
ATOM      5  C   LIG    1       -0.801   1.617   1.234  0.00  0.00    -0.010 C 
ATOM      6  C   LIG    1       -2.265   1.531   0.720  0.00  0.00    +0.200 C 
BRANCH   2  14
ATOM      7  C   LIG    1       -4.168   3.390  -2.104  0.00  0.00    +0.100 C 
ATOM      8  C   LIG    1       -4.117   1.885  -2.158  0.00  0.00    -0.050 A 
ATOM      9  C   LIG    1       -5.047   1.188  -2.904  0.00  0.00    +0.040 A 
ATOM     10  C   LIG    1       -5.005  -0.193  -2.949  0.00  0.00    +0.020 A 
ATOM     11  C   LIG    1       -4.028  -0.882  -2.251  0.00  0.00    -0.030 A 
ATOM     12  C   LIG    1       -3.091  -0.190  -1.507  0.00  0.00    -0.010 A 
ATOM     13 CL   LIG    1       -3.979  -2.616  -2.311  0.00  0.00    -0.070 Cl
ATOM     14  C   LIG    1       -3.132   1.198  -1.460  0.00  0.00    +0.090 A 
ENDBRANCH   2  14
ENDBRANCH   1   5
BRANCH   1  15
ATOM     15  N   LIG    1        0.808   0.800   2.885  0.00  0.00    -0.710 N 
ATOM     16  H   LIG    1        1.431   1.369   2.406  0.00  0.00    +0.410 HD
ATOM     17  C   LIG    1        1.228   0.087   3.949  0.00  0.00    +0.610 C 
ATOM     18  O   LIG    1        0.447  -0.626   4.550  0.00  0.00    -0.530 OA
BRANCH  17  19
ATOM     19  C   LIG    1        2.634   0.171   4.383  0.00  0.00    -0.070 A 
ATOM     20  C   LIG    1        3.197  -0.488   5.433  0.00  0.00    +0.050 A 
ATOM     21  O   LIG    1        4.489  -0.128   5.474  0.00  0.00    -0.180 OA
ATOM     22  C   LIG    1        4.716   0.734   4.472  0.00  0.00    +0.440 A 
ATOM     23  N   LIG    1        3.615   0.917   3.807  0.00  0.00    -0.470 NA
BRANCH  20  24
ATOM     24  C   LIG    1        2.501  -1.441   6.371  0.00  0.00    +0.280 C 
ATOM     25  C   LIG    1        2.904  -2.891   6.040  0.00  0.00    +0.020 C 
ATOM     26  C   LIG    1        3.527  -3.421   7.354  0.00  0.00    +0.020 C 
ATOM     27  C   LIG    1        2.933  -2.453   8.409  0.00  0.00    +0.210 C 
ATOM     28  O   LIG    1        2.911  -1.181   7.724  0.00  0.00    -0.370 OA
ENDBRANCH  20  24
ENDBRANCH  17  19
ENDBRANCH   1  15
TORSDOF 5
