REMARK  Name = ZINCnE000004Rexk.0
REMARK                            x       y       z     vdW  Elec       q    Type
REMARK                         _______ _______ _______ _____ _____    ______ ____
ROOT
ATOM      1  C   LIG    1        0.040  -2.775  -0.014  0.00  0.00    -0.100 A 
ATOM      2  C   LIG    1       -1.178  -2.092   0.002  0.00  0.00    +0.090 A 
ATOM      3  C   LIG    1       -1.194  -0.714   0.010  0.00  0.00    -0.070 A 
ATOM      4  C   LIG    1        0.002  -0.004   0.002  0.00  0.00    +0.250 A 
ATOM      5  C   LIG    1        1.217  -0.681  -0.019  0.00  0.00    -0.070 A 
ATOM      6  C   LIG    1        1.239  -2.059  -0.022  0.00  0.00    +0.130 A 
ENDROOT
BRANCH   1  11
ATOM      7  C   LIG    1        1.678  -7.486  -0.058  0.00  0.00    +0.150 C 
ATOM      8  C   LIG    1        0.758  -6.292  -0.042  0.00  0.00    -0.010 A 
ATOM      9  C   LIG    1       -0.586  -6.328  -0.030  0.00  0.00    -0.070 A 
ATOM     10  O   LIG    1       -1.021  -5.052  -0.012  0.00  0.00    -0.200 OA
ATOM     11  C   LIG    1        0.060  -4.252  -0.023  0.00  0.00    +0.260 A 
ATOM     12  C   LIG    1       -1.446  -7.565  -0.029  0.00  0.00    +0.190 C 
ATOM     13  N   LIG    1        1.136  -5.004  -0.038  0.00  0.00    -0.480 NA
ENDBRANCH   1  11
BRANCH   4  14
ATOM     14  N   LIG    1       -0.017   1.390   0.010  0.00  0.00    -0.730 N 
ATOM     15  H   LIG    1       -0.863   1.864   0.016  0.00  0.00    +0.400 HD
BRANCH  14  16
ATOM     16  C   LIG    1        1.242   2.140   0.002  0.00  0.00    +0.220 C 
ATOM     17  C   LIG    1        1.036   3.552  -0.601  0.00  0.00    +0.040 C 
ATOM     18  C   LIG    1        2.187   4.388  -0.006  0.00  0.00    -0.050 C 
ATOM     19  C   LIG    1        2.613   3.688   1.296  0.00  0.00    -0.060 C 
ATOM     20  C   LIG    1        3.570   3.742   0.103  0.00  0.00    -0.080 C 
ATOM     21  C   LIG    1        1.706   2.449   1.447  0.00  0.00    +0.040 C 
BRANCH  20  22
ATOM     22  C   LIG    1        4.760   4.660   0.208  0.00  0.00    +0.520 C 
ATOM     23  O   LIG    1        4.729   5.761  -0.315  0.00  0.00    -0.690 OA
ATOM     24  O   LIG    1        5.754   4.302   0.817  0.00  0.00    -0.690 OA
ENDBRANCH  20  22
ENDBRANCH  14  16
ENDBRANCH   4  14
TORSDOF 4
