REMARK  Name = ZINCqH0000035PDk.0
REMARK                            x       y       z     vdW  Elec       q    Type
REMARK                         _______ _______ _______ _____ _____    ______ ____
ROOT
ATOM      1  N   LIG    1       -1.378   1.518   1.216  0.00  0.00    -0.390 N 
ATOM      2  C   LIG    1       -0.383   2.428   0.997  0.00  0.00    +0.020 A 
ATOM      3  C   LIG    1        0.073   2.868   2.184  0.00  0.00    -0.010 A 
ATOM      4  C   LIG    1       -0.703   2.164   3.211  0.00  0.00    -0.230 A 
ATOM      5  C   LIG    1        0.117   2.872  -0.353  0.00  0.00    +0.130 C 
ATOM      6  C   LIG    1       -1.572   1.348   2.540  0.00  0.00    +0.120 A 
ATOM      7  C   LIG    1       -2.580   0.424   3.172  0.00  0.00    +0.140 C 
ENDROOT
BRANCH   1  11
ATOM      8  C   LIG    1       -3.501  -0.465  -1.778  0.00  0.00    +0.140 A 
ATOM      9  C   LIG    1       -2.141  -0.693  -1.625  0.00  0.00    +0.000 A 
ATOM     10  C   LIG    1       -1.438  -0.037  -0.634  0.00  0.00    +0.080 A 
ATOM     11  C   LIG    1       -2.092   0.851   0.209  0.00  0.00    +0.070 A 
ATOM     12  C   LIG    1       -3.454   1.075   0.059  0.00  0.00    +0.070 A 
ATOM     13  C   LIG    1       -4.155   0.423  -0.936  0.00  0.00    -0.060 A 
BRANCH   8  15
ATOM     14  C   LIG    1       -5.590  -0.829  -2.854  0.00  0.00    +0.240 C 
ATOM     15  O   LIG    1       -4.193  -1.111  -2.753  0.00  0.00    -0.310 OA
ENDBRANCH   8  15
ENDBRANCH   1  11
BRANCH   4  16
ATOM     16  C   LIG    1       -0.571   2.306   4.671  0.00  0.00    +0.600 C 
ATOM     17  N   LIG    1        0.339   3.156   5.186  0.00  0.00    -0.650 N 
ATOM     18  H   LIG    1        0.956   3.620   4.598  0.00  0.00    +0.400 HD
ATOM     19  O   LIG    1       -1.284   1.656   5.412  0.00  0.00    -0.530 OA
BRANCH  17  20
ATOM     20  C   LIG    1        0.394   3.371   6.576  0.00  0.00    -0.000 A 
ATOM     21  C   LIG    1        1.470   3.158   7.375  0.00  0.00    +0.080 A 
ATOM     22  N   LIG    1        1.110   3.487   8.643  0.00  0.00    -0.370 N 
ATOM     23  N   LIG    1       -0.224   3.913   8.615  0.00  0.00    -0.290 NA
ATOM     24  C   LIG    1        1.965   3.411   9.830  0.00  0.00    +0.360 C 
ATOM     25  C   LIG    1        2.819   2.650   6.937  0.00  0.00    +0.140 C 
ATOM     26  C   LIG    1       -0.651   3.850   7.380  0.00  0.00    +0.090 A 
ATOM     27  C   LIG    1       -2.030   4.224   6.902  0.00  0.00    +0.150 C 
ENDBRANCH  17  20
ENDBRANCH   4  16
TORSDOF 4
