REMARK  Name = ZINCrH00000No4EF.0
REMARK                            x       y       z     vdW  Elec       q    Type
REMARK                         _______ _______ _______ _____ _____    ______ ____
ROOT
ATOM      1  N   LIG    1        1.383   1.607   2.428  0.00  0.00    -0.730 N 
ATOM      2  H   LIG    1        1.829   1.254   1.642  0.00  0.00    +0.410 HD
ENDROOT
BRANCH   1   3
ATOM      3  C   LIG    1        0.008   1.817   2.411  0.00  0.00    +0.250 A 
ATOM      4  C   LIG    1       -0.631   2.323   3.540  0.00  0.00    -0.080 A 
ATOM      5  C   LIG    1       -1.991   2.533   3.526  0.00  0.00    +0.120 A 
ATOM      6  C   LIG    1       -2.731   2.237   2.377  0.00  0.00    -0.190 A 
ATOM      7  C   LIG    1       -2.085   1.734   1.244  0.00  0.00    +0.090 A 
ATOM      8  C   LIG    1       -0.726   1.522   1.265  0.00  0.00    -0.170 A 
ATOM      9  C   LIG    1       -0.030   0.975   0.046  0.00  0.00    +0.090 C 
BRANCH   6  10
ATOM     10  C   LIG    1       -4.189   2.462   2.359  0.00  0.00    +0.580 C 
ATOM     11  N   LIG    1       -4.876   2.333   1.206  0.00  0.00    -0.620 N 
ATOM     12  C   LIG    1       -4.320   1.877  -0.076  0.00  0.00    +0.250 C 
ATOM     13  C   LIG    1       -5.465   1.912  -1.110  0.00  0.00    +0.020 C 
ATOM     14  C   LIG    1       -6.459   2.929  -0.490  0.00  0.00    +0.040 C 
ATOM     15  C   LIG    1       -6.308   2.630   1.022  0.00  0.00    +0.260 C 
ATOM     16  O   LIG    1       -4.770   2.763   3.383  0.00  0.00    -0.540 OA
ENDBRANCH   6  10
ENDBRANCH   1   3
BRANCH   1  17
ATOM     17  C   LIG    1        2.156   1.917   3.633  0.00  0.00    +0.400 C 
BRANCH  17  21
ATOM     18  C   LIG    1        6.513  -0.445   3.233  0.00  0.00    +0.190 A 
ATOM     19  C   LIG    1        5.476   0.497   3.242  0.00  0.00    +0.010 A 
ATOM     20  N   LIG    1        4.154   0.430   3.546  0.00  0.00    -0.450 NA
ATOM     21  C   LIG    1        3.610   1.601   3.391  0.00  0.00    +0.250 A 
ATOM     22  N   LIG    1        4.547   2.501   2.986  0.00  0.00    -0.590 N 
ATOM     23  H   LIG    1        4.399   3.442   2.803  0.00  0.00    +0.430 HD
ATOM     24  C   LIG    1        5.747   1.826   2.881  0.00  0.00    +0.100 A 
ATOM     25  C   LIG    1        7.035   2.198   2.520  0.00  0.00    -0.030 A 
ATOM     26  C   LIG    1        8.046   1.261   2.515  0.00  0.00    +0.090 A 
ATOM     27  C   LIG    1        7.788  -0.055   2.870  0.00  0.00    -0.090 A 
BRANCH  18  29
ATOM     28  C   LIG    1        7.374  -2.639   3.547  0.00  0.00    +0.240 C 
ATOM     29  O   LIG    1        6.267  -1.736   3.579  0.00  0.00    -0.300 OA
ENDBRANCH  18  29
ENDBRANCH  17  21
ENDBRANCH   1  17
TORSDOF 5
