REMARK  Name = ZINCpe00000MEIQ5.0
REMARK                            x       y       z     vdW  Elec       q    Type
REMARK                         _______ _______ _______ _____ _____    ______ ____
ROOT
ATOM      1  N   LIG    1       -3.119   7.079  -1.529  0.00  0.00    -1.120 NA
ATOM      2  H   LIG    1       -2.271   7.164  -1.992  0.00  0.00    +0.420 HD
ENDROOT
BRANCH   1   3
ATOM      3  C   LIG    1       -3.335   5.971  -0.595  0.00  0.00    +0.250 C 
ATOM      4  C   LIG    1       -2.781   6.314   0.812  0.00  0.00    +0.010 C 
ATOM      5  C   LIG    1       -2.466   4.926   1.410  0.00  0.00    +0.210 C 
ATOM      6  N   LIG    1       -2.299   3.992   0.281  0.00  0.00    -0.490 N 
ATOM      7  C   LIG    1       -2.472   4.743  -0.981  0.00  0.00    +0.190 C 
BRANCH   6   8
ATOM      8  C   LIG    1       -1.048   3.371   0.326  0.00  0.00    +0.090 A 
ATOM      9  C   LIG    1        0.111   4.134   0.270  0.00  0.00    -0.010 A 
ATOM     10  C   LIG    1        1.346   3.516   0.315  0.00  0.00    +0.020 A 
ATOM     11  C   LIG    1        1.430   2.140   0.415  0.00  0.00    +0.020 A 
ATOM     12  C   LIG    1        0.278   1.376   0.471  0.00  0.00    +0.030 A 
ATOM     13  C   LIG    1       -0.961   1.986   0.421  0.00  0.00    -0.010 A 
ATOM     14 CL   LIG    1       -2.406   1.027   0.483  0.00  0.00    -0.050 Cl
ENDBRANCH   6   8
ENDBRANCH   1   3
BRANCH   1  15
ATOM     15  S   LIG    1       -4.321   8.186  -1.793  0.00  0.00    +2.780 S 
ATOM     16  O   LIG    1       -3.815   9.108  -2.748  0.00  0.00    -0.970 OA
ATOM     17  O   LIG    1       -4.796   8.576  -0.512  0.00  0.00    -0.960 OA
BRANCH  15  19
ATOM     18  C   LIG    1       -6.686   6.874  -1.731  0.00  0.00    +0.310 C 
ATOM     19  N   LIG    1       -5.570   7.386  -2.531  0.00  0.00    -1.000 NA
BRANCH  19  20
ATOM     20  C   LIG    1       -5.559   7.192  -3.983  0.00  0.00    +0.280 C 
ATOM     21  C   LIG    1       -5.470   5.689  -4.303  0.00  0.00    +0.070 C 
ATOM     22  C   LIG    1       -5.795   5.537  -5.811  0.00  0.00    -0.310 C 
ATOM     23  S   LIG    1       -7.213   6.678  -6.030  0.00  0.00    +2.390 S 
ATOM     24  O   LIG    1       -7.039   7.425  -7.227  0.00  0.00    -0.930 OA
ATOM     25  O   LIG    1       -8.425   5.971  -5.807  0.00  0.00    -0.930 OA
ATOM     26  C   LIG    1       -6.861   7.750  -4.590  0.00  0.00    -0.310 C 
ENDBRANCH  19  20
ENDBRANCH  15  19
ENDBRANCH   1  15
TORSDOF 5
