REMARK  Name = ZINCwl0000000vV2.1
REMARK                            x       y       z     vdW  Elec       q    Type
REMARK                         _______ _______ _______ _____ _____    ______ ____
ROOT
ATOM      1  C   LIG    1       -1.773   1.838   0.624  0.00  0.00    -0.390 A 
ATOM      2  C   LIG    1       -0.497   1.294   0.344  0.00  0.00    +0.510 A 
ATOM      3  N   LIG    1        0.551   2.099   0.255  0.00  0.00    -0.580 NA
ATOM      4  C   LIG    1        0.438   3.416   0.427  0.00  0.00    +0.440 A 
ATOM      5  C   LIG    1        1.587   4.221   0.320  0.00  0.00    -0.120 A 
ATOM      6  C   LIG    1        1.482   5.569   0.494  0.00  0.00    +0.150 A 
ATOM      7  C   LIG    1        0.231   6.134   0.777  0.00  0.00    +0.020 A 
ATOM      8  C   LIG    1       -0.863   5.345   0.876  0.00  0.00    +0.300 A 
ATOM      9  C   LIG    1        2.925   3.597   0.015  0.00  0.00    +0.140 C 
ATOM     10  N   LIG    1       -0.768   3.996   0.704  0.00  0.00    -0.430 N 
ATOM     11  C   LIG    1       -1.880   3.237   0.809  0.00  0.00    +0.530 A 
ATOM     12  O   LIG    1       -2.959   3.749   1.056  0.00  0.00    -0.490 OA
ENDROOT
BRANCH   1  17
ATOM     13  N   LIG    1       -6.144   0.987  -0.930  0.00  0.00    -0.510 N 
ATOM     14  C   LIG    1       -5.248   0.579  -0.049  0.00  0.00    +0.550 C 
ATOM     15  C   LIG    1       -3.995   1.234  -0.078  0.00  0.00    -0.270 C 
ATOM     16  S   LIG    1       -4.146   2.417  -1.393  0.00  0.00    +0.110 S 
ATOM     17  C   LIG    1       -2.912   1.005   0.720  0.00  0.00    +0.290 C 
ATOM     18  O   LIG    1       -5.489  -0.311   0.748  0.00  0.00    -0.460 OA
ATOM     19  C   LIG    1       -5.816   1.967  -1.785  0.00  0.00    +0.260 C 
ATOM     20  S   LIG    1       -6.807   2.645  -3.005  0.00  0.00    -0.350 S 
BRANCH  13  21
ATOM     21  C   LIG    1       -7.474   0.374  -0.976  0.00  0.00    +0.350 C 
BRANCH  21  23
ATOM     22  C   LIG    1       -7.840  -1.982  -1.499  0.00  0.00    +0.060 C 
ATOM     23  C   LIG    1       -7.453  -0.802  -1.917  0.00  0.00    -0.060 C 
ENDBRANCH  21  23
ENDBRANCH  13  21
ENDBRANCH   1  17
BRANCH   2  24
ATOM     24  N   LIG    1       -0.348  -0.064   0.160  0.00  0.00    -0.620 N 
ATOM     25  C   LIG    1       -1.365  -0.847  -0.557  0.00  0.00    +0.330 C 
ATOM     26  C   LIG    1       -0.658  -1.683  -1.635  0.00  0.00    +0.270 C 
ATOM     27  N   LIG    1        0.397  -2.490  -1.009  0.00  0.00    -0.380 N 
ATOM     28  C   LIG    1        1.433  -1.613  -0.449  0.00  0.00    +0.250 C 
ATOM     29  H   LIG    1       -0.002  -3.050  -0.271  0.00  0.00    +0.430 HD
ATOM     30  C   LIG    1        0.832  -0.772   0.682  0.00  0.00    +0.340 C 
BRANCH  27  31
ATOM     31  C   LIG    1        0.999  -3.373  -2.018  0.00  0.00    +0.270 C 
BRANCH  31  32
ATOM     32  C   LIG    1        1.991  -4.320  -1.339  0.00  0.00    +0.220 C 
BRANCH  32  33
ATOM     33  O   LIG    1        1.294  -5.158  -0.415  0.00  0.00    -0.580 OA
ATOM     34  H   LIG    1        1.861  -5.785   0.053  0.00  0.00    +0.410 HD
ENDBRANCH  32  33
ENDBRANCH  31  32
ENDBRANCH  27  31
ENDBRANCH   2  24
TORSDOF 7
