REMARK  Name = ZINCrH000004rnPH.0
REMARK                            x       y       z     vdW  Elec       q    Type
REMARK                         _______ _______ _______ _____ _____    ______ ____
ROOT
ATOM      1  N   LIG    1       -2.390   5.575   0.247  0.00  0.00    -0.730 N 
ATOM      2  H   LIG    1       -1.493   5.914   0.099  0.00  0.00    +0.420 HD
ENDROOT
BRANCH   1   3
ATOM      3  C   LIG    1       -3.438   6.463   0.503  0.00  0.00    +0.220 A 
ATOM      4  C   LIG    1       -4.724   5.978   0.710  0.00  0.00    -0.050 A 
ATOM      5  C   LIG    1       -5.764   6.851   0.970  0.00  0.00    +0.060 A 
ATOM      6  C   LIG    1       -5.533   8.211   1.015  0.00  0.00    -0.030 A 
ATOM      7  C   LIG    1       -4.246   8.708   0.803  0.00  0.00    +0.010 A 
ATOM      8  C   LIG    1       -3.197   7.828   0.547  0.00  0.00    +0.010 A 
BRANCH   7   9
ATOM      9  C   LIG    1       -3.997  10.166   0.852  0.00  0.00    +0.290 A 
ATOM     10  N   LIG    1       -2.830  10.756   1.008  0.00  0.00    -0.320 NA
ATOM     11  N   LIG    1       -2.967  12.033   1.004  0.00  0.00    -0.040 NA
ATOM     12  N   LIG    1       -4.206  12.351   0.848  0.00  0.00    -0.080 NA
ATOM     13  N   LIG    1       -4.925  11.148   0.738  0.00  0.00    -0.350 N 
BRANCH  13  14
ATOM     14  C   LIG    1       -6.369  10.988   0.543  0.00  0.00    +0.210 C 
ATOM     15  C   LIG    1       -7.209  12.261   0.413  0.00  0.00    +0.090 C 
ATOM     16  C   LIG    1       -7.288  11.419   1.688  0.00  0.00    +0.060 C 
ENDBRANCH  13  14
ENDBRANCH   7   9
ENDBRANCH   1   3
BRANCH   1  17
ATOM     17  C   LIG    1       -2.645   4.134   0.201  0.00  0.00    +0.310 C 
BRANCH  17  20
ATOM     18  N   LIG    1       -1.351   2.060  -0.180  0.00  0.00    -0.670 N 
ATOM     19  H   LIG    1       -2.185   1.566  -0.130  0.00  0.00    +0.420 HD
ATOM     20  C   LIG    1       -1.359   3.405  -0.091  0.00  0.00    +0.510 C 
ATOM     21  O   LIG    1       -0.330   4.029  -0.245  0.00  0.00    -0.510 OA
BRANCH  18  26
ATOM     22  C   LIG    1        3.548  -0.718  -0.863  0.00  0.00    +0.090 C 
ATOM     23  C   LIG    1        2.247   0.020  -0.681  0.00  0.00    -0.090 A 
ATOM     24  C   LIG    1        2.081   1.273  -1.241  0.00  0.00    +0.040 A 
ATOM     25  C   LIG    1        0.889   1.953  -1.075  0.00  0.00    +0.040 A 
ATOM     26  C   LIG    1       -0.141   1.376  -0.345  0.00  0.00    +0.160 A 
ATOM     27  C   LIG    1        0.029   0.117   0.217  0.00  0.00    -0.110 A 
ATOM     28 BR   LIG    1       -1.372  -0.673   1.212  0.00  0.00    -0.040 Br
ATOM     29  C   LIG    1        1.223  -0.558   0.047  0.00  0.00    +0.070 A 
ENDBRANCH  18  26
ENDBRANCH  17  20
ENDBRANCH   1  17
TORSDOF 6
