REMARK  Name = ZINCrH00000tj0Cz.0
REMARK                            x       y       z     vdW  Elec       q    Type
REMARK                         _______ _______ _______ _____ _____    ______ ____
ROOT
ATOM      1  N   LIG    1       -3.135  -4.493  -1.373  0.00  0.00    -0.620 N 
ATOM      2  C   LIG    1       -4.317  -4.312  -1.996  0.00  0.00    +0.510 C 
ATOM      3  O   LIG    1       -5.234  -3.774  -1.413  0.00  0.00    -0.500 OA
ENDROOT
BRANCH   1   4
ATOM      4  C   LIG    1       -2.027  -5.143  -2.077  0.00  0.00    +0.270 C 
BRANCH   4   6
ATOM      5  C   LIG    1       -0.934  -7.333  -2.578  0.00  0.00    +0.030 C 
ATOM      6  C   LIG    1       -2.091  -6.654  -1.843  0.00  0.00    +0.000 C 
ENDBRANCH   4   6
ENDBRANCH   1   4
BRANCH   2   7
ATOM      7  C   LIG    1       -4.498  -4.779  -3.417  0.00  0.00    +0.140 C 
BRANCH   7   8
ATOM      8  C   LIG    1       -5.897  -4.461  -3.876  0.00  0.00    -0.160 A 
ATOM      9  C   LIG    1       -6.955  -5.287  -3.846  0.00  0.00    +0.240 A 
ATOM     10  N   LIG    1       -8.059  -4.650  -4.344  0.00  0.00    -0.590 N 
ATOM     11  H   LIG    1       -8.941  -5.045  -4.423  0.00  0.00    +0.420 HD
ATOM     12  C   LIG    1       -7.730  -3.366  -4.716  0.00  0.00    +0.100 A 
ATOM     13  C   LIG    1       -8.454  -2.313  -5.266  0.00  0.00    -0.010 A 
ATOM     14  C   LIG    1       -7.826  -1.116  -5.533  0.00  0.00    +0.030 A 
ATOM     15  C   LIG    1       -6.476  -0.949  -5.258  0.00  0.00    -0.020 A 
ATOM     16  C   LIG    1       -5.746  -1.970  -4.718  0.00  0.00    +0.040 A 
ATOM     17  C   LIG    1       -6.363  -3.189  -4.434  0.00  0.00    -0.090 A 
ENDBRANCH   7   8
ENDBRANCH   2   7
BRANCH   1  18
ATOM     18  C   LIG    1       -2.960  -4.039   0.009  0.00  0.00    +0.460 C 
BRANCH  18  19
ATOM     19  C   LIG    1       -2.457  -2.619   0.011  0.00  0.00    +0.150 A 
ATOM     20  N   LIG    1       -3.192  -1.543   0.024  0.00  0.00    -0.250 NA
ATOM     21  N   LIG    1       -2.435  -0.503   0.028  0.00  0.00    -0.260 NA
ATOM     22  C   LIG    1       -1.176  -0.884   0.009  0.00  0.00    +0.240 A 
ATOM     23  O   LIG    1       -1.168  -2.233   0.001  0.00  0.00    -0.220 OA
BRANCH  22  24
ATOM     24  C   LIG    1        0.002  -0.004   0.002  0.00  0.00    +0.030 A 
ATOM     25  C   LIG    1       -0.016   1.359   0.009  0.00  0.00    +0.060 A 
ATOM     26  C   LIG    1        1.326   1.782  -0.001  0.00  0.00    -0.060 A 
ATOM     27  C   LIG    1        2.091   0.672  -0.014  0.00  0.00    +0.220 A 
ATOM     28  O   LIG    1        1.289  -0.405  -0.012  0.00  0.00    -0.160 OA
ENDBRANCH  22  24
ENDBRANCH  18  19
ENDBRANCH   1  18
TORSDOF 7
