REMARK  Name = ZINCpk00000KfLM2.0
REMARK                            x       y       z     vdW  Elec       q    Type
REMARK                         _______ _______ _______ _____ _____    ______ ____
ROOT
ATOM      1  C   LIG    1        9.744   1.040  -0.077  0.00  0.00    +0.340 C 
ATOM      2  C   LIG    1       10.892   2.071  -0.115  0.00  0.00    +0.060 C 
ATOM      3  C   LIG    1       10.204   3.339  -0.686  0.00  0.00    +0.050 C 
ATOM      4  C   LIG    1        8.790   3.234  -0.062  0.00  0.00    +0.250 C 
ATOM      5  N   LIG    1        8.481   1.792  -0.068  0.00  0.00    -0.610 N 
ATOM      6  C   LIG    1        7.246   1.254  -0.059  0.00  0.00    +0.530 C 
ATOM      7  O   LIG    1        7.110   0.049  -0.065  0.00  0.00    -0.500 OA
ENDROOT
BRANCH   1  10
ATOM      8  C   LIG    1       10.178  -1.415   2.497  0.00  0.00    +0.190 A 
ATOM      9  N   LIG    1       10.231  -1.090   1.228  0.00  0.00    -0.470 NA
ATOM     10  C   LIG    1        9.848   0.198   1.168  0.00  0.00    +0.170 A 
ATOM     11  N   LIG    1        9.579   0.580   2.380  0.00  0.00    -0.370 NA
ATOM     12  O   LIG    1        9.762  -0.332   3.159  0.00  0.00    +0.080 OA
BRANCH   8  14
ATOM     13  C   LIG    1       12.000  -2.790   3.467  0.00  0.00    +0.050 C 
ATOM     14  C   LIG    1       10.516  -2.757   3.095  0.00  0.00    +0.180 C 
ENDBRANCH   8  14
ENDBRANCH   1  10
BRANCH   6  15
ATOM     15  C   LIG    1        6.034   2.149  -0.043  0.00  0.00    +0.250 C 
BRANCH  15  16
ATOM     16  O   LIG    1        4.850   1.348  -0.037  0.00  0.00    -0.290 OA
BRANCH  16  17
ATOM     17  C   LIG    1        3.660   2.005  -0.022  0.00  0.00    +0.120 A 
ATOM     18  C   LIG    1        3.634   3.393  -0.015  0.00  0.00    -0.050 A 
ATOM     19  C   LIG    1        2.427   4.067   0.001  0.00  0.00    +0.060 A 
ATOM     20  C   LIG    1        1.240   3.364   0.008  0.00  0.00    +0.010 A 
ATOM     21  C   LIG    1        1.256   1.968   0.001  0.00  0.00    -0.100 A 
ATOM     22  C   LIG    1        2.475   1.290  -0.009  0.00  0.00    +0.060 A 
BRANCH  21  23
ATOM     23  C   LIG    1       -0.014   1.211   0.009  0.00  0.00    +0.560 C 
ATOM     24  O   LIG    1        0.002  -0.004   0.002  0.00  0.00    -0.530 OA
ATOM     25  N   LIG    1       -1.191   1.869   0.018  0.00  0.00    -0.850 N 
ATOM     26  H   LIG    1       -1.204   2.839   0.023  0.00  0.00    +0.400 HD
ATOM     27  H   LIG    1       -2.024   1.373   0.019  0.00  0.00    +0.410 HD
ENDBRANCH  21  23
ENDBRANCH  16  17
ENDBRANCH  15  16
ENDBRANCH   6  15
TORSDOF 6
