REMARK  Name = ZINCrg000000tMxP.0
REMARK                            x       y       z     vdW  Elec       q    Type
REMARK                         _______ _______ _______ _____ _____    ______ ____
ROOT
ATOM      1  C   LIG    1       -2.166   1.651  -0.817  0.00  0.00    +0.240 C 
ATOM      2  C   LIG    1       -1.840   1.074   0.577  0.00  0.00    +0.060 C 
ATOM      3  C   LIG    1       -0.422   1.643   0.866  0.00  0.00    +0.040 C 
ATOM      4  C   LIG    1        0.211   1.624  -0.547  0.00  0.00    +0.280 C 
ATOM      5  N   LIG    1       -0.888   1.987  -1.461  0.00  0.00    -0.990 NA
ENDROOT
BRANCH   1   7
ATOM      6  O   LIG    1       -2.282  -0.134  -2.356  0.00  0.00    -0.520 OA
ATOM      7  C   LIG    1       -2.901   0.625  -1.640  0.00  0.00    +0.520 C 
ATOM      8  N   LIG    1       -4.245   0.550  -1.581  0.00  0.00    -0.610 N 
ATOM      9  C   LIG    1       -5.118   1.406  -0.758  0.00  0.00    +0.260 C 
ATOM     10  C   LIG    1       -6.408   0.574  -0.550  0.00  0.00    +0.030 C 
ATOM     11  C   LIG    1       -6.550  -0.130  -1.925  0.00  0.00    +0.260 C 
ATOM     12  C   LIG    1       -5.085  -0.395  -2.332  0.00  0.00    +0.260 C 
BRANCH  11  13
ATOM     13  N   LIG    1       -7.288  -1.388  -1.789  0.00  0.00    -0.620 N 
ATOM     14  C   LIG    1       -8.538  -1.695  -2.496  0.00  0.00    +0.260 C 
ATOM     15  C   LIG    1       -8.698  -3.230  -2.398  0.00  0.00    +0.040 C 
ATOM     16  C   LIG    1       -7.901  -3.546  -1.111  0.00  0.00    +0.050 C 
ATOM     17  C   LIG    1       -6.913  -2.407  -0.997  0.00  0.00    +0.520 C 
ATOM     18  O   LIG    1       -5.925  -2.412  -0.293  0.00  0.00    -0.520 OA
ENDBRANCH  11  13
ENDBRANCH   1   7
BRANCH   5  19
ATOM     19  S   LIG    1       -0.711   2.661  -2.963  0.00  0.00    +2.710 S 
ATOM     20  O   LIG    1       -1.939   2.448  -3.645  0.00  0.00    -0.940 OA
ATOM     21  O   LIG    1        0.542   2.212  -3.459  0.00  0.00    -0.940 OA
BRANCH  19  22
ATOM     22  C   LIG    1       -0.563   4.402  -2.738  0.00  0.00    -0.680 A 
ATOM     23  C   LIG    1       -1.698   5.186  -2.644  0.00  0.00    +0.120 A 
ATOM     24  C   LIG    1       -1.581   6.552  -2.464  0.00  0.00    -0.010 A 
ATOM     25  C   LIG    1       -0.330   7.135  -2.387  0.00  0.00    +0.070 A 
ATOM     26  C   LIG    1        0.804   6.351  -2.486  0.00  0.00    +0.000 A 
ATOM     27  C   LIG    1        0.688   4.985  -2.662  0.00  0.00    +0.120 A 
ENDBRANCH  19  22
ENDBRANCH   5  19
TORSDOF 4
