REMARK  Name = ZINCb70000003ZeU.0
REMARK                            x       y       z     vdW  Elec       q    Type
REMARK                         _______ _______ _______ _____ _____    ______ ____
ROOT
ATOM      1  C   LIG    1        1.296  -1.582   6.085  0.00  0.00    +0.090 C 
ATOM      2  C   LIG    1        0.464  -0.912   4.990  0.00  0.00    +0.160 C 
ATOM      3  C   LIG    1        0.358   0.587   5.276  0.00  0.00    +0.080 C 
ATOM      4  C   LIG    1       -0.475   1.253   4.178  0.00  0.00    +0.090 C 
ATOM      5  C   LIG    1        0.167   0.966   2.818  0.00  0.00    -0.470 C 
ATOM      6  C   LIG    1        0.281  -0.548   2.622  0.00  0.00    +0.300 C 
ATOM      7  N   LIG    1        1.110  -1.121   3.689  0.00  0.00    -0.500 N 
ATOM      8  H   LIG    1        1.226  -2.111   3.527  0.00  0.00    +0.430 HD
ATOM      9  H   LIG    1        2.014  -0.674   3.687  0.00  0.00    +0.430 HD
ENDROOT
BRANCH   5  10
ATOM     10  S   LIG    1       -0.862   1.671   1.500  0.00  0.00    +2.430 S 
ATOM     11  O   LIG    1       -2.147   1.066   1.557  0.00  0.00    -0.910 OA
ATOM     12  O   LIG    1       -0.758   3.087   1.554  0.00  0.00    -0.910 OA
ATOM     13  C   LIG    1       -0.013   1.086   0.008  0.00  0.00    -0.240 C 
ENDBRANCH   5  10
TORSDOF 1
