REMARK  Name = ZINCrg000000mRIY.0
REMARK                            x       y       z     vdW  Elec       q    Type
REMARK                         _______ _______ _______ _____ _____    ______ ____
ROOT
ATOM      1  S   LIG    1       -0.063  -1.565   1.795  0.00  0.00    +2.700 S 
ATOM      2  O   LIG    1       -1.482  -1.575   1.738  0.00  0.00    -0.950 OA
ATOM      3  O   LIG    1        0.665  -1.243   2.973  0.00  0.00    -0.950 OA
ENDROOT
BRANCH   1  10
ATOM      4  C   LIG    1        2.147  -9.161  -0.801  0.00  0.00    +0.120 C 
ATOM      5  C   LIG    1        1.351  -7.923  -0.474  0.00  0.00    +0.520 C 
ATOM      6  N   LIG    1        1.905  -6.941   0.264  0.00  0.00    -0.560 N 
ATOM      7  C   LIG    1        1.304  -5.709   0.540  0.00  0.00    +0.200 A 
ATOM      8  C   LIG    1        0.058  -5.224   0.141  0.00  0.00    +0.000 A 
ATOM      9  C   LIG    1       -0.356  -3.967   0.529  0.00  0.00    +0.160 A 
ATOM     10  C   LIG    1        0.466  -3.174   1.307  0.00  0.00    -0.700 A 
ATOM     11  C   LIG    1        1.702  -3.647   1.707  0.00  0.00    +0.160 A 
ATOM     12  C   LIG    1        2.118  -4.908   1.325  0.00  0.00    -0.160 A 
ATOM     13  C   LIG    1        3.397  -5.660   1.615  0.00  0.00    +0.120 C 
ATOM     14  C   LIG    1        3.225  -7.009   0.897  0.00  0.00    +0.220 C 
ATOM     15  C   LIG    1        3.273  -8.158   1.906  0.00  0.00    +0.050 C 
ATOM     16  O   LIG    1        0.212  -7.811  -0.876  0.00  0.00    -0.510 OA
ENDBRANCH   1  10
BRANCH   1  17
ATOM     17  N   LIG    1        0.445  -0.507   0.627  0.00  0.00    -1.000 NA
ATOM     18  C   LIG    1       -0.407  -0.192  -0.529  0.00  0.00    +0.300 C 
ATOM     19  C   LIG    1       -0.511   1.332  -0.656  0.00  0.00    +0.170 C 
ATOM     20  N   LIG    1        0.839   1.909  -0.705  0.00  0.00    -0.530 NA
ATOM     21  C   LIG    1        1.573   1.653   0.542  0.00  0.00    +0.170 C 
ATOM     22  C   LIG    1        1.762   0.143   0.719  0.00  0.00    +0.300 C 
BRANCH  20  23
ATOM     23  C   LIG    1        0.786   3.347  -0.999  0.00  0.00    +0.110 C 
ATOM     24  C   LIG    1        2.211   3.942  -1.052  0.00  0.00    +0.020 C 
ATOM     25  C   LIG    1        2.342   4.472  -2.497  0.00  0.00    +0.200 C 
ATOM     26  O   LIG    1        0.984   4.706  -2.929  0.00  0.00    -0.370 OA
ATOM     27  C   LIG    1        0.224   3.590  -2.417  0.00  0.00    +0.210 C 
ENDBRANCH  20  23
ENDBRANCH   1  17
TORSDOF 3
