REMARK  Name = ZINCkj000005lK3d.0
REMARK                            x       y       z     vdW  Elec       q    Type
REMARK                         _______ _______ _______ _____ _____    ______ ____
ROOT
ATOM      1  N   LIG    1        3.866   0.386   6.328  0.00  0.00    -0.530 NA
ATOM      2  C   LIG    1        3.236   1.624   6.806  0.00  0.00    +0.210 C 
ATOM      3  C   LIG    1        3.165   1.600   8.335  0.00  0.00    +0.270 C 
ATOM      4  N   LIG    1        4.521   1.476   8.885  0.00  0.00    -0.390 N 
ATOM      5  C   LIG    1        5.129   0.223   8.419  0.00  0.00    +0.280 C 
ATOM      6  H   LIG    1        5.082   2.257   8.577  0.00  0.00    +0.420 HD
ATOM      7  C   LIG    1        5.215   0.236   6.891  0.00  0.00    +0.220 C 
ENDROOT
BRANCH   1   8
ATOM      8  C   LIG    1        3.901   0.345   4.860  0.00  0.00    +0.190 C 
BRANCH   8   9
ATOM      9  C   LIG    1        2.473   0.253   4.318  0.00  0.00    +0.270 C 
BRANCH   9  12
ATOM     10  O   LIG    1        0.296   0.090   2.738  0.00  0.00    -0.530 OA
ATOM     11  C   LIG    1        1.359   0.131   2.155  0.00  0.00    +0.540 C 
ATOM     12  N   LIG    1        2.508   0.213   2.854  0.00  0.00    -0.730 N 
ATOM     13  H   LIG    1        3.358   0.245   2.388  0.00  0.00    +0.400 HD
BRANCH  11  14
ATOM     14  C   LIG    1        1.394   0.090   0.649  0.00  0.00    -0.040 C 
ATOM     15  C   LIG    1        0.002  -0.004   0.002  0.00  0.00    +0.050 C 
ATOM     16  C   LIG    1       -0.019   1.534   0.011  0.00  0.00    +0.010 C 
ATOM     17  C   LIG    1        1.518   1.476  -0.004  0.00  0.00    +0.050 C 
ENDBRANCH  11  14
ENDBRANCH   9  12
ENDBRANCH   8   9
ENDBRANCH   1   8
BRANCH   4  18
ATOM     18  C   LIG    1        4.455   1.471  10.353  0.00  0.00    +0.260 C 
BRANCH  18  19
ATOM     19  C   LIG    1        3.938   2.825  10.845  0.00  0.00    -0.040 C 
ATOM     20  C   LIG    1        5.042   3.883  11.008  0.00  0.00    +0.020 C 
ATOM     21  C   LIG    1        4.319   4.323  12.294  0.00  0.00    +0.030 C 
ATOM     22  C   LIG    1        3.751   2.896  12.369  0.00  0.00    +0.040 C 
ENDBRANCH  18  19
ENDBRANCH   4  18
TORSDOF 6
