REMARK  Name = ZINCpk00001AZjbr.0
REMARK                            x       y       z     vdW  Elec       q    Type
REMARK                         _______ _______ _______ _____ _____    ______ ____
ROOT
ATOM      1  C   LIG    1        1.082  -0.744   0.414  0.00  0.00    +0.290 C 
ENDROOT
BRANCH   1   3
ATOM      2  C   LIG    1       -1.289  -0.251   1.172  0.00  0.00    +0.300 C 
ATOM      3  N   LIG    1       -0.055   0.174   0.505  0.00  0.00    -0.600 N 
ATOM      4  C   LIG    1        0.033   1.411  -0.023  0.00  0.00    +0.570 C 
ATOM      5  O   LIG    1        1.087   1.800  -0.487  0.00  0.00    -0.520 OA
BRANCH   4   6
ATOM      6  C   LIG    1       -1.154   2.292  -0.043  0.00  0.00    -0.170 A 
ATOM      7  C   LIG    1       -1.007   3.683  -0.121  0.00  0.00    +0.150 A 
ATOM      8  C   LIG    1       -2.150   4.463  -0.137  0.00  0.00    +0.000 A 
ATOM      9  C   LIG    1       -3.389   3.851  -0.077  0.00  0.00    +0.070 A 
ATOM     10  N   LIG    1       -3.497   2.537  -0.006  0.00  0.00    -0.460 NA
ATOM     11  C   LIG    1       -2.440   1.752   0.008  0.00  0.00    +0.310 A 
BRANCH   9  12
ATOM     12  C   LIG    1       -4.636   4.697  -0.095  0.00  0.00    +0.460 C 
ATOM     13  F   LIG    1       -4.366   5.937   0.493  0.00  0.00    -0.190 F 
ATOM     14  F   LIG    1       -5.648   4.051   0.622  0.00  0.00    -0.180 F 
ENDBRANCH   9  12
ENDBRANCH   4   6
ENDBRANCH   1   3
BRANCH   1  15
ATOM     15  C   LIG    1        1.984  -0.563   1.637  0.00  0.00    +0.190 C 
BRANCH  15  16
ATOM     16  O   LIG    1        2.461   0.783   1.682  0.00  0.00    -0.550 OA
ATOM     17  H   LIG    1        2.976   1.044   0.907  0.00  0.00    +0.380 HD
ENDBRANCH  15  16
BRANCH  15  18
ATOM     18  C   LIG    1        3.172  -1.522   1.541  0.00  0.00    +0.250 C 
BRANCH  18  19
ATOM     19  N   LIG    1        3.970  -1.435   2.767  0.00  0.00    -0.700 N 
ATOM     20  H   LIG    1        3.704  -0.830   3.477  0.00  0.00    +0.410 HD
BRANCH  19  21
ATOM     21  C   LIG    1        5.109  -2.220   2.912  0.00  0.00    +0.350 A 
ATOM     22  C   LIG    1        5.489  -3.093   1.897  0.00  0.00    +0.200 A 
ATOM     23  N   LIG    1        6.573  -3.833   2.035  0.00  0.00    -0.430 NA
ATOM     24  C   LIG    1        7.293  -3.754   3.143  0.00  0.00    +0.190 A 
ATOM     25  C   LIG    1        6.915  -2.890   4.158  0.00  0.00    +0.280 A 
ATOM     26  F   LIG    1        8.399  -4.516   3.285  0.00  0.00    -0.110 F 
ATOM     27  N   LIG    1        5.833  -2.142   4.022  0.00  0.00    -0.480 NA
ENDBRANCH  19  21
ENDBRANCH  18  19
ENDBRANCH  15  18
ENDBRANCH   1  15
TORSDOF 8
