REMARK  Name = ZINCqH0000037EaV.0
REMARK                            x       y       z     vdW  Elec       q    Type
REMARK                         _______ _______ _______ _____ _____    ______ ____
ROOT
ATOM      1  C   LIG    1        1.025   0.830  -1.627  0.00  0.00    +0.270 C 
ENDROOT
BRANCH   1   4
ATOM      2  C   LIG    1        0.493   0.776  -4.688  0.00  0.00    +0.120 C 
ATOM      3  C   LIG    1        0.450  -0.405  -3.754  0.00  0.00    -0.160 A 
ATOM      4  C   LIG    1        0.677  -0.395  -2.433  0.00  0.00    +0.020 A 
ATOM      5  O   LIG    1        0.555  -1.637  -1.933  0.00  0.00    -0.180 OA
ATOM      6  C   LIG    1        0.233  -2.516  -2.902  0.00  0.00    +0.050 A 
ATOM      7  C   LIG    1       -0.004  -3.885  -2.909  0.00  0.00    +0.020 A 
ATOM      8  C   LIG    1       -0.316  -4.524  -4.090  0.00  0.00    +0.050 A 
ATOM      9  C   LIG    1       -0.397  -3.814  -5.279  0.00  0.00    -0.010 A 
ATOM     10  C   LIG    1       -0.166  -2.456  -5.294  0.00  0.00    +0.060 A 
ATOM     11  C   LIG    1        0.150  -1.798  -4.107  0.00  0.00    -0.130 A 
ENDBRANCH   1   4
BRANCH   1  12
ATOM     12  C   LIG    1        2.514   0.804  -1.276  0.00  0.00    +0.000 C 
ATOM     13  C   LIG    1        3.342   0.873  -2.561  0.00  0.00    +0.020 C 
ATOM     14  C   LIG    1        2.839  -0.491  -0.529  0.00  0.00    +0.020 C 
ENDBRANCH   1  12
BRANCH   1  15
ATOM     15  N   LIG    1        0.231   0.845  -0.391  0.00  0.00    -0.670 NA
ATOM     16  H   LIG    1       -0.474   0.123  -0.406  0.00  0.00    +0.370 HD
BRANCH  15  17
ATOM     17  C   LIG    1       -0.372   2.166  -0.169  0.00  0.00    +0.320 C 
BRANCH  17  18
ATOM     18  C   LIG    1        0.613   3.053   0.549  0.00  0.00    +0.210 A 
ATOM     19  N   LIG    1        1.580   3.749   0.004  0.00  0.00    -0.290 NA
ATOM     20  N   LIG    1        2.198   4.376   0.944  0.00  0.00    -0.060 NA
ATOM     21  N   LIG    1        1.651   4.097   2.075  0.00  0.00    -0.080 NA
ATOM     22  N   LIG    1        0.666   3.289   1.873  0.00  0.00    -0.310 N 
BRANCH  22  23
ATOM     23  C   LIG    1       -0.225   2.729   2.893  0.00  0.00    +0.380 C 
BRANCH  23  24
ATOM     24  C   LIG    1        0.409   1.470   3.488  0.00  0.00    +0.440 C 
ATOM     25  F   LIG    1        0.578   0.513   2.482  0.00  0.00    -0.160 F 
ATOM     26  F   LIG    1       -0.425   0.956   4.487  0.00  0.00    -0.170 F 
ATOM     27  F   LIG    1        1.654   1.791   4.040  0.00  0.00    -0.170 F 
ENDBRANCH  23  24
ENDBRANCH  22  23
ENDBRANCH  17  18
ENDBRANCH  15  17
ENDBRANCH   1  15
TORSDOF 7
