REMARK  Name = ZINCpe000000ZzbC.0
REMARK                            x       y       z     vdW  Elec       q    Type
REMARK                         _______ _______ _______ _____ _____    ______ ____
ROOT
ATOM      1  O   LIG    1       10.432   0.900   0.073  0.00  0.00    -0.510 OA
ATOM      2  C   LIG    1        9.816  -0.006   0.595  0.00  0.00    +0.510 C 
ATOM      3  C   LIG    1        8.647   0.309   1.492  0.00  0.00    +0.340 C 
ATOM      4  N   LIG    1        7.687  -0.804   1.438  0.00  0.00    -0.560 N 
ATOM      5  C   LIG    1        8.197  -2.112   1.460  0.00  0.00    +0.110 A 
ATOM      6  C   LIG    1        7.468  -3.156   1.993  0.00  0.00    +0.060 A 
ATOM      7  C   LIG    1        8.000  -4.433   1.999  0.00  0.00    +0.010 A 
ATOM      8  C   LIG    1        9.255  -4.666   1.468  0.00  0.00    +0.030 A 
ATOM      9  C   LIG    1        9.989  -3.627   0.926  0.00  0.00    +0.010 A 
ATOM     10  C   LIG    1        9.463  -2.345   0.914  0.00  0.00    +0.130 A 
ATOM     11  C   LIG    1        6.361  -0.576   1.373  0.00  0.00    +0.510 C 
ATOM     12  O   LIG    1        5.586  -1.508   1.329  0.00  0.00    -0.500 OA
ATOM     13  N   LIG    1       10.187  -1.280   0.365  0.00  0.00    -0.650 N 
ATOM     14  H   LIG    1       10.963  -1.462  -0.186  0.00  0.00    +0.420 HD
ENDROOT
BRANCH  11  15
ATOM     15  C   LIG    1        5.839   0.838   1.356  0.00  0.00    +0.370 C 
BRANCH  15  16
ATOM     16  N   LIG    1        4.376   0.818   1.283  0.00  0.00    -0.570 N 
ATOM     17  C   LIG    1        3.568   0.801   2.353  0.00  0.00    +0.710 C 
ATOM     18  N   LIG    1        2.263   0.786   2.010  0.00  0.00    -0.710 N 
ATOM     19  H   LIG    1        1.502   0.772   2.611  0.00  0.00    +0.440 HD
ATOM     20  C   LIG    1        2.230   0.793   0.551  0.00  0.00    +0.110 C 
ATOM     21  C   LIG    1        1.455   1.999  -0.001  0.00  0.00    +0.050 C 
ATOM     22  C   LIG    1       -0.019   1.536   0.011  0.00  0.00    +0.030 C 
ATOM     23  C   LIG    1        0.002  -0.004   0.002  0.00  0.00    +0.030 C 
ATOM     24  C   LIG    1        1.488  -0.427  -0.014  0.00  0.00    +0.050 C 
ATOM     25  O   LIG    1        3.966   0.800   3.501  0.00  0.00    -0.540 OA
ATOM     26  C   LIG    1        3.672   0.815   0.129  0.00  0.00    +0.540 C 
ATOM     27  O   LIG    1        4.110   0.827  -1.002  0.00  0.00    -0.450 OA
ENDBRANCH  15  16
ENDBRANCH  11  15
TORSDOF 2
