REMARK  Name = ZINCrg000000sEgM.0
REMARK                            x       y       z     vdW  Elec       q    Type
REMARK                         _______ _______ _______ _____ _____    ______ ____
ROOT
ATOM      1  N   LIG    1        0.467  -3.222  -2.068  0.00  0.00    -0.460 N 
ATOM      2  C   LIG    1       -0.694  -3.216  -2.967  0.00  0.00    +0.180 C 
ATOM      3  C   LIG    1       -0.720  -4.521  -3.771  0.00  0.00    +0.280 C 
ATOM      4  N   LIG    1       -0.667  -5.650  -2.830  0.00  0.00    -0.610 N 
ATOM      5  C   LIG    1        0.391  -5.655  -1.808  0.00  0.00    +0.300 C 
ATOM      6  C   LIG    1       -1.563  -6.654  -2.903  0.00  0.00    +0.570 C 
ATOM      7  O   LIG    1       -1.461  -7.615  -2.165  0.00  0.00    -0.520 OA
ATOM      8  C   LIG    1        0.373  -4.306  -1.082  0.00  0.00    +0.190 C 
ENDROOT
BRANCH   6   9
ATOM      9  C   LIG    1       -2.670  -6.587  -3.879  0.00  0.00    -0.130 A 
ATOM     10  C   LIG    1       -2.401  -6.348  -5.227  0.00  0.00    +0.030 A 
ATOM     11  C   LIG    1       -3.443  -6.291  -6.138  0.00  0.00    +0.180 A 
ATOM     12  C   LIG    1       -4.753  -6.461  -5.708  0.00  0.00    +0.070 A 
ATOM     13  C   LIG    1       -5.024  -6.693  -4.373  0.00  0.00    +0.030 A 
ATOM     14  C   LIG    1       -3.991  -6.756  -3.455  0.00  0.00    +0.120 A 
ATOM     15  F   LIG    1       -4.259  -6.982  -2.150  0.00  0.00    -0.120 F 
BRANCH  11  16
ATOM     16  N   LIG    1       -3.176  -6.056  -7.493  0.00  0.00    -0.570 N 
ATOM     17  C   LIG    1       -1.838  -5.981  -8.097  0.00  0.00    +0.270 C 
ATOM     18  C   LIG    1       -2.120  -5.711  -9.588  0.00  0.00    +0.270 C 
ATOM     19  N   LIG    1       -3.588  -5.653  -9.664  0.00  0.00    -0.730 N 
ATOM     20  H   LIG    1       -4.103  -5.493 -10.469  0.00  0.00    +0.440 HD
ATOM     21  C   LIG    1       -4.100  -5.857  -8.443  0.00  0.00    +0.700 C 
ATOM     22  O   LIG    1       -5.295  -5.862  -8.217  0.00  0.00    -0.560 OA
ENDBRANCH  11  16
ENDBRANCH   6   9
BRANCH   1  26
ATOM     23  C   LIG    1        1.016   1.616  -1.304  0.00  0.00    +0.360 C 
ATOM     24  N   LIG    1        0.864   0.176  -1.085  0.00  0.00    -0.370 N 
ATOM     25  C   LIG    1        0.731  -0.771  -2.051  0.00  0.00    +0.220 A 
ATOM     26  C   LIG    1        0.620  -1.974  -1.433  0.00  0.00    -0.050 A 
ATOM     27  C   LIG    1        0.678  -1.754  -0.049  0.00  0.00    +0.200 A 
ATOM     28  N   LIG    1        0.823  -0.470   0.158  0.00  0.00    -0.280 NA
ENDBRANCH   1  26
TORSDOF 3
