REMARK  Name = ZINCrH000004jWtJ.0
REMARK                            x       y       z     vdW  Elec       q    Type
REMARK                         _______ _______ _______ _____ _____    ______ ____
ROOT
ATOM      1  N   LIG    1        2.015   1.872   3.695  0.00  0.00    -0.900 N 
ATOM      2  C   LIG    1        2.059   1.023   4.811  0.00  0.00    +0.150 A 
ATOM      3  C   LIG    1        1.620  -0.296   4.903  0.00  0.00    +0.020 A 
ATOM      4  C   LIG    1        1.738  -1.004   6.093  0.00  0.00    +0.040 A 
ATOM      5  C   LIG    1        2.280  -0.457   7.219  0.00  0.00    +0.030 A 
ATOM      6  C   LIG    1        2.737   0.872   7.175  0.00  0.00    -0.030 A 
ATOM      7  C   LIG    1        3.309   1.526   8.278  0.00  0.00    +0.090 A 
ATOM      8  C   LIG    1        3.729   2.818   8.155  0.00  0.00    +0.000 A 
ATOM      9  C   LIG    1        3.602   3.513   6.946  0.00  0.00    +0.190 A 
ATOM     10  C   LIG    1        3.055   2.904   5.876  0.00  0.00    -0.640 A 
ATOM     11  C   LIG    1        2.613   1.581   5.962  0.00  0.00    -0.070 A 
ATOM     12  S   LIG    1        2.692   3.321   4.195  0.00  0.00    +2.670 S 
ATOM     13  O   LIG    1        1.658   4.296   4.210  0.00  0.00    -0.920 OA
ATOM     14  O   LIG    1        3.928   3.477   3.512  0.00  0.00    -0.930 OA
ENDROOT
BRANCH   1  15
ATOM     15  C   LIG    1        1.491   1.555   2.364  0.00  0.00    +0.370 C 
BRANCH  15  18
ATOM     16  C   LIG    1       -0.013   1.086   0.008  0.00  0.00    +0.280 C 
ATOM     17  N   LIG    1       -0.698   1.558   1.213  0.00  0.00    -0.610 N 
ATOM     18  C   LIG    1        0.002   1.786   2.342  0.00  0.00    +0.490 C 
ATOM     19  O   LIG    1       -0.565   2.177   3.340  0.00  0.00    -0.500 OA
BRANCH  17  20
ATOM     20  C   LIG    1       -2.146   1.783   1.192  0.00  0.00    +0.340 C 
BRANCH  20  21
ATOM     21  C   LIG    1       -2.857   0.515   1.590  0.00  0.00    -0.090 A 
ATOM     22  C   LIG    1       -3.224  -0.403   0.624  0.00  0.00    +0.030 A 
ATOM     23  C   LIG    1       -3.871  -1.569   0.989  0.00  0.00    +0.040 A 
ATOM     24  C   LIG    1       -4.162  -1.811   2.320  0.00  0.00    -0.090 A 
ATOM     25  C   LIG    1       -3.799  -0.889   3.285  0.00  0.00    +0.040 A 
ATOM     26 BR   LIG    1       -5.054  -3.401   2.818  0.00  0.00    -0.050 Br
ATOM     27  C   LIG    1       -3.147   0.274   2.920  0.00  0.00    +0.050 A 
ENDBRANCH  20  21
ENDBRANCH  17  20
ENDBRANCH  15  18
ENDBRANCH   1  15
TORSDOF 4
