REMARK  Name = ZINCqH0000051v6U.0
REMARK                            x       y       z     vdW  Elec       q    Type
REMARK                         _______ _______ _______ _____ _____    ______ ____
ROOT
ATOM      1  C   LIG    1       -3.791   5.715   0.067  0.00  0.00    +0.280 A 
ATOM      2  N   LIG    1       -2.606   5.189   0.053  0.00  0.00    -0.500 NA
ATOM      3  C   LIG    1       -2.534   3.865   0.046  0.00  0.00    +0.120 A 
ATOM      4  C   LIG    1       -3.717   3.224   0.049  0.00  0.00    -0.110 A 
ATOM      5  S   LIG    1       -4.999   4.433   0.072  0.00  0.00    +0.220 S 
ENDROOT
BRANCH   3   6
ATOM      6  C   LIG    1       -1.240   3.142   0.031  0.00  0.00    +0.010 A 
ATOM      7  C   LIG    1       -1.219   1.748   0.017  0.00  0.00    +0.050 A 
ATOM      8  C   LIG    1       -0.013   1.076   0.008  0.00  0.00    +0.060 A 
ATOM      9  C   LIG    1        1.176   1.781   0.000  0.00  0.00    +0.020 A 
ATOM     10  C   LIG    1        1.164   3.170   0.008  0.00  0.00    +0.130 A 
ATOM     11  C   LIG    1       -0.042   3.853   0.023  0.00  0.00    +0.080 A 
BRANCH  10  12
ATOM     12  N   LIG    1        2.373   3.882   0.001  0.00  0.00    -0.330 N 
ATOM     13  C   LIG    1        3.621   3.378  -0.107  0.00  0.00    +0.470 A 
ATOM     14  N   LIG    1        4.452   4.386  -0.070  0.00  0.00    -0.330 NA
ATOM     15  N   LIG    1        3.814   5.494   0.054  0.00  0.00    -0.030 NA
ATOM     16  N   LIG    1        2.544   5.274   0.098  0.00  0.00    -0.070 NA
ENDBRANCH  10  12
ENDBRANCH   3   6
BRANCH   1  19
ATOM     17  O   LIG    1       -6.256   6.701   0.094  0.00  0.00    -0.480 OA
ATOM     18  C   LIG    1       -5.343   7.505   0.089  0.00  0.00    +0.540 C 
ATOM     19  N   LIG    1       -4.066   7.075   0.075  0.00  0.00    -0.620 N 
ATOM     20  H   LIG    1       -3.338   7.717   0.071  0.00  0.00    +0.420 HD
BRANCH  18  21
ATOM     21  C   LIG    1       -5.633   8.944   0.098  0.00  0.00    -0.180 C 
ATOM     22  C   LIG    1       -6.897   9.324   0.106  0.00  0.00    +0.020 C 
ATOM     23  C   LIG    1       -7.336  10.759   0.113  0.00  0.00    +0.110 C 
ATOM     24  C   LIG    1       -6.173  11.665   0.521  0.00  0.00    +0.030 C 
ATOM     25  C   LIG    1       -4.947  11.295  -0.323  0.00  0.00    +0.030 C 
ATOM     26 CL   LIG    1       -8.121   8.094   0.116  0.00  0.00    -0.030 Cl
ATOM     27  C   LIG    1       -4.476   9.900   0.091  0.00  0.00    +0.090 C 
ENDBRANCH  18  21
ENDBRANCH   1  19
TORSDOF 4
