REMARK  Name = ZINCqH00000059oJ.0
REMARK                            x       y       z     vdW  Elec       q    Type
REMARK                         _______ _______ _______ _____ _____    ______ ____
ROOT
ATOM      1  C   LIG    1       -0.316   3.880   0.350  0.00  0.00    +0.520 C 
ATOM      2  N   LIG    1        0.916   3.367   0.540  0.00  0.00    -0.670 N 
ATOM      3  H   LIG    1        1.690   3.952   0.538  0.00  0.00    +0.420 HD
ATOM      4  O   LIG    1       -1.292   3.167   0.453  0.00  0.00    -0.500 OA
ENDROOT
BRANCH   2   5
ATOM      5  C   LIG    1        1.079   1.992   0.741  0.00  0.00    +0.170 A 
ATOM      6  C   LIG    1        0.199   1.300   1.560  0.00  0.00    +0.070 A 
ATOM      7  C   LIG    1        0.362  -0.060   1.756  0.00  0.00    -0.020 A 
ATOM      8  C   LIG    1        1.401  -0.733   1.136  0.00  0.00    +0.050 A 
ATOM      9  C   LIG    1        2.281  -0.050   0.318  0.00  0.00    +0.050 A 
ATOM     10 CL   LIG    1       -0.739  -0.925   2.783  0.00  0.00    -0.050 Cl
ATOM     11  C   LIG    1        2.125   1.313   0.117  0.00  0.00    +0.120 A 
BRANCH  11  12
ATOM     12  N   LIG    1        3.018   2.008  -0.713  0.00  0.00    -0.330 N 
ATOM     13  C   LIG    1        4.050   1.487  -1.404  0.00  0.00    +0.500 A 
ATOM     14  N   LIG    1        4.635   2.460  -2.054  0.00  0.00    -0.530 NA
ATOM     15  C   LIG    1        4.014   3.611  -1.799  0.00  0.00    +0.450 A 
ATOM     16  N   LIG    1        3.018   3.386  -0.983  0.00  0.00    -0.330 NA
ENDBRANCH  11  12
ENDBRANCH   2   5
BRANCH   1  17
ATOM     17  C   LIG    1       -0.481   5.338   0.010  0.00  0.00    +0.220 C 
BRANCH  17  19
ATOM     18  C   LIG    1       -2.475   4.950  -1.308  0.00  0.00    +0.200 C 
ATOM     19  N   LIG    1       -1.909   5.646  -0.145  0.00  0.00    -0.510 NA
BRANCH  19  20
ATOM     20  C   LIG    1       -2.128   7.096  -0.241  0.00  0.00    +0.230 C 
BRANCH  20  21
ATOM     21  C   LIG    1       -3.584   7.401   0.001  0.00  0.00    -0.050 A 
ATOM     22  C   LIG    1       -4.423   7.660  -1.067  0.00  0.00    +0.020 A 
ATOM     23  C   LIG    1       -5.758   7.939  -0.845  0.00  0.00    +0.020 A 
ATOM     24  C   LIG    1       -6.255   7.961   0.444  0.00  0.00    +0.020 A 
ATOM     25  C   LIG    1       -5.417   7.704   1.513  0.00  0.00    +0.040 A 
ATOM     26  C   LIG    1       -4.082   7.418   1.291  0.00  0.00    -0.070 A 
ATOM     27 BR   LIG    1       -2.937   7.058   2.752  0.00  0.00    -0.040 Br
ENDBRANCH  20  21
ENDBRANCH  19  20
ENDBRANCH  17  19
ENDBRANCH   1  17
TORSDOF 6
