REMARK  Name = ZINCrg00000fRDcK.1
REMARK                            x       y       z     vdW  Elec       q    Type
REMARK                         _______ _______ _______ _____ _____    ______ ____
ROOT
ATOM      1  C   LIG    1       -0.739   1.584  -1.215  0.00  0.00    +0.540 C 
ATOM      2  N   LIG    1       -1.951   1.085  -1.528  0.00  0.00    -0.600 N 
ATOM      3  C   LIG    1       -2.623   0.133  -0.634  0.00  0.00    +0.280 C 
ATOM      4  C   LIG    1       -4.028   0.668  -0.317  0.00  0.00    +0.030 C 
ATOM      5  C   LIG    1       -4.774   0.933  -1.627  0.00  0.00    +0.110 C 
ATOM      6  C   LIG    1       -4.026   1.995  -2.436  0.00  0.00    +0.030 C 
ATOM      7  C   LIG    1       -2.623   1.479  -2.774  0.00  0.00    +0.300 C 
ATOM      8  O   LIG    1       -0.230   2.428  -1.921  0.00  0.00    -0.510 OA
ENDROOT
BRANCH   1  14
ATOM      9  C   LIG    1       -0.371   2.920   3.353  0.00  0.00    +0.300 C 
ATOM     10  N   LIG    1        0.241   2.283   2.184  0.00  0.00    -0.600 N 
ATOM     11  C   LIG    1        1.698   2.204   2.111  0.00  0.00    +0.240 C 
ATOM     12  C   LIG    1        2.111   1.139   1.093  0.00  0.00    +0.240 C 
ATOM     13  O   LIG    1        1.382   1.358  -0.121  0.00  0.00    -0.340 OA
ATOM     14  C   LIG    1       -0.016   1.091   0.012  0.00  0.00    +0.180 C 
ATOM     15  C   LIG    1       -0.556   1.797   1.225  0.00  0.00    +0.500 C 
ATOM     16  O   LIG    1       -1.756   1.930   1.339  0.00  0.00    -0.530 OA
ENDBRANCH   1  14
BRANCH   5  17
ATOM     17  C   LIG    1       -6.166   1.424  -1.321  0.00  0.00    +0.200 A 
ATOM     18  N   LIG    1       -7.245   1.164  -2.009  0.00  0.00    -0.280 NA
ATOM     19  N   LIG    1       -8.261   1.740  -1.471  0.00  0.00    -0.270 NA
ATOM     20  C   LIG    1       -7.879   2.403  -0.402  0.00  0.00    +0.220 A 
ATOM     21  N   LIG    1       -6.529   2.214  -0.275  0.00  0.00    -0.580 N 
ATOM     22  H   LIG    1       -5.951   2.571   0.417  0.00  0.00    +0.430 HD
BRANCH  20  23
ATOM     23  C   LIG    1       -8.745   3.198   0.496  0.00  0.00    -0.020 A 
ATOM     24  C   LIG    1       -8.197   3.847   1.603  0.00  0.00    +0.010 A 
ATOM     25  C   LIG    1       -9.010   4.590   2.435  0.00  0.00    +0.010 A 
ATOM     26  C   LIG    1      -10.366   4.684   2.179  0.00  0.00    +0.030 A 
ATOM     27  C   LIG    1      -10.916   4.039   1.086  0.00  0.00    +0.010 A 
ATOM     28  C   LIG    1      -10.114   3.296   0.244  0.00  0.00    +0.070 A 
ENDBRANCH  20  23
ENDBRANCH   5  17
TORSDOF 3
