REMARK  Name = ZINCrg00000fRDcK.0
REMARK                            x       y       z     vdW  Elec       q    Type
REMARK                         _______ _______ _______ _____ _____    ______ ____
ROOT
ATOM      1  C   LIG    1       -0.739   1.584  -1.215  0.00  0.00    +0.540 C 
ATOM      2  N   LIG    1       -1.992   1.161  -1.474  0.00  0.00    -0.600 N 
ATOM      3  C   LIG    1       -2.661   0.210  -0.576  0.00  0.00    +0.310 C 
ATOM      4  C   LIG    1       -3.156  -0.982  -1.393  0.00  0.00    +0.020 C 
ATOM      5  C   LIG    1       -4.032  -0.481  -2.543  0.00  0.00    +0.110 C 
ATOM      6  C   LIG    1       -3.205   0.425  -3.459  0.00  0.00    +0.040 C 
ATOM      7  C   LIG    1       -2.713   1.637  -2.662  0.00  0.00    +0.300 C 
ATOM      8  O   LIG    1       -0.195   2.365  -1.967  0.00  0.00    -0.510 OA
ENDROOT
BRANCH   1  14
ATOM      9  C   LIG    1       -0.838   2.481   3.473  0.00  0.00    +0.300 C 
ATOM     10  N   LIG    1       -0.069   2.072   2.295  0.00  0.00    -0.600 N 
ATOM     11  C   LIG    1        1.383   2.229   2.316  0.00  0.00    +0.240 C 
ATOM     12  C   LIG    1        2.018   1.353   1.233  0.00  0.00    +0.240 C 
ATOM     13  O   LIG    1        1.329   1.579  -0.002  0.00  0.00    -0.340 OA
ATOM     14  C   LIG    1       -0.013   1.086   0.008  0.00  0.00    +0.180 C 
ATOM     15  C   LIG    1       -0.724   1.569   1.241  0.00  0.00    +0.490 C 
ATOM     16  O   LIG    1       -1.934   1.501   1.283  0.00  0.00    -0.520 OA
ENDBRANCH   1  14
BRANCH   5  17
ATOM     17  C   LIG    1       -4.547  -1.657  -3.332  0.00  0.00    +0.300 A 
ATOM     18  N   LIG    1       -5.719  -1.741  -3.903  0.00  0.00    -0.530 NA
ATOM     19  C   LIG    1       -5.840  -2.926  -4.518  0.00  0.00    +0.270 A 
ATOM     20  N   LIG    1       -4.731  -3.608  -4.339  0.00  0.00    -0.300 NA
ATOM     21  N   LIG    1       -3.876  -2.798  -3.574  0.00  0.00    -0.480 N 
ATOM     22  H   LIG    1       -2.979  -3.018  -3.277  0.00  0.00    +0.440 HD
BRANCH  19  23
ATOM     23  C   LIG    1       -7.028  -3.390  -5.276  0.00  0.00    -0.020 A 
ATOM     24  C   LIG    1       -8.149  -2.570  -5.389  0.00  0.00    +0.060 A 
ATOM     25  C   LIG    1       -9.250  -3.005  -6.100  0.00  0.00    +0.010 A 
ATOM     26  C   LIG    1       -9.245  -4.256  -6.690  0.00  0.00    +0.030 A 
ATOM     27  C   LIG    1       -8.137  -5.076  -6.576  0.00  0.00    +0.010 A 
ATOM     28  C   LIG    1       -7.029  -4.649  -5.872  0.00  0.00    +0.050 A 
ENDBRANCH  19  23
ENDBRANCH   5  17
TORSDOF 3
