REMARK  Name = ZINCrH00000tj1cw.0
REMARK                            x       y       z     vdW  Elec       q    Type
REMARK                         _______ _______ _______ _____ _____    ______ ____
ROOT
ATOM      1  C   LIG    1      -11.326   6.927  -3.874  0.00  0.00    -0.660 A 
ATOM      2  C   LIG    1      -11.066   6.924  -2.513  0.00  0.00    +0.150 A 
ATOM      3  C   LIG    1       -9.899   6.371  -2.024  0.00  0.00    +0.050 A 
ATOM      4  C   LIG    1       -8.979   5.816  -2.898  0.00  0.00    +0.060 A 
ATOM      5  O   LIG    1       -7.778   5.215  -2.735  0.00  0.00    -0.210 OA
ATOM      6  C   LIG    1       -7.317   4.863  -3.949  0.00  0.00    +0.200 A 
ATOM      7  N   LIG    1       -8.172   5.219  -4.875  0.00  0.00    -0.450 NA
ATOM      8  C   LIG    1       -9.239   5.816  -4.277  0.00  0.00    +0.010 A 
ATOM      9  C   LIG    1      -10.422   6.378  -4.758  0.00  0.00    +0.210 A 
ENDROOT
BRANCH   1  10
ATOM     10  S   LIG    1      -12.822   7.636  -4.479  0.00  0.00    +2.500 S 
ATOM     11  O   LIG    1      -12.509   8.031  -5.808  0.00  0.00    -0.930 OA
ATOM     12  O   LIG    1      -13.178   8.596  -3.493  0.00  0.00    -0.930 OA
BRANCH  10  14
ATOM     13  C   LIG    1      -15.359   6.756  -4.997  0.00  0.00    +0.100 C 
ATOM     14  C   LIG    1      -14.005   6.261  -4.485  0.00  0.00    -0.320 C 
ENDBRANCH  10  14
ENDBRANCH   1  10
BRANCH   6  15
ATOM     15  S   LIG    1       -5.784   4.048  -4.249  0.00  0.00    +0.170 S 
BRANCH  15  16
ATOM     16  C   LIG    1       -5.171   3.895  -2.553  0.00  0.00    +0.080 C 
BRANCH  16  17
ATOM     17  C   LIG    1       -3.831   3.207  -2.563  0.00  0.00    +0.540 C 
ATOM     18  N   LIG    1       -3.180   2.983  -1.404  0.00  0.00    -0.720 N 
ATOM     19  H   LIG    1       -3.574   3.265  -0.564  0.00  0.00    +0.400 HD
ATOM     20  O   LIG    1       -3.338   2.854  -3.613  0.00  0.00    -0.520 OA
BRANCH  18  21
ATOM     21  C   LIG    1       -1.877   2.314  -1.414  0.00  0.00    +0.260 C 
BRANCH  21  22
ATOM     22  C   LIG    1       -1.359   2.185   0.020  0.00  0.00    +0.060 C 
BRANCH  22  23
ATOM     23  C   LIG    1       -0.018   1.496   0.010  0.00  0.00    -0.120 C 
ATOM     24  C   LIG    1        1.044   2.236   0.004  0.00  0.00    -0.040 C 
ATOM     25  C   LIG    1        2.444   1.697  -0.022  0.00  0.00    +0.050 C 
ATOM     26  C   LIG    1        2.448   0.221   0.383  0.00  0.00    +0.010 C 
ATOM     27  C   LIG    1        1.378  -0.510  -0.437  0.00  0.00    +0.020 C 
ATOM     28  C   LIG    1        0.002  -0.004   0.002  0.00  0.00    +0.060 C 
ENDBRANCH  22  23
ENDBRANCH  21  22
ENDBRANCH  18  21
ENDBRANCH  16  17
ENDBRANCH  15  16
ENDBRANCH   6  15
TORSDOF 8
