REMARK  Name = ZINC9p0000002pVd.0
REMARK                            x       y       z     vdW  Elec       q    Type
REMARK                         _______ _______ _______ _____ _____    ______ ____
ROOT
ATOM      1  C   LIG    1       -0.751   1.592  -1.232  0.00  0.00    +0.090 C 
ATOM      2  C   LIG    1       -0.013   1.086   0.008  0.00  0.00    +0.160 C 
ATOM      3  C   LIG    1        1.423   1.615  -0.003  0.00  0.00    +0.060 C 
ATOM      4  C   LIG    1        2.158   1.106   1.240  0.00  0.00    +0.040 C 
ATOM      5  C   LIG    1        1.389   1.542   2.491  0.00  0.00    +0.070 C 
ATOM      6  C   LIG    1       -0.046   1.016   2.409  0.00  0.00    +0.060 C 
ATOM      7  C   LIG    1       -0.819   1.449   3.656  0.00  0.00    +0.090 C 
ATOM      8  C   LIG    1       -0.024  -0.512   2.329  0.00  0.00    +0.080 C 
ATOM      9  N   LIG    1       -0.703   1.558   1.214  0.00  0.00    -0.500 N 
ATOM     10  H   LIG    1       -1.664   1.253   1.192  0.00  0.00    +0.430 HD
ATOM     11  H   LIG    1       -0.674   2.567   1.244  0.00  0.00    +0.420 HD
ENDROOT
TORSDOF 0
