REMARK  Name = ZINCpk00000y6une.0
REMARK                            x       y       z     vdW  Elec       q    Type
REMARK                         _______ _______ _______ _____ _____    ______ ____
ROOT
ATOM      1  C   LIG    1       -4.470   3.709  -2.063  0.00  0.00    +0.520 C 
ATOM      2  N   LIG    1       -4.621   5.038  -2.228  0.00  0.00    -0.610 N 
ATOM      3  C   LIG    1       -3.967   5.985  -1.314  0.00  0.00    +0.270 C 
ATOM      4  C   LIG    1       -5.026   6.940  -0.754  0.00  0.00    +0.030 C 
ATOM      5  C   LIG    1       -5.776   7.601  -1.912  0.00  0.00    +0.040 C 
ATOM      6  C   LIG    1       -6.484   6.527  -2.742  0.00  0.00    +0.080 C 
ATOM      7  C   LIG    1       -5.438   5.568  -3.328  0.00  0.00    +0.290 C 
ATOM      8  O   LIG    1       -5.091   2.937  -2.762  0.00  0.00    -0.530 OA
ENDROOT
BRANCH   1  13
ATOM      9  C   LIG    1       -2.574   0.068   1.491  0.00  0.00    +0.550 C 
ATOM     10  N   LIG    1       -2.601   1.236   0.820  0.00  0.00    -0.610 N 
ATOM     11  C   LIG    1       -1.883   1.384  -0.454  0.00  0.00    +0.270 C 
ATOM     12  C   LIG    1       -2.870   1.896  -1.514  0.00  0.00    +0.040 C 
ATOM     13  C   LIG    1       -3.528   3.183  -1.011  0.00  0.00    -0.010 C 
ATOM     14  C   LIG    1       -4.309   2.890   0.272  0.00  0.00    +0.040 C 
ATOM     15  C   LIG    1       -3.344   2.388   1.350  0.00  0.00    +0.280 C 
ATOM     16  O   LIG    1       -3.245  -0.071   2.496  0.00  0.00    -0.540 OA
BRANCH   9  18
ATOM     17  C   LIG    1       -1.639  -2.160   1.718  0.00  0.00    +0.140 C 
ATOM     18  C   LIG    1       -1.738  -1.041   1.006  0.00  0.00    -0.090 C 
ENDBRANCH   9  18
ENDBRANCH   1  13
BRANCH   6  19
ATOM     19  C   LIG    1       -7.249   7.182  -3.863  0.00  0.00    +0.180 A 
ATOM     20  N   LIG    1       -6.746   7.922  -4.814  0.00  0.00    -0.290 NA
ATOM     21  N   LIG    1       -7.686   8.315  -5.599  0.00  0.00    -0.290 NA
ATOM     22  C   LIG    1       -8.830   7.843  -5.186  0.00  0.00    +0.370 A 
ATOM     23  N   LIG    1       -8.585   7.106  -4.076  0.00  0.00    -0.470 N 
BRANCH  23  24
ATOM     24  C   LIG    1       -9.566   6.378  -3.267  0.00  0.00    +0.300 C 
ATOM     25  C   LIG    1      -10.011   7.255  -2.094  0.00  0.00    +0.040 C 
ENDBRANCH  23  24
ENDBRANCH   6  19
TORSDOF 4
