REMARK  Name = ZINCvU0000000FMQ.0
REMARK                            x       y       z     vdW  Elec       q    Type
REMARK                         _______ _______ _______ _____ _____    ______ ____
ROOT
ATOM      1  S   LIG    1        5.838   0.526   0.136  0.00  0.00    +0.130 S 
ENDROOT
BRANCH   1   2
ATOM      2  C   LIG    1        4.180  -0.068   0.117  0.00  0.00    +0.130 A 
ATOM      3  N   LIG    1        3.806  -1.324   0.052  0.00  0.00    -0.280 NA
ATOM      4  N   LIG    1        2.521  -1.391   0.065  0.00  0.00    -0.260 NA
ATOM      5  C   LIG    1        2.022  -0.178   0.128  0.00  0.00    +0.250 A 
ATOM      6  O   LIG    1        3.063   0.684   0.165  0.00  0.00    -0.200 OA
BRANCH   5   7
ATOM      7  C   LIG    1        0.595   0.176   0.158  0.00  0.00    -0.150 A 
ATOM      8  C   LIG    1       -0.433  -0.707   0.118  0.00  0.00    +0.100 A 
ATOM      9  C   LIG    1       -1.699  -0.141   0.152  0.00  0.00    -0.110 A 
ATOM     10  C   LIG    1       -1.695   1.206   0.229  0.00  0.00    -0.160 A 
ATOM     11  C   LIG    1       -2.938   2.070   0.284  0.00  0.00    +0.120 C 
ATOM     12  C   LIG    1       -4.134   1.188   0.655  0.00  0.00    +0.040 C 
ATOM     13  C   LIG    1       -4.145  -0.044  -0.255  0.00  0.00    -0.010 C 
ATOM     14  C   LIG    1       -5.466  -0.795  -0.082  0.00  0.00    +0.030 C 
ATOM     15  C   LIG    1       -2.982  -0.963   0.123  0.00  0.00    +0.110 C 
ATOM     16  S   LIG    1       -0.044   1.811   0.249  0.00  0.00    +0.170 S 
ENDBRANCH   5   7
ENDBRANCH   1   2
BRANCH   1  17
ATOM     17  C   LIG    1        6.735  -1.043   0.045  0.00  0.00    +0.090 C 
BRANCH  17  18
ATOM     18  C   LIG    1        8.218  -0.775   0.048  0.00  0.00    +0.450 C 
ATOM     19  O   LIG    1        8.629   0.365   0.106  0.00  0.00    -0.460 OA
BRANCH  18  23
ATOM     20  N   LIG    1       11.034  -3.065  -0.096  0.00  0.00    -0.430 N 
ATOM     21  C   LIG    1       10.016  -3.973  -0.137  0.00  0.00    +0.010 A 
ATOM     22  C   LIG    1        8.842  -3.322  -0.087  0.00  0.00    +0.000 A 
ATOM     23  C   LIG    1        9.164  -1.891  -0.019  0.00  0.00    -0.260 A 
ATOM     24  C   LIG    1       10.183  -5.469  -0.218  0.00  0.00    +0.130 C 
ATOM     25  C   LIG    1       10.544  -1.814  -0.025  0.00  0.00    +0.130 A 
ATOM     26  C   LIG    1       11.360  -0.548   0.037  0.00  0.00    +0.160 C 
BRANCH  20  27
ATOM     27  C   LIG    1       12.459  -3.404  -0.125  0.00  0.00    +0.240 C 
ATOM     28  C   LIG    1       13.160  -2.765   1.075  0.00  0.00    +0.060 C 
BRANCH  27  29
ATOM     29  C   LIG    1       13.082  -2.878  -1.420  0.00  0.00    +0.170 C 
BRANCH  29  31
ATOM     30  C   LIG    1       15.110  -2.893  -2.696  0.00  0.00    +0.210 C 
ATOM     31  O   LIG    1       14.433  -3.331  -1.517  0.00  0.00    -0.390 OA
ENDBRANCH  29  31
ENDBRANCH  27  29
ENDBRANCH  20  27
ENDBRANCH  18  23
ENDBRANCH  17  18
ENDBRANCH   1  17
TORSDOF 8
