REMARK  Name = ZINCue00000001mT.0
REMARK                            x       y       z     vdW  Elec       q    Type
REMARK                         _______ _______ _______ _____ _____    ______ ____
ROOT
ATOM      1  N   LIG    1        3.237   5.377  -0.255  0.00  0.00    -0.560 N 
ATOM      2  H   LIG    1        2.517   6.025  -0.209  0.00  0.00    +0.380 HD
ATOM      3  C   LIG    1        4.506   5.760  -0.012  0.00  0.00    +0.720 C 
ATOM      4  N   LIG    1        5.484   4.837   0.075  0.00  0.00    -0.620 N 
ATOM      5  C   LIG    1        6.896   5.240   0.169  0.00  0.00    +0.280 C 
ATOM      6  C   LIG    1        7.525   4.514   1.369  0.00  0.00    +0.180 C 
ATOM      7  N   LIG    1        7.300   3.069   1.234  0.00  0.00    -0.490 N 
ATOM      8  C   LIG    1        5.867   2.748   1.271  0.00  0.00    +0.160 C 
ATOM      9  C   LIG    1        5.169   3.401   0.073  0.00  0.00    +0.320 C 
ATOM     10  O   LIG    1        4.768   6.939   0.129  0.00  0.00    -0.640 OA
ENDROOT
BRANCH   7  11
ATOM     11  C   LIG    1        7.999   2.359   2.216  0.00  0.00    +0.120 A 
ATOM     12  C   LIG    1        7.319   1.494   3.064  0.00  0.00    -0.030 A 
ATOM     13  C   LIG    1        8.011   0.789   4.030  0.00  0.00    +0.010 A 
ATOM     14  C   LIG    1        9.382   0.953   4.160  0.00  0.00    +0.060 A 
ATOM     15  C   LIG    1       10.061   1.821   3.317  0.00  0.00    +0.010 A 
ATOM     16  C   LIG    1        9.372   2.522   2.348  0.00  0.00    +0.000 A 
BRANCH  14  17
ATOM     17  O   LIG    1       10.061   0.263   5.115  0.00  0.00    -0.500 OA
ATOM     18  H   LIG    1       10.124   0.723   5.963  0.00  0.00    +0.380 HD
ENDBRANCH  14  17
ENDBRANCH   7  11
BRANCH   1  21
ATOM     19  O   LIG    1        0.787   4.470  -0.761  0.00  0.00    -0.670 OA
ATOM     20  C   LIG    1        1.690   3.658  -0.819  0.00  0.00    +0.460 C 
ATOM     21  N   LIG    1        2.959   4.041  -0.576  0.00  0.00    -0.480 NA
BRANCH  20  22
ATOM     22  C   LIG    1        1.397   2.255  -1.156  0.00  0.00    +0.110 A 
ATOM     23  C   LIG    1        0.145   1.816  -1.409  0.00  0.00    -0.040 A 
ATOM     24  S   LIG    1        0.226   0.093  -1.767  0.00  0.00    -0.000 S 
ATOM     25  C   LIG    1        1.972   0.122  -1.538  0.00  0.00    +0.250 A 
ATOM     26  N   LIG    1        2.350   1.322  -1.233  0.00  0.00    -0.440 NA
BRANCH  25  27
ATOM     27  N   LIG    1        2.811  -0.972  -1.665  0.00  0.00    -0.440 N 
ATOM     28  C   LIG    1        3.869  -0.712  -2.652  0.00  0.00    +0.180 C 
ATOM     29  C   LIG    1        4.807  -1.921  -2.717  0.00  0.00    +0.240 C 
ATOM     30  O   LIG    1        4.047  -3.091  -3.032  0.00  0.00    -0.380 OA
ATOM     31  C   LIG    1        3.009  -3.374  -2.090  0.00  0.00    +0.250 C 
ATOM     32  C   LIG    1        2.053  -2.180  -2.019  0.00  0.00    +0.170 C 
ENDBRANCH  25  27
ENDBRANCH  20  22
ENDBRANCH   1  21
TORSDOF 5
