REMARK  Name = ZINCvU0000000D57.0
REMARK                            x       y       z     vdW  Elec       q    Type
REMARK                         _______ _______ _______ _____ _____    ______ ____
ROOT
ATOM      1  O   LIG    1       -0.910   6.698  -1.734  0.00  0.00    -0.490 OA
ATOM      2  C   LIG    1       -1.801   6.761  -0.914  0.00  0.00    +0.540 C 
ATOM      3  N   LIG    1       -2.505   7.901  -0.770  0.00  0.00    -0.610 N 
ATOM      4  H   LIG    1       -3.217   7.952  -0.113  0.00  0.00    +0.430 HD
ENDROOT
BRANCH   3   5
ATOM      5  C   LIG    1       -2.210   9.004  -1.562  0.00  0.00    +0.270 A 
ATOM      6  N   LIG    1       -2.819  10.148  -1.510  0.00  0.00    -0.500 NA
ATOM      7  C   LIG    1       -2.402  11.090  -2.344  0.00  0.00    +0.120 A 
ATOM      8  C   LIG    1       -1.385  10.737  -3.150  0.00  0.00    -0.100 A 
ATOM      9  S   LIG    1       -0.947   9.069  -2.787  0.00  0.00    +0.220 S 
BRANCH   7  10
ATOM     10  C   LIG    1       -3.014  12.441  -2.385  0.00  0.00    -0.000 A 
ATOM     11  C   LIG    1       -2.534  13.399  -3.276  0.00  0.00    +0.060 A 
ATOM     12  C   LIG    1       -3.110  14.652  -3.315  0.00  0.00    +0.030 A 
ATOM     13  C   LIG    1       -4.155  14.964  -2.463  0.00  0.00    +0.070 A 
ATOM     14  C   LIG    1       -4.633  14.016  -1.569  0.00  0.00    +0.070 A 
ATOM     15  F   LIG    1       -5.654  14.325  -0.739  0.00  0.00    -0.130 F 
ATOM     16  F   LIG    1       -4.712  16.194  -2.502  0.00  0.00    -0.130 F 
ATOM     17  C   LIG    1       -4.066  12.757  -1.527  0.00  0.00    +0.060 A 
ENDBRANCH   7  10
ENDBRANCH   3   5
BRANCH   2  18
ATOM     18  C   LIG    1       -2.120   5.565  -0.055  0.00  0.00    +0.110 C 
BRANCH  18  19
ATOM     19  S   LIG    1       -1.010   4.201  -0.483  0.00  0.00    +0.110 S 
BRANCH  19  20
ATOM     20  C   LIG    1       -1.589   2.971   0.639  0.00  0.00    +0.140 A 
ATOM     21  N   LIG    1       -2.567   3.106   1.505  0.00  0.00    -0.280 NA
ATOM     22  N   LIG    1       -2.724   2.017   2.169  0.00  0.00    -0.260 NA
ATOM     23  C   LIG    1       -1.857   1.115   1.763  0.00  0.00    +0.270 A 
ATOM     24  N   LIG    1       -1.105   1.699   0.767  0.00  0.00    -0.430 N 
BRANCH  23  25
ATOM     25  C   LIG    1       -1.716  -0.257   2.276  0.00  0.00    -0.140 A 
ATOM     26  C   LIG    1       -2.253  -0.719   3.426  0.00  0.00    +0.090 A 
ATOM     27  C   LIG    1       -1.983  -2.044   3.696  0.00  0.00    +0.010 A 
ATOM     28  C   LIG    1       -1.234  -2.667   2.780  0.00  0.00    -0.020 A 
ATOM     29  S   LIG    1       -0.831  -1.553   1.482  0.00  0.00    +0.120 S 
ENDBRANCH  23  25
BRANCH  24  30
ATOM     30  C   LIG    1       -0.013   1.086   0.008  0.00  0.00    +0.190 C 
ATOM     31  C   LIG    1        0.415   1.770  -1.292  0.00  0.00    +0.080 C 
ATOM     32  C   LIG    1        1.315   1.844  -0.056  0.00  0.00    +0.060 C 
ENDBRANCH  24  30
ENDBRANCH  19  20
ENDBRANCH  18  19
ENDBRANCH   2  18
TORSDOF 7
