REMARK  Name = ZINCwl0000000wA2.1
REMARK                            x       y       z     vdW  Elec       q    Type
REMARK                         _______ _______ _______ _____ _____    ______ ____
ROOT
ATOM      1  C   LIG    1       -0.396   1.386  -2.454  0.00  0.00    +0.500 C 
ATOM      2  N   LIG    1       -0.746   1.584  -1.168  0.00  0.00    -0.610 N 
ATOM      3  C   LIG    1       -1.927   2.336  -0.704  0.00  0.00    +0.250 C 
ATOM      4  C   LIG    1       -1.567   2.798   0.733  0.00  0.00    +0.050 C 
ATOM      5  C   LIG    1       -0.753   1.592   1.253  0.00  0.00    +0.100 C 
ATOM      6  C   LIG    1        0.240   2.038   2.336  0.00  0.00    +0.050 C 
ATOM      7  C   LIG    1        0.205   0.834   3.319  0.00  0.00    +0.230 C 
ATOM      8  C   LIG    1       -1.272   0.382   3.185  0.00  0.00    +0.210 C 
ATOM      9  O   LIG    1       -1.605   0.593   1.800  0.00  0.00    -0.350 OA
ATOM     10  C   LIG    1       -0.013   1.086   0.008  0.00  0.00    +0.290 C 
ATOM     11  O   LIG    1        0.601   0.749  -2.720  0.00  0.00    -0.520 OA
ENDROOT
BRANCH   7  12
ATOM     12  N   LIG    1        0.503   1.262   4.688  0.00  0.00    -0.710 N 
ATOM     13  H   LIG    1        0.334   2.179   4.957  0.00  0.00    +0.410 HD
ATOM     14  C   LIG    1        1.012   0.384   5.574  0.00  0.00    +0.610 C 
ATOM     15  O   LIG    1        1.224  -0.765   5.237  0.00  0.00    -0.520 OA
BRANCH  14  16
ATOM     16  C   LIG    1        1.312   0.815   6.951  0.00  0.00    -0.010 A 
ATOM     17  N   LIG    1        1.136   2.017   7.457  0.00  0.00    -0.200 NA
ATOM     18  N   LIG    1        1.493   2.076   8.688  0.00  0.00    -0.410 N 
ATOM     19  H   LIG    1        1.440   2.876   9.236  0.00  0.00    +0.450 HD
ATOM     20  C   LIG    1        1.959   0.866   9.130  0.00  0.00    +0.060 A 
ATOM     21  C   LIG    1        2.456   0.390  10.339  0.00  0.00    +0.010 A 
ATOM     22  C   LIG    1        2.849  -0.925  10.445  0.00  0.00    +0.060 A 
ATOM     23  C   LIG    1        2.754  -1.784   9.358  0.00  0.00    +0.000 A 
ATOM     24  C   LIG    1        2.269  -1.337   8.160  0.00  0.00    +0.090 A 
ATOM     25  C   LIG    1        1.860  -0.013   8.034  0.00  0.00    -0.110 A 
ENDBRANCH  14  16
ENDBRANCH   7  12
BRANCH   1  26
ATOM     26  C   LIG    1       -1.244   1.957  -3.562  0.00  0.00    +0.330 C 
BRANCH  26  28
ATOM     27  C   LIG    1       -1.049   0.364  -5.527  0.00  0.00    +0.330 C 
ATOM     28  N   LIG    1       -0.655   1.606  -4.857  0.00  0.00    -0.550 NA
BRANCH  28  29
ATOM     29  C   LIG    1        0.277   2.452  -5.450  0.00  0.00    +0.320 C 
ATOM     30  C   LIG    1        0.660   3.641  -4.830  0.00  0.00    -0.040 C 
ATOM     31  C   LIG    1        1.591   4.449  -5.449  0.00  0.00    +0.370 C 
ATOM     32  N   LIG    1        2.108   4.114  -6.616  0.00  0.00    -0.500 NA
ATOM     33  C   LIG    1        1.768   3.000  -7.236  0.00  0.00    +0.380 C 
ATOM     34  H   LIG    1        2.758   4.704  -7.029  0.00  0.00    +0.450 HD
ATOM     35  C   LIG    1        0.848   2.135  -6.683  0.00  0.00    -0.030 C 
ENDBRANCH  28  29
ENDBRANCH  26  28
ENDBRANCH   1  26
TORSDOF 5
