REMARK  Name = ZINCwl0000000wA2.0
REMARK                            x       y       z     vdW  Elec       q    Type
REMARK                         _______ _______ _______ _____ _____    ______ ____
ROOT
ATOM      1  C   LIG    1       -1.124   2.242   0.020  0.00  0.00    +0.510 C 
ATOM      2  N   LIG    1       -0.018   1.472   0.010  0.00  0.00    -0.610 N 
ATOM      3  C   LIG    1        1.368   1.964  -0.001  0.00  0.00    +0.260 C 
ATOM      4  C   LIG    1        2.295   0.728   0.009  0.00  0.00    +0.050 C 
ATOM      5  C   LIG    1        1.382  -0.380   0.569  0.00  0.00    +0.100 C 
ATOM      6  C   LIG    1        1.824  -1.758   0.060  0.00  0.00    +0.050 C 
ATOM      7  C   LIG    1        1.546  -2.660   1.296  0.00  0.00    +0.240 C 
ATOM      8  C   LIG    1        1.842  -1.675   2.457  0.00  0.00    +0.210 C 
ATOM      9  O   LIG    1        1.383  -0.393   1.989  0.00  0.00    -0.350 OA
ATOM     10  C   LIG    1        0.002  -0.004   0.002  0.00  0.00    +0.280 C 
ATOM     11  O   LIG    1       -2.222   1.726   0.022  0.00  0.00    -0.520 OA
ENDROOT
BRANCH   7  12
ATOM     12  N   LIG    1        2.458  -3.806   1.330  0.00  0.00    -0.720 N 
ATOM     13  H   LIG    1        3.321  -3.752   0.890  0.00  0.00    +0.400 HD
ATOM     14  C   LIG    1        2.098  -4.935   1.972  0.00  0.00    +0.600 C 
ATOM     15  O   LIG    1        1.016  -5.003   2.523  0.00  0.00    -0.510 OA
BRANCH  14  16
ATOM     16  C   LIG    1        3.010  -6.080   2.005  0.00  0.00    -0.050 A 
ATOM     17  C   LIG    1        2.788  -7.314   2.631  0.00  0.00    -0.080 A 
ATOM     18  C   LIG    1        1.754  -7.905   3.368  0.00  0.00    +0.070 A 
ATOM     19  C   LIG    1        1.901  -9.178   3.826  0.00  0.00    +0.020 A 
ATOM     20  C   LIG    1        3.057  -9.916   3.573  0.00  0.00    +0.030 A 
ATOM     21  C   LIG    1        4.093  -9.403   2.860  0.00  0.00    +0.070 A 
ATOM     22  C   LIG    1        4.007  -8.089   2.356  0.00  0.00    +0.050 A 
ATOM     23  N   LIG    1        4.795  -7.300   1.648  0.00  0.00    -0.250 NA
ATOM     24  N   LIG    1        4.247  -6.157   1.439  0.00  0.00    -0.320 N 
ATOM     25  H   LIG    1        4.662  -5.437   0.939  0.00  0.00    +0.450 HD
ENDBRANCH  14  16
ENDBRANCH   7  12
BRANCH   1  26
ATOM     26  C   LIG    1       -0.997   3.744   0.027  0.00  0.00    +0.330 C 
BRANCH  26  28
ATOM     27  C   LIG    1       -2.993   4.641   1.311  0.00  0.00    +0.330 C 
ATOM     28  N   LIG    1       -2.332   4.347   0.037  0.00  0.00    -0.550 NA
BRANCH  28  29
ATOM     29  C   LIG    1       -2.972   4.640  -1.163  0.00  0.00    +0.320 C 
ATOM     30  C   LIG    1       -2.357   4.372  -2.386  0.00  0.00    -0.040 C 
ATOM     31  C   LIG    1       -3.027   4.673  -3.553  0.00  0.00    +0.370 C 
ATOM     32  N   LIG    1       -4.229   5.216  -3.522  0.00  0.00    -0.500 NA
ATOM     33  C   LIG    1       -4.843   5.489  -2.386  0.00  0.00    +0.380 C 
ATOM     34  H   LIG    1       -4.675   5.421  -4.359  0.00  0.00    +0.450 HD
ATOM     35  C   LIG    1       -4.243   5.214  -1.175  0.00  0.00    -0.030 C 
ENDBRANCH  28  29
ENDBRANCH  26  28
ENDBRANCH   1  26
TORSDOF 5
