REMARK  Name = ZINCrH000004mRzf.0
REMARK                            x       y       z     vdW  Elec       q    Type
REMARK                         _______ _______ _______ _____ _____    ______ ____
ROOT
ATOM      1  N   LIG    1       -2.470   1.296  -0.033  0.00  0.00    -0.660 N 
ATOM      2  H   LIG    1       -2.406   0.332   0.050  0.00  0.00    +0.410 HD
ATOM      3  C   LIG    1       -3.675   1.882  -0.175  0.00  0.00    +0.570 C 
ATOM      4  O   LIG    1       -3.763   3.095  -0.194  0.00  0.00    -0.510 OA
ENDROOT
BRANCH   3   5
ATOM      5  C   LIG    1       -4.888   1.053  -0.307  0.00  0.00    -0.120 A 
ATOM      6  C   LIG    1       -4.788  -0.340  -0.291  0.00  0.00    +0.080 A 
ATOM      7  C   LIG    1       -5.923  -1.116  -0.410  0.00  0.00    -0.040 A 
ATOM      8  C   LIG    1       -7.163  -0.510  -0.555  0.00  0.00    +0.110 A 
ATOM      9  O   LIG    1       -8.288  -1.272  -0.678  0.00  0.00    -0.310 OA
ATOM     10  C   LIG    1       -9.202  -1.217   0.419  0.00  0.00    +0.230 C 
ATOM     11  C   LIG    1      -10.135  -0.023   0.285  0.00  0.00    +0.000 C 
ATOM     12  C   LIG    1       -9.394   1.302   0.376  0.00  0.00    +0.230 C 
ATOM     13  O   LIG    1       -8.495   1.457  -0.724  0.00  0.00    -0.310 OA
ATOM     14  C   LIG    1       -7.269   0.876  -0.578  0.00  0.00    +0.070 A 
ATOM     15 CL   LIG    1       -5.799  -2.848  -0.384  0.00  0.00    -0.040 Cl
ATOM     16  C   LIG    1       -6.139   1.660  -0.454  0.00  0.00    +0.110 A 
ENDBRANCH   3   5
BRANCH   1  22
ATOM     17  C   LIG    1       -0.127   1.594  -0.563  0.00  0.00    +0.090 A 
ATOM     18  C   LIG    1        1.018   2.372  -0.540  0.00  0.00    -0.030 A 
ATOM     19  C   LIG    1        0.993   3.627   0.039  0.00  0.00    +0.050 A 
ATOM     20  C   LIG    1       -0.182   4.112   0.599  0.00  0.00    +0.130 A 
ATOM     21  C   LIG    1       -1.333   3.335   0.579  0.00  0.00    +0.040 A 
ATOM     22  C   LIG    1       -1.309   2.079  -0.006  0.00  0.00    +0.130 A 
BRANCH  20  23
ATOM     23  N   LIG    1       -0.206   5.384   1.185  0.00  0.00    -0.670 N 
ATOM     24  H   LIG    1       -0.850   5.585   1.882  0.00  0.00    +0.410 HD
ATOM     25  C   LIG    1        0.666   6.329   0.780  0.00  0.00    +0.510 C 
ATOM     26  O   LIG    1        1.400   6.113  -0.162  0.00  0.00    -0.520 OA
ATOM     27  C   LIG    1        0.730   7.652   1.497  0.00  0.00    +0.110 C 
ENDBRANCH  20  23
BRANCH  17  29
ATOM     28  C   LIG    1        1.144  -0.070  -1.691  0.00  0.00    +0.250 C 
ATOM     29  O   LIG    1       -0.100   0.360  -1.134  0.00  0.00    -0.320 OA
ENDBRANCH  17  29
ENDBRANCH   1  22
TORSDOF 4
