REMARK  Name = ZINCvU000000070W.0
REMARK                            x       y       z     vdW  Elec       q    Type
REMARK                         _______ _______ _______ _____ _____    ______ ____
ROOT
ATOM      1  C   LIG    1        6.350   6.962  -1.639  0.00  0.00    +0.310 A 
ATOM      2  N   LIG    1        6.171   6.350  -0.510  0.00  0.00    -0.340 NA
ATOM      3  N   LIG    1        5.057   5.543  -0.440  0.00  0.00    -0.260 NA
ATOM      4  C   LIG    1        4.334   5.491  -1.515  0.00  0.00    +0.010 A 
ATOM      5  S   LIG    1        5.052   6.526  -2.745  0.00  0.00    +0.100 S 
ENDROOT
BRANCH   1   6
ATOM      6  N   LIG    1        7.400   7.825  -1.930  0.00  0.00    -0.620 N 
ATOM      7  H   LIG    1        7.505   8.175  -2.828  0.00  0.00    +0.430 HD
BRANCH   6  11
ATOM      8  C   LIG    1       10.096   8.909   1.059  0.00  0.00    +0.120 A 
ATOM      9  C   LIG    1       10.511   8.859  -0.264  0.00  0.00    +0.010 A 
ATOM     10  C   LIG    1        9.618   8.500  -1.254  0.00  0.00    +0.030 A 
ATOM     11  C   LIG    1        8.305   8.189  -0.926  0.00  0.00    +0.120 A 
ATOM     12  C   LIG    1        7.889   8.245   0.398  0.00  0.00    +0.060 A 
ATOM     13  C   LIG    1        8.784   8.599   1.388  0.00  0.00    -0.050 A 
BRANCH   8  14
ATOM     14  O   LIG    1       10.975   9.263   2.034  0.00  0.00    -0.320 OA
BRANCH  14  16
ATOM     15  C   LIG    1       11.605   9.711   4.324  0.00  0.00    +0.070 C 
ATOM     16  C   LIG    1       10.480   9.294   3.374  0.00  0.00    +0.170 C 
ENDBRANCH  14  16
ENDBRANCH   8  14
ENDBRANCH   6  11
ENDBRANCH   1   6
BRANCH   4  17
ATOM     17  S   LIG    1        2.863   4.541  -1.711  0.00  0.00    +0.060 S 
BRANCH  17  18
ATOM     18  C   LIG    1        2.687   3.724  -0.101  0.00  0.00    +0.200 C 
BRANCH  18  19
ATOM     19  C   LIG    1        1.453   2.859  -0.109  0.00  0.00    +0.210 A 
ATOM     20  C   LIG    1        1.563   1.500  -0.203  0.00  0.00    -0.100 A 
ATOM     21  C   LIG    1        0.404   0.719  -0.208  0.00  0.00    +0.530 A 
ATOM     22  N   LIG    1       -0.819   1.322  -0.124  0.00  0.00    -0.470 N 
ATOM     23  C   LIG    1       -2.051   0.664  -0.113  0.00  0.00    +0.090 A 
ATOM     24  C   LIG    1       -2.266  -0.721  -0.196  0.00  0.00    +0.080 A 
ATOM     25  C   LIG    1       -3.541  -1.234  -0.179  0.00  0.00    +0.050 A 
ATOM     26  C   LIG    1       -4.641  -0.398  -0.080  0.00  0.00    +0.050 A 
ATOM     27  C   LIG    1       -4.452   0.967   0.003  0.00  0.00    +0.100 A 
ATOM     28  C   LIG    1       -3.168   1.487  -0.013  0.00  0.00    -0.150 A 
ATOM     29  S   LIG    1       -2.555   3.143   0.071  0.00  0.00    +0.210 S 
ATOM     30  C   LIG    1       -0.850   2.675  -0.028  0.00  0.00    +0.340 A 
ATOM     31  O   LIG    1        0.484  -0.496  -0.292  0.00  0.00    -0.510 OA
ATOM     32  N   LIG    1        0.248   3.410  -0.024  0.00  0.00    -0.490 NA
ENDBRANCH  18  19
ENDBRANCH  17  18
ENDBRANCH   4  17
TORSDOF 7
