REMARK  Name = ZINCpk00000eaUf6.0
REMARK                            x       y       z     vdW  Elec       q    Type
REMARK                         _______ _______ _______ _____ _____    ______ ____
ROOT
ATOM      1  C   LIG    1       -2.741   4.347   0.381  0.00  0.00    +0.580 C 
ATOM      2  N   LIG    1       -2.586   5.680   0.257  0.00  0.00    -0.610 N 
ATOM      3  C   LIG    1       -1.298   6.397   0.238  0.00  0.00    +0.270 C 
ATOM      4  C   LIG    1       -1.639   7.836   0.698  0.00  0.00    +0.040 C 
ATOM      5  C   LIG    1       -3.023   8.056   0.033  0.00  0.00    +0.050 C 
ATOM      6  C   LIG    1       -3.673   6.659   0.112  0.00  0.00    +0.210 C 
ATOM      7  O   LIG    1       -1.767   3.619   0.380  0.00  0.00    -0.520 OA
ENDROOT
BRANCH   1  11
ATOM      8  C   LIG    1       -5.695   0.364   0.913  0.00  0.00    +0.120 C 
ATOM      9  C   LIG    1       -5.519   1.854   0.775  0.00  0.00    -0.070 A 
ATOM     10  C   LIG    1       -4.256   2.389   0.652  0.00  0.00    +0.110 A 
ATOM     11  C   LIG    1       -4.093   3.770   0.519  0.00  0.00    -0.130 A 
ATOM     12  C   LIG    1       -5.213   4.605   0.523  0.00  0.00    +0.080 A 
ATOM     13  C   LIG    1       -6.473   4.064   0.652  0.00  0.00    +0.020 A 
ATOM     14  C   LIG    1       -6.631   2.688   0.779  0.00  0.00    +0.150 A 
BRANCH  14  15
ATOM     15  N   LIG    1       -7.913   2.142   0.911  0.00  0.00    -0.330 N 
ATOM     16  C   LIG    1       -9.094   2.798   0.861  0.00  0.00    +0.470 A 
ATOM     17  N   LIG    1      -10.038   1.909   1.028  0.00  0.00    -0.320 NA
ATOM     18  N   LIG    1       -9.536   0.739   1.188  0.00  0.00    -0.030 NA
ATOM     19  N   LIG    1       -8.249   0.794   1.130  0.00  0.00    -0.070 NA
ENDBRANCH  14  15
ENDBRANCH   1  11
BRANCH   6  20
ATOM     20  C   LIG    1       -4.461   6.375  -1.169  0.00  0.00    +0.320 C 
BRANCH  20  21
ATOM     21  N   LIG    1       -5.639   7.244  -1.219  0.00  0.00    -0.370 N 
ATOM     22  C   LIG    1       -5.938   8.122  -2.199  0.00  0.00    +0.230 A 
ATOM     23  C   LIG    1       -7.104   8.725  -1.873  0.00  0.00    -0.120 A 
ATOM     24  C   LIG    1       -7.534   8.197  -0.651  0.00  0.00    +0.250 A 
ATOM     25  N   LIG    1       -6.659   7.306  -0.260  0.00  0.00    -0.300 NA
ENDBRANCH  20  21
ENDBRANCH   6  20
TORSDOF 4
