REMARK  Name = ZINCkj000005iMQe.0
REMARK                            x       y       z     vdW  Elec       q    Type
REMARK                         _______ _______ _______ _____ _____    ______ ____
ROOT
ATOM      1  N   LIG    1        1.375   3.206  -0.663  0.00  0.00    -0.670 N 
ATOM      2  H   LIG    1        2.198   3.708  -0.562  0.00  0.00    +0.410 HD
ATOM      3  C   LIG    1        0.189   3.845  -0.646  0.00  0.00    +0.700 C 
ATOM      4  N   LIG    1        0.150   5.192  -0.598  0.00  0.00    -0.740 N 
ATOM      5  H   LIG    1        0.975   5.700  -0.576  0.00  0.00    +0.400 HD
ATOM      6  O   LIG    1       -0.847   3.208  -0.673  0.00  0.00    -0.570 OA
ENDROOT
BRANCH   1  12
ATOM      7  C   LIG    1        2.534   1.096  -0.403  0.00  0.00    +0.090 A 
ATOM      8  C   LIG    1        2.572  -0.279  -0.569  0.00  0.00    -0.060 A 
ATOM      9  C   LIG    1        1.504  -0.935  -1.154  0.00  0.00    +0.030 A 
ATOM     10  C   LIG    1        0.397  -0.222  -1.575  0.00  0.00    +0.000 A 
ATOM     11  C   LIG    1        0.351   1.150  -1.413  0.00  0.00    +0.060 A 
ATOM     12  C   LIG    1        1.418   1.815  -0.828  0.00  0.00    +0.130 A 
BRANCH   7  14
ATOM     13  C   LIG    1        4.693   0.941   0.582  0.00  0.00    +0.250 C 
ATOM     14  O   LIG    1        3.583   1.742   0.172  0.00  0.00    -0.320 OA
ENDBRANCH   7  14
ENDBRANCH   1  12
BRANCH   4  15
ATOM     15  C   LIG    1       -1.140   5.887  -0.579  0.00  0.00    +0.310 C 
BRANCH  15  16
ATOM     16  C   LIG    1       -0.904   7.398  -0.525  0.00  0.00    +0.200 C 
BRANCH  16  17
ATOM     17  O   LIG    1       -0.262   7.824  -1.728  0.00  0.00    -0.400 OA
BRANCH  17  18
ATOM     18  C   LIG    1        0.005   9.226  -1.780  0.00  0.00    +0.210 C 
BRANCH  18  19
ATOM     19  C   LIG    1        0.689   9.567  -3.105  0.00  0.00    +0.280 C 
BRANCH  19  20
ATOM     20  N   LIG    1       -0.244   9.329  -4.214  0.00  0.00    -0.390 N 
ATOM     21  C   LIG    1        0.457   9.507  -5.492  0.00  0.00    +0.320 C 
ATOM     22  C   LIG    1       -1.359  10.282  -4.129  0.00  0.00    +0.320 C 
ATOM     23  H   LIG    1       -0.602   8.387  -4.155  0.00  0.00    +0.430 HD
ENDBRANCH  19  20
ENDBRANCH  18  19
ENDBRANCH  17  18
ENDBRANCH  16  17
ENDBRANCH  15  16
ENDBRANCH   4  15
TORSDOF 8
