REMARK  Name = ZINCpk000005mT0S.0
REMARK                            x       y       z     vdW  Elec       q    Type
REMARK                         _______ _______ _______ _____ _____    ______ ____
ROOT
ATOM      1  C   LIG    1       -2.552   0.921   0.814  0.00  0.00    +0.530 C 
ATOM      2  N   LIG    1       -1.597   1.705   0.276  0.00  0.00    -0.610 N 
ATOM      3  C   LIG    1       -1.781   2.304  -1.054  0.00  0.00    +0.270 C 
ATOM      4  C   LIG    1       -0.594   1.905  -1.940  0.00  0.00    +0.270 C 
ATOM      5  N   LIG    1        0.650   2.177  -1.207  0.00  0.00    -0.610 N 
ATOM      6  C   LIG    1        0.835   1.579   0.122  0.00  0.00    +0.290 C 
ATOM      7  C   LIG    1        1.606   2.961  -1.746  0.00  0.00    +0.600 C 
ATOM      8  O   LIG    1        2.590   3.254  -1.094  0.00  0.00    -0.530 OA
ATOM      9  C   LIG    1       -0.349   1.977   1.012  0.00  0.00    +0.240 C 
ATOM     10  C   LIG    1       -0.264   3.469   1.343  0.00  0.00    +0.030 C 
ATOM     11  O   LIG    1       -2.430   0.508   1.947  0.00  0.00    -0.510 OA
ENDROOT
BRANCH   7  12
ATOM     12  C   LIG    1        1.457   3.463  -3.124  0.00  0.00    -0.300 A 
ATOM     13  C   LIG    1        1.697   4.752  -3.557  0.00  0.00    +0.150 A 
ATOM     14  N   LIG    1        1.446   4.786  -4.875  0.00  0.00    -0.360 N 
ATOM     15  N   LIG    1        1.034   3.512  -5.282  0.00  0.00    -0.290 NA
ATOM     16  C   LIG    1        1.575   5.961  -5.741  0.00  0.00    +0.360 C 
ATOM     17  C   LIG    1        2.160   5.907  -2.707  0.00  0.00    +0.160 C 
ATOM     18  C   LIG    1        1.037   2.717  -4.247  0.00  0.00    +0.270 A 
ENDBRANCH   7  12
BRANCH   1  19
ATOM     19  C   LIG    1       -3.771   0.558   0.006  0.00  0.00    +0.150 C 
BRANCH  19  21
ATOM     20  C   LIG    1       -6.054  -0.050   0.413  0.00  0.00    +0.200 C 
ATOM     21  O   LIG    1       -4.692  -0.160   0.831  0.00  0.00    -0.350 OA
ENDBRANCH  19  21
BRANCH  19  22
ATOM     22  C   LIG    1       -3.357  -0.318  -1.177  0.00  0.00    +0.020 C 
BRANCH  22  23
ATOM     23  C   LIG    1       -2.819  -1.654  -0.660  0.00  0.00    -0.010 C 
ATOM     24  C   LIG    1       -1.498  -1.421   0.076  0.00  0.00    +0.000 C 
ATOM     25  C   LIG    1       -2.587  -2.601  -1.838  0.00  0.00    +0.010 C 
ENDBRANCH  22  23
ENDBRANCH  19  22
ENDBRANCH   1  19
TORSDOF 5
