REMARK  Name = ZINCpe00000MJJga.0
REMARK                            x       y       z     vdW  Elec       q    Type
REMARK                         _______ _______ _______ _____ _____    ______ ____
ROOT
ATOM      1  N   LIG    1        2.633  -4.038  -0.046  0.00  0.00    -0.730 N 
ATOM      2  H   LIG    1        1.818  -4.563  -0.041  0.00  0.00    +0.400 HD
ATOM      3  C   LIG    1        2.567  -2.692  -0.037  0.00  0.00    +0.700 C 
ATOM      4  N   LIG    1        1.369  -2.075  -0.023  0.00  0.00    -0.640 N 
ATOM      5  H   LIG    1        0.553  -2.601  -0.018  0.00  0.00    +0.420 HD
ATOM      6  O   LIG    1        3.590  -2.033  -0.043  0.00  0.00    -0.520 OA
ENDROOT
BRANCH   4   7
ATOM      7  C   LIG    1        1.301  -0.684  -0.014  0.00  0.00    +0.310 A 
ATOM      8  N   LIG    1        2.401   0.037  -0.021  0.00  0.00    -0.410 NA
ATOM      9  C   LIG    1        2.343   1.367  -0.013  0.00  0.00    +0.180 A 
ATOM     10  C   LIG    1        1.165   2.027   0.002  0.00  0.00    +0.210 A 
ATOM     11  N   LIG    1       -0.016   1.347   0.009  0.00  0.00    -0.480 N 
ATOM     12  C   LIG    1       -1.289   2.072   0.019  0.00  0.00    +0.330 C 
ATOM     13  C   LIG    1        0.002  -0.004   0.002  0.00  0.00    +0.490 A 
ATOM     14  O   LIG    1       -1.037  -0.642   0.009  0.00  0.00    -0.530 OA
ENDBRANCH   4   7
BRANCH   1  19
ATOM     15  C   LIG    1        3.805  -6.154   0.454  0.00  0.00    +0.220 C 
ATOM     16  O   LIG    1        4.251  -7.025  -0.599  0.00  0.00    -0.360 OA
ATOM     17  C   LIG    1        4.036  -6.325  -1.844  0.00  0.00    +0.200 C 
ATOM     18  C   LIG    1        4.445  -4.867  -1.515  0.00  0.00    +0.010 C 
ATOM     19  C   LIG    1        3.936  -4.707  -0.062  0.00  0.00    +0.250 C 
BRANCH  15  23
ATOM     20  C   LIG    1        6.293  -6.693   3.830  0.00  0.00    +0.320 A 
ATOM     21  C   LIG    1        4.936  -6.481   4.038  0.00  0.00    -0.050 A 
ATOM     22  C   LIG    1        4.107  -6.302   2.943  0.00  0.00    +0.110 A 
ATOM     23  C   LIG    1        4.669  -6.343   1.675  0.00  0.00    -0.180 A 
ATOM     24  C   LIG    1        6.025  -6.563   1.543  0.00  0.00    +0.330 A 
ATOM     25  N   LIG    1        6.791  -6.725   2.605  0.00  0.00    -0.540 NA
BRANCH  20  27
ATOM     26  C   LIG    1        8.501  -7.084   4.616  0.00  0.00    +0.260 C 
ATOM     27  O   LIG    1        7.115  -6.870   4.895  0.00  0.00    -0.310 OA
ENDBRANCH  20  27
ENDBRANCH  15  23
ENDBRANCH   1  19
TORSDOF 4
