REMARK  Name = ZINCrg00000xA5SO.0
REMARK                            x       y       z     vdW  Elec       q    Type
REMARK                         _______ _______ _______ _____ _____    ______ ____
ROOT
ATOM      1  C   LIG    1        2.071   1.131  -1.243  0.00  0.00    +0.260 C 
ENDROOT
BRANCH   1   6
ATOM      2  C   LIG    1        1.325   4.744   1.956  0.00  0.00    +0.560 C 
ATOM      3  N   LIG    1        1.337   3.484   1.479  0.00  0.00    -0.620 N 
ATOM      4  C   LIG    1        1.511   2.262   2.285  0.00  0.00    +0.260 C 
ATOM      5  C   LIG    1        2.065   1.204   1.292  0.00  0.00    +0.020 C 
ATOM      6  C   LIG    1        1.286   1.562  -0.002  0.00  0.00    +0.110 C 
ATOM      7  C   LIG    1        1.178   3.100   0.069  0.00  0.00    +0.310 C 
ATOM      8  O   LIG    1        1.174   5.678   1.197  0.00  0.00    -0.530 OA
BRANCH   2  13
ATOM      9  C   LIG    1        1.278   7.535   2.854  0.00  0.00    +0.070 C 
ATOM     10  C   LIG    1        1.476   6.446   3.911  0.00  0.00    -0.090 C 
ATOM     11  C   LIG    1        2.794   5.670   3.886  0.00  0.00    +0.060 C 
ATOM     12  C   LIG    1        0.849   6.730   5.277  0.00  0.00    +0.070 C 
ATOM     13  C   LIG    1        1.499   4.993   3.432  0.00  0.00    -0.070 C 
ENDBRANCH   2  13
BRANCH   6  14
ATOM     14  O   LIG    1       -0.011   0.963   0.007  0.00  0.00    -0.540 OA
ATOM     15  H   LIG    1        0.002  -0.004   0.002  0.00  0.00    +0.380 HD
ENDBRANCH   6  14
ENDBRANCH   1   6
BRANCH   1  16
ATOM     16  N   LIG    1        2.207  -0.328  -1.252  0.00  0.00    -0.730 N 
ATOM     17  H   LIG    1        1.823  -0.856  -0.535  0.00  0.00    +0.400 HD
ATOM     18  C   LIG    1        2.865  -0.937  -2.258  0.00  0.00    +0.520 C 
ATOM     19  O   LIG    1        3.346  -0.277  -3.155  0.00  0.00    -0.530 OA
BRANCH  18  20
ATOM     20  C   LIG    1        3.006  -2.437  -2.268  0.00  0.00    +0.060 C 
BRANCH  20  21
ATOM     21  C   LIG    1        3.790  -2.868  -3.509  0.00  0.00    +0.050 C 
BRANCH  21  22
ATOM     22  C   LIG    1        3.932  -4.392  -3.519  0.00  0.00    +0.160 C 
BRANCH  22  23
ATOM     23  O   LIG    1        4.664  -4.794  -4.678  0.00  0.00    -0.380 OA
BRANCH  23  24
ATOM     24  C   LIG    1        4.854  -6.207  -4.784  0.00  0.00    +0.150 C 
ATOM     25  C   LIG    1        6.158  -6.602  -4.084  0.00  0.00    -0.030 C 
ATOM     26  C   LIG    1        6.394  -8.103  -4.273  0.00  0.00    +0.210 C 
ATOM     27  O   LIG    1        6.430  -8.409  -5.668  0.00  0.00    -0.380 OA
ATOM     28  C   LIG    1        5.219  -8.104  -6.364  0.00  0.00    +0.210 C 
ATOM     29  C   LIG    1        4.937  -6.603  -6.261  0.00  0.00    +0.010 C 
ENDBRANCH  23  24
ENDBRANCH  22  23
ENDBRANCH  21  22
ENDBRANCH  20  21
ENDBRANCH  18  20
ENDBRANCH   1  16
TORSDOF 9
