REMARK  Name = ZINCpk000004ATb2.0
REMARK                            x       y       z     vdW  Elec       q    Type
REMARK                         _______ _______ _______ _____ _____    ______ ____
ROOT
ATOM      1  C   LIG    1        5.874   0.467  -4.069  0.00  0.00    +0.560 C 
ATOM      2  N   LIG    1        4.985   1.294  -3.485  0.00  0.00    -0.720 N 
ATOM      3  H   LIG    1        5.032   2.250  -3.647  0.00  0.00    +0.400 HD
ATOM      4  O   LIG    1        5.815  -0.730  -3.866  0.00  0.00    -0.530 OA
ENDROOT
BRANCH   2   5
ATOM      5  C   LIG    1        3.947   0.751  -2.604  0.00  0.00    +0.240 C 
ATOM      6  C   LIG    1        2.701   0.314  -3.418  0.00  0.00    +0.030 C 
ATOM      7  C   LIG    1        1.556   0.440  -2.391  0.00  0.00    +0.260 C 
ATOM      8  N   LIG    1        2.003   1.379  -1.352  0.00  0.00    -0.620 N 
ATOM      9  C   LIG    1        1.295   1.742  -0.264  0.00  0.00    +0.540 C 
ATOM     10  O   LIG    1        1.725   2.595   0.482  0.00  0.00    -0.530 OA
ATOM     11  C   LIG    1        3.351   1.862  -1.700  0.00  0.00    +0.260 C 
BRANCH   9  12
ATOM     12  C   LIG    1       -0.031   1.087   0.025  0.00  0.00    -0.020 C 
ATOM     13  C   LIG    1       -0.222   0.967   1.538  0.00  0.00    +0.060 C 
ATOM     14  C   LIG    1       -1.159   1.936  -0.566  0.00  0.00    +0.050 C 
ENDBRANCH   9  12
ENDBRANCH   2   5
BRANCH   1  18
ATOM     15  C   LIG    1        8.881   2.041  -6.622  0.00  0.00    -0.080 A 
ATOM     16  C   LIG    1        8.817   0.678  -6.392  0.00  0.00    +0.020 A 
ATOM     17  C   LIG    1        7.843   0.161  -5.564  0.00  0.00    +0.080 A 
ATOM     18  C   LIG    1        6.921   1.015  -4.957  0.00  0.00    -0.130 A 
ATOM     19  C   LIG    1        6.988   2.388  -5.197  0.00  0.00    +0.040 A 
ATOM     20  C   LIG    1        7.970   2.894  -6.024  0.00  0.00    +0.020 A 
BRANCH  15  21
ATOM     21  C   LIG    1        9.948   2.600  -7.528  0.00  0.00    +0.320 C 
BRANCH  21  23
ATOM     22  C   LIG    1       10.237   3.103  -9.895  0.00  0.00    +0.540 C 
ATOM     23  N   LIG    1        9.449   2.638  -8.905  0.00  0.00    -0.720 N 
ATOM     24  H   LIG    1        8.552   2.328  -9.104  0.00  0.00    +0.400 HD
ATOM     25  O   LIG    1       11.362   3.492  -9.645  0.00  0.00    -0.540 OA
BRANCH  22  27
ATOM     26  C   LIG    1       10.513   3.600 -12.254  0.00  0.00    +0.150 C 
ATOM     27  C   LIG    1        9.736   3.141 -11.277  0.00  0.00    -0.090 C 
ENDBRANCH  22  27
ENDBRANCH  21  23
ENDBRANCH  15  21
ENDBRANCH   1  18
TORSDOF 6
