REMARK  Name = ZINCvU0000000H7P.0
REMARK                            x       y       z     vdW  Elec       q    Type
REMARK                         _______ _______ _______ _____ _____    ______ ____
ROOT
ATOM      1  C   LIG    1        3.707  -0.679  -0.036  0.00  0.00    -0.230 A 
ATOM      2  C   LIG    1        4.478  -0.754   1.080  0.00  0.00    +0.150 A 
ATOM      3  O   LIG    1        5.640  -1.407   1.120  0.00  0.00    -0.210 OA
ATOM      4  C   LIG    1        6.284  -1.757  -0.009  0.00  0.00    +0.190 A 
ATOM      5  C   LIG    1        7.619  -2.140   0.030  0.00  0.00    -0.030 A 
ATOM      6  C   LIG    1        8.264  -2.514  -1.136  0.00  0.00    +0.190 A 
ATOM      7  C   LIG    1        7.588  -2.510  -2.354  0.00  0.00    -0.100 A 
ATOM      8  C   LIG    1        6.277  -2.131  -2.413  0.00  0.00    +0.160 A 
ATOM      9  C   LIG    1        5.615  -1.750  -1.246  0.00  0.00    -0.250 A 
ATOM     10  C   LIG    1        3.994  -0.073   2.334  0.00  0.00    +0.180 C 
ATOM     11  C   LIG    1        4.202  -1.326  -1.267  0.00  0.00    +0.440 A 
ATOM     12  O   LIG    1        3.488  -1.500  -2.240  0.00  0.00    -0.450 OA
ENDROOT
BRANCH   1  18
ATOM     13  C   LIG    1        1.210  -0.681  -0.013  0.00  0.00    +0.150 A 
ATOM     14  C   LIG    1        0.002  -0.004   0.002  0.00  0.00    -0.080 A 
ATOM     15  C   LIG    1       -0.017   1.379   0.010  0.00  0.00    +0.060 A 
ATOM     16  C   LIG    1        1.168   2.093   0.002  0.00  0.00    -0.030 A 
ATOM     17  C   LIG    1        2.379   1.430  -0.013  0.00  0.00    +0.060 A 
ATOM     18  C   LIG    1        2.409   0.038  -0.020  0.00  0.00    -0.050 A 
BRANCH  13  20
ATOM     19  C   LIG    1       -0.034  -2.707  -0.012  0.00  0.00    +0.250 C 
ATOM     20  O   LIG    1        1.229  -2.040  -0.020  0.00  0.00    -0.310 OA
ENDBRANCH  13  20
ENDBRANCH   1  18
BRANCH   6  21
ATOM     21  O   LIG    1        9.568  -2.888  -1.093  0.00  0.00    -0.290 OA
BRANCH  21  22
ATOM     22  C   LIG    1       10.177  -3.262  -2.330  0.00  0.00    +0.230 C 
BRANCH  22  23
ATOM     23  C   LIG    1       11.615  -3.644  -2.087  0.00  0.00    +0.400 C 
ATOM     24  O   LIG    1       12.072  -3.599  -0.965  0.00  0.00    -0.420 OA
BRANCH  23  25
ATOM     25  C   LIG    1       12.463  -4.070  -3.211  0.00  0.00    -0.160 A 
ATOM     26  C   LIG    1       11.936  -4.128  -4.506  0.00  0.00    +0.080 A 
ATOM     27  C   LIG    1       12.738  -4.524  -5.554  0.00  0.00    +0.020 A 
ATOM     28  C   LIG    1       14.059  -4.874  -5.327  0.00  0.00    -0.000 A 
ATOM     29  C   LIG    1       14.586  -4.824  -4.046  0.00  0.00    +0.020 A 
ATOM     30 CL   LIG    1       15.060  -5.378  -6.653  0.00  0.00    -0.050 Cl
ATOM     31  C   LIG    1       13.798  -4.425  -2.989  0.00  0.00    +0.110 A 
ENDBRANCH  23  25
ENDBRANCH  22  23
ENDBRANCH  21  22
ENDBRANCH   6  21
TORSDOF 6
