REMARK  Name = ZINCkj000005kAd7.0
REMARK                            x       y       z     vdW  Elec       q    Type
REMARK                         _______ _______ _______ _____ _____    ______ ____
ROOT
ATOM      1  C   LIG    1       -4.970   0.882   0.284  0.00  0.00    +0.210 A 
ATOM      2  C   LIG    1       -4.811  -0.500   0.279  0.00  0.00    +0.020 A 
ATOM      3  C   LIG    1       -3.553  -1.050   0.183  0.00  0.00    +0.130 A 
ATOM      4  C   LIG    1       -2.434  -0.218   0.091  0.00  0.00    -0.160 A 
ATOM      5  C   LIG    1       -2.596   1.169   0.103  0.00  0.00    +0.070 A 
ATOM      6  C   LIG    1       -3.858   1.713   0.194  0.00  0.00    -0.020 A 
ENDROOT
BRANCH   4   7
ATOM      7  C   LIG    1       -1.082  -0.804  -0.011  0.00  0.00    +0.590 C 
ATOM      8  N   LIG    1        0.004  -0.008   0.049  0.00  0.00    -0.620 N 
ATOM      9  C   LIG    1       -0.012   1.461   0.096  0.00  0.00    +0.290 C 
ATOM     10  C   LIG    1        1.456   1.934   0.131  0.00  0.00    +0.070 C 
ATOM     11  C   LIG    1        2.225   0.728  -0.469  0.00  0.00    +0.170 C 
ATOM     12  C   LIG    1        1.405  -0.467   0.078  0.00  0.00    +0.290 C 
ATOM     13  O   LIG    1       -0.949  -2.005  -0.150  0.00  0.00    -0.510 OA
BRANCH  11  14
ATOM     14  N   LIG    1        3.608   0.686   0.023  0.00  0.00    -0.630 N 
ATOM     15  H   LIG    1        3.606   0.705   1.032  0.00  0.00    +0.440 HD
ATOM     16  H   LIG    1        4.114   1.486  -0.327  0.00  0.00    +0.440 HD
ATOM     17  H   LIG    1        4.054  -0.160  -0.297  0.00  0.00    +0.440 HD
ENDBRANCH  11  14
ENDBRANCH   4   7
BRANCH   1  21
ATOM     18  C   LIG    1       -8.669   4.168   0.556  0.00  0.00    +0.130 C 
ATOM     19  C   LIG    1       -7.892   2.877   0.502  0.00  0.00    -0.210 A 
ATOM     20  C   LIG    1       -6.548   2.762   0.403  0.00  0.00    +0.230 A 
ATOM     21  N   LIG    1       -6.250   1.437   0.381  0.00  0.00    -0.340 N 
ATOM     22  N   LIG    1       -7.453   0.726   0.479  0.00  0.00    -0.280 NA
ATOM     23  C   LIG    1       -8.434   1.588   0.551  0.00  0.00    +0.270 A 
ENDBRANCH   1  21
TORSDOF 3
