REMARK  Name = ZINCkj00000dE3Vp.0
REMARK                            x       y       z     vdW  Elec       q    Type
REMARK                         _______ _______ _______ _____ _____    ______ ____
ROOT
ATOM      1  C   LIG    1       -3.180  -0.160  -0.189  0.00  0.00    +0.070 C 
ATOM      2  C   LIG    1       -1.771   0.206   0.296  0.00  0.00    +0.030 C 
ATOM      3  C   LIG    1       -0.793   0.104  -0.879  0.00  0.00    +0.290 C 
ATOM      4  N   LIG    1       -1.288   0.937  -1.984  0.00  0.00    -0.590 N 
ATOM      5  C   LIG    1       -2.660   0.729  -2.465  0.00  0.00    +0.270 C 
ATOM      6  C   LIG    1       -0.497   1.873  -2.545  0.00  0.00    +0.510 C 
ATOM      7  O   LIG    1        0.634   2.035  -2.138  0.00  0.00    -0.550 OA
ATOM      8  C   LIG    1       -3.620   0.825  -1.275  0.00  0.00    +0.040 C 
ENDROOT
BRANCH   1  14
ATOM      9  C   LIG    1       -4.077  -2.517   1.613  0.00  0.00    +0.350 C 
ATOM     10  N   LIG    1       -4.524  -1.128   1.746  0.00  0.00    -0.370 N 
ATOM     11  N   LIG    1       -5.423  -0.639   2.703  0.00  0.00    -0.290 NA
ATOM     12  C   LIG    1       -5.573   0.645   2.504  0.00  0.00    +0.240 A 
ATOM     13  C   LIG    1       -4.772   1.016   1.420  0.00  0.00    -0.130 A 
ATOM     14  C   LIG    1       -4.141  -0.093   0.969  0.00  0.00    +0.080 A 
ENDBRANCH   1  14
BRANCH   6  15
ATOM     15  C   LIG    1       -1.020   2.720  -3.677  0.00  0.00    +0.110 C 
BRANCH  15  16
ATOM     16  C   LIG    1        0.108   3.602  -4.216  0.00  0.00    +0.030 C 
ATOM     17  C   LIG    1        0.561   4.693  -3.231  0.00  0.00    +0.100 C 
ATOM     18  C   LIG    1        0.665   5.634  -4.446  0.00  0.00    +0.030 C 
ATOM     19  C   LIG    1       -0.381   4.738  -5.130  0.00  0.00    +0.090 C 
BRANCH  16  20
ATOM     20  N   LIG    1        1.218   2.825  -4.785  0.00  0.00    -0.620 N 
ATOM     21  H   LIG    1        1.618   2.237  -4.069  0.00  0.00    +0.440 HD
ATOM     22  H   LIG    1        1.923   3.455  -5.137  0.00  0.00    +0.440 HD
ATOM     23  H   LIG    1        0.874   2.250  -5.539  0.00  0.00    +0.430 HD
ENDBRANCH  16  20
ENDBRANCH  15  16
ENDBRANCH   6  15
TORSDOF 4
