REMARK  Name = ZINCvU0000000EpS.0
REMARK                            x       y       z     vdW  Elec       q    Type
REMARK                         _______ _______ _______ _____ _____    ______ ____
ROOT
ATOM      1  C   LIG    1        1.165   1.787   0.013  0.00  0.00    -0.110 A 
ATOM      2  C   LIG    1       -0.025   1.086   0.030  0.00  0.00    +0.090 A 
ATOM      3  C   LIG    1       -1.230   1.767   0.044  0.00  0.00    -0.100 A 
ATOM      4  C   LIG    1       -1.246   3.150   0.054  0.00  0.00    +0.070 A 
ATOM      5  C   LIG    1       -0.059   3.856   0.038  0.00  0.00    +0.040 A 
ATOM      6 BR   LIG    1       -2.857   0.804   0.059  0.00  0.00    -0.040 Br
ATOM      7  C   LIG    1        1.151   3.176   0.017  0.00  0.00    +0.170 A 
ENDROOT
BRANCH   7   8
ATOM      8  N   LIG    1        2.355   3.889   0.001  0.00  0.00    -0.670 N 
ATOM      9  H   LIG    1        3.131   3.540   0.467  0.00  0.00    +0.410 HD
ATOM     10  C   LIG    1        2.437   5.059  -0.663  0.00  0.00    +0.570 C 
ATOM     11  O   LIG    1        1.444   5.535  -1.178  0.00  0.00    -0.500 OA
BRANCH  10  12
ATOM     12  C   LIG    1        3.733   5.762  -0.764  0.00  0.00    -0.120 A 
ATOM     13  C   LIG    1        4.873   5.220  -0.168  0.00  0.00    +0.040 A 
ATOM     14  C   LIG    1        6.081   5.879  -0.270  0.00  0.00    +0.030 A 
ATOM     15  C   LIG    1        6.162   7.080  -0.952  0.00  0.00    +0.060 A 
ATOM     16  C   LIG    1        5.034   7.627  -1.541  0.00  0.00    -0.040 A 
ATOM     17 CL   LIG    1        5.146   9.134  -2.394  0.00  0.00    -0.050 Cl
ATOM     18  C   LIG    1        3.821   6.975  -1.450  0.00  0.00    +0.100 A 
ENDBRANCH  10  12
ENDBRANCH   7   8
BRANCH   1  19
ATOM     19  C   LIG    1        2.477   1.046  -0.009  0.00  0.00    +0.250 C 
BRANCH  19  20
ATOM     20  C   LIG    1        3.014   1.016  -1.416  0.00  0.00    -0.070 A 
ATOM     21  C   LIG    1        4.000   1.906  -1.798  0.00  0.00    +0.010 A 
ATOM     22  C   LIG    1        4.494   1.880  -3.089  0.00  0.00    +0.020 A 
ATOM     23  C   LIG    1        4.002   0.963  -3.999  0.00  0.00    +0.020 A 
ATOM     24  C   LIG    1        3.014   0.072  -3.617  0.00  0.00    -0.040 A 
ATOM     25 CL   LIG    1        2.395  -1.079  -4.760  0.00  0.00    -0.070 Cl
ATOM     26  C   LIG    1        2.524   0.096  -2.324  0.00  0.00    +0.070 A 
ENDBRANCH  19  20
BRANCH  19  27
ATOM     27  N   LIG    1        2.270  -0.330   0.465  0.00  0.00    -0.670 NA
ATOM     28  H   LIG    1        1.522  -0.370   1.142  0.00  0.00    +0.360 HD
BRANCH  27  29
ATOM     29  C   LIG    1        3.511  -0.888   1.018  0.00  0.00    +0.270 C 
BRANCH  29  30
ATOM     30  C   LIG    1        3.260  -2.296   1.492  0.00  0.00    +0.460 C 
ATOM     31  O   LIG    1        2.160  -2.784   1.382  0.00  0.00    -0.490 OA
BRANCH  30  33
ATOM     32  C   LIG    1        3.945  -4.358   2.473  0.00  0.00    +0.270 C 
ATOM     33  O   LIG    1        4.258  -3.009   2.038  0.00  0.00    -0.360 OA
ENDBRANCH  30  33
ENDBRANCH  29  30
ENDBRANCH  27  29
ENDBRANCH  19  27
ENDBRANCH   1  19
TORSDOF 8
