REMARK  Name = ZINCpk000000mUFQ.0
REMARK                            x       y       z     vdW  Elec       q    Type
REMARK                         _______ _______ _______ _____ _____    ______ ____
ROOT
ATOM      1  S   LIG    1       -0.862   1.671   1.500  0.00  0.00    -0.060 S 
ENDROOT
BRANCH   1   2
ATOM      2  C   LIG    1        0.146   0.980   2.841  0.00  0.00    -0.020 C 
ATOM      3  C   LIG    1        0.061  -0.547   2.808  0.00  0.00    +0.080 C 
BRANCH   2   6
ATOM      4  N   LIG    1        0.460   1.543   5.229  0.00  0.00    -0.720 N 
ATOM      5  H   LIG    1        1.385   1.262   5.141  0.00  0.00    +0.400 HD
ATOM      6  C   LIG    1       -0.366   1.484   4.166  0.00  0.00    +0.540 C 
ATOM      7  O   LIG    1       -1.521   1.835   4.275  0.00  0.00    -0.510 OA
BRANCH   4   8
ATOM      8  C   LIG    1       -0.038   2.033   6.517  0.00  0.00    +0.270 C 
BRANCH   8   9
ATOM      9  C   LIG    1        1.093   1.999   7.547  0.00  0.00    +0.270 C 
BRANCH   9  12
ATOM     10  C   LIG    1        0.909   3.052  11.223  0.00  0.00    +0.110 C 
ATOM     11  C   LIG    1        1.421   2.549   9.898  0.00  0.00    +0.510 C 
ATOM     12  N   LIG    1        0.595   2.489   8.835  0.00  0.00    -0.730 N 
ATOM     13  H   LIG    1       -0.329   2.770   8.922  0.00  0.00    +0.410 HD
ATOM     14  O   LIG    1        2.577   2.197   9.789  0.00  0.00    -0.540 OA
ENDBRANCH   9  12
ENDBRANCH   8   9
ENDBRANCH   4   8
ENDBRANCH   2   6
ENDBRANCH   1   2
BRANCH   1  15
ATOM     15  C   LIG    1       -0.013   1.086   0.008  0.00  0.00    +0.140 C 
BRANCH  15  16
ATOM     16  C   LIG    1       -0.742   1.585  -1.213  0.00  0.00    +0.460 A 
ATOM     17  N   LIG    1       -1.808   2.318  -1.049  0.00  0.00    -0.560 NA
ATOM     18  C   LIG    1       -2.500   2.792  -2.098  0.00  0.00    +0.550 A 
ATOM     19  C   LIG    1       -2.033   2.470  -3.462  0.00  0.00    -0.220 A 
ATOM     20  C   LIG    1       -0.895   1.688  -3.574  0.00  0.00    +0.050 A 
ATOM     21  S   LIG    1       -0.518   1.427  -5.270  0.00  0.00    +0.170 S 
ATOM     22  C   LIG    1       -1.899   2.376  -5.790  0.00  0.00    -0.200 A 
ATOM     23  C   LIG    1       -2.267   2.628  -7.229  0.00  0.00    +0.150 C 
ATOM     24  C   LIG    1       -2.574   2.840  -4.754  0.00  0.00    -0.030 A 
ATOM     25  C   LIG    1       -3.810   3.689  -4.905  0.00  0.00    +0.130 C 
ATOM     26  O   LIG    1       -3.496   3.477  -1.928  0.00  0.00    -0.470 OA
ATOM     27  N   LIG    1       -0.264   1.262  -2.425  0.00  0.00    -0.580 N 
ATOM     28  H   LIG    1        0.535   0.718  -2.493  0.00  0.00    +0.420 HD
ENDBRANCH  15  16
ENDBRANCH   1  15
TORSDOF 7
