REMARK  Name = ZINCpk000000oOKN.0
REMARK                            x       y       z     vdW  Elec       q    Type
REMARK                         _______ _______ _______ _____ _____    ______ ____
ROOT
ATOM      1  C   LIG    1       -0.002   0.006   0.012  0.00  0.00    +0.230 C 
ATOM      2  C   LIG    1        0.616  -0.460  -1.306  0.00  0.00    +0.110 C 
ATOM      3  C   LIG    1        1.890   0.288  -1.595  0.00  0.00    -0.060 A 
ATOM      4  C   LIG    1        2.783  -0.282  -2.494  0.00  0.00    +0.000 A 
ATOM      5  C   LIG    1        3.964   0.356  -2.811  0.00  0.00    +0.010 A 
ATOM      6  C   LIG    1        4.264   1.575  -2.232  0.00  0.00    +0.010 A 
ATOM      7  C   LIG    1        3.381   2.142  -1.336  0.00  0.00    +0.010 A 
ATOM      8  C   LIG    1        2.194   1.498  -1.012  0.00  0.00    -0.100 A 
ATOM      9  C   LIG    1        1.286   2.161  -0.007  0.00  0.00    +0.340 C 
ATOM     10  N   LIG    1       -0.012   1.478   0.011  0.00  0.00    -0.610 N 
ATOM     11  C   LIG    1       -1.168   2.171   0.021  0.00  0.00    +0.510 C 
ATOM     12  O   LIG    1       -2.227   1.585  -0.069  0.00  0.00    -0.500 OA
ENDROOT
BRANCH   1  15
ATOM     13  N   LIG    1       -1.982  -0.649   1.341  0.00  0.00    -0.730 N 
ATOM     14  H   LIG    1       -1.486  -0.412   2.140  0.00  0.00    +0.390 HD
ATOM     15  C   LIG    1       -1.411  -0.514   0.128  0.00  0.00    +0.540 C 
ATOM     16  O   LIG    1       -2.032  -0.811  -0.871  0.00  0.00    -0.530 OA
BRANCH  13  18
ATOM     17  C   LIG    1       -3.756  -1.211   2.928  0.00  0.00    +0.030 C 
ATOM     18  C   LIG    1       -3.353  -1.155   1.454  0.00  0.00    +0.250 C 
ENDBRANCH  13  18
ENDBRANCH   1  15
BRANCH  11  19
ATOM     19  C   LIG    1       -1.146   3.672   0.143  0.00  0.00    +0.070 C 
BRANCH  19  20
ATOM     20  C   LIG    1       -2.579   4.207   0.129  0.00  0.00    +0.160 C 
BRANCH  20  21
ATOM     21  C   LIG    1       -2.557   5.709   0.251  0.00  0.00    +0.070 A 
ATOM     22  N   LIG    1       -1.977   6.392   1.204  0.00  0.00    -0.300 NA
ATOM     23  N   LIG    1       -2.183   7.755   0.953  0.00  0.00    -0.380 N 
ATOM     24  C   LIG    1       -2.912   7.863  -0.177  0.00  0.00    +0.220 A 
ATOM     25  C   LIG    1       -1.697   8.866   1.775  0.00  0.00    +0.350 C 
ATOM     26  C   LIG    1       -3.157   6.612  -0.632  0.00  0.00    -0.120 A 
ENDBRANCH  20  21
ENDBRANCH  19  20
ENDBRANCH  11  19
TORSDOF 5
