REMARK  Name = ZINCpk00000xRRiQ.0
REMARK                            x       y       z     vdW  Elec       q    Type
REMARK                         _______ _______ _______ _____ _____    ______ ____
ROOT
ATOM      1  C   LIG    1       -0.408   3.550   2.417  0.00  0.00    +0.520 C 
ATOM      2  N   LIG    1       -1.001   2.868   1.417  0.00  0.00    -0.600 N 
ATOM      3  C   LIG    1       -1.079   1.401   1.455  0.00  0.00    +0.270 C 
ATOM      4  C   LIG    1       -0.498   0.843   0.153  0.00  0.00    +0.010 C 
ATOM      5  C   LIG    1       -1.217   1.480  -1.038  0.00  0.00    +0.010 C 
ATOM      6  C   LIG    1       -0.994   2.994  -1.020  0.00  0.00    +0.040 C 
ATOM      7  C   LIG    1       -1.582   3.577   0.269  0.00  0.00    +0.220 C 
ATOM      8  O   LIG    1       -0.433   4.763   2.422  0.00  0.00    -0.510 OA
ENDROOT
BRANCH   1   9
ATOM      9  C   LIG    1        0.286   2.806   3.528  0.00  0.00    +0.240 C 
BRANCH   9  10
ATOM     10  O   LIG    1        0.832   3.741   4.460  0.00  0.00    -0.280 OA
BRANCH  10  14
ATOM     11  C   LIG    1        2.849   2.191   7.710  0.00  0.00    -0.180 A 
ATOM     12  C   LIG    1        2.724   3.574   7.558  0.00  0.00    +0.130 A 
ATOM     13  C   LIG    1        2.050   4.088   6.473  0.00  0.00    -0.010 A 
ATOM     14  C   LIG    1        1.495   3.232   5.529  0.00  0.00    +0.160 A 
ATOM     15  C   LIG    1        1.612   1.855   5.679  0.00  0.00    -0.090 A 
ATOM     16  C   LIG    1        2.289   1.334   6.759  0.00  0.00    +0.090 A 
BRANCH  11  20
ATOM     17  N   LIG    1        3.690   0.301   9.017  0.00  0.00    -0.850 N 
ATOM     18  H   LIG    1        4.165  -0.063   9.780  0.00  0.00    +0.410 HD
ATOM     19  H   LIG    1        3.302  -0.295   8.358  0.00  0.00    +0.400 HD
ATOM     20  C   LIG    1        3.571   1.636   8.872  0.00  0.00    +0.570 C 
ATOM     21  O   LIG    1        4.058   2.383   9.699  0.00  0.00    -0.540 OA
ENDBRANCH  11  20
ENDBRANCH  10  14
ENDBRANCH   9  10
ENDBRANCH   1   9
BRANCH   7  22
ATOM     22  C   LIG    1       -1.242   5.066   0.360  0.00  0.00    +0.360 C 
BRANCH  22  23
ATOM     23  N   LIG    1       -1.794   5.766  -0.803  0.00  0.00    -0.370 N 
ATOM     24  C   LIG    1       -2.665   6.795  -0.770  0.00  0.00    +0.230 A 
ATOM     25  C   LIG    1       -2.926   7.155  -2.048  0.00  0.00    -0.130 A 
ATOM     26  C   LIG    1       -2.188   6.317  -2.891  0.00  0.00    +0.220 A 
ATOM     27  N   LIG    1       -1.505   5.487  -2.145  0.00  0.00    -0.300 NA
ENDBRANCH  22  23
ENDBRANCH   7  22
TORSDOF 6
