REMARK  Name = ZINCkj000005lcpX.0
REMARK                            x       y       z     vdW  Elec       q    Type
REMARK                         _______ _______ _______ _____ _____    ______ ____
ROOT
ATOM      1  N   LIG    1       -2.897   1.548  -2.408  0.00  0.00    -1.120 NA
ATOM      2  H   LIG    1       -3.318   2.422  -2.397  0.00  0.00    +0.420 HD
ENDROOT
BRANCH   1   3
ATOM      3  C   LIG    1       -2.188   1.063  -1.221  0.00  0.00    +0.260 C 
ATOM      4  C   LIG    1       -0.753   1.593  -1.232  0.00  0.00    +0.030 C 
ATOM      5  C   LIG    1       -0.013   1.086   0.008  0.00  0.00    +0.020 C 
ATOM      6  C   LIG    1       -0.729   1.579   1.267  0.00  0.00    +0.030 C 
ATOM      7  C   LIG    1       -2.164   1.050   1.278  0.00  0.00    +0.020 C 
ATOM      8  C   LIG    1       -2.904   1.556   0.038  0.00  0.00    -0.010 C 
BRANCH   8   9
ATOM      9  C   LIG    1       -4.340   1.027   0.049  0.00  0.00    +0.260 C 
BRANCH   9  10
ATOM     10  N   LIG    1       -5.063   1.597   1.194  0.00  0.00    -0.640 N 
ATOM     11  H   LIG    1       -5.076   2.603   1.116  0.00  0.00    +0.440 HD
ATOM     12  H   LIG    1       -4.600   1.331   2.050  0.00  0.00    +0.430 HD
ATOM     13  H   LIG    1       -6.010   1.247   1.201  0.00  0.00    +0.440 HD
ENDBRANCH   9  10
ENDBRANCH   8   9
ENDBRANCH   1   3
BRANCH   1  14
ATOM     14  S   LIG    1       -2.979   0.605  -3.766  0.00  0.00    +2.690 S 
ATOM     15  O   LIG    1       -1.655   0.155  -4.023  0.00  0.00    -0.930 OA
ATOM     16  O   LIG    1       -3.750   1.332  -4.713  0.00  0.00    -0.940 OA
BRANCH  14  20
ATOM     17  C   LIG    1       -5.397  -3.076  -2.701  0.00  0.00    +0.040 A 
ATOM     18  C   LIG    1       -6.035  -1.938  -3.199  0.00  0.00    +0.060 A 
ATOM     19  C   LIG    1       -5.292  -0.821  -3.521  0.00  0.00    +0.130 A 
ATOM     20  C   LIG    1       -3.919  -0.826  -3.352  0.00  0.00    -0.670 A 
ATOM     21  C   LIG    1       -3.280  -1.952  -2.864  0.00  0.00    +0.130 A 
ATOM     22  C   LIG    1       -4.011  -3.074  -2.532  0.00  0.00    +0.060 A 
BRANCH  17  24
ATOM     23  N   LIG    1       -6.768  -5.162  -2.096  0.00  0.00    -0.370 NA
ATOM     24  C   LIG    1       -6.161  -4.239  -2.364  0.00  0.00    +0.230 C 
ENDBRANCH  17  24
ENDBRANCH  14  20
ENDBRANCH   1  14
TORSDOF 6
