REMARK  Name = ZINCrH000004u5j1.0
REMARK                            x       y       z     vdW  Elec       q    Type
REMARK                         _______ _______ _______ _____ _____    ______ ____
ROOT
ATOM      1  C   LIG    1       -2.283   4.713   0.039  0.00  0.00    -0.220 A 
ATOM      2  C   LIG    1       -2.335   6.093   0.052  0.00  0.00    +0.060 A 
ATOM      3  N   LIG    1       -3.633   6.446   0.056  0.00  0.00    -0.280 N 
ATOM      4  N   LIG    1       -4.409   5.281   0.053  0.00  0.00    -0.240 NA
ATOM      5  C   LIG    1       -3.616   4.245   0.043  0.00  0.00    +0.300 A 
ENDROOT
BRANCH   3   6
ATOM      6  C   LIG    1       -4.126   7.758   0.065  0.00  0.00    +0.120 A 
ATOM      7  C   LIG    1       -3.445   8.751   0.756  0.00  0.00    +0.060 A 
ATOM      8  C   LIG    1       -3.933  10.044   0.763  0.00  0.00    +0.070 A 
ATOM      9  C   LIG    1       -5.098  10.348   0.083  0.00  0.00    +0.090 A 
ATOM     10  C   LIG    1       -5.778   9.361  -0.606  0.00  0.00    -0.170 A 
ATOM     11  C   LIG    1       -5.293   8.068  -0.621  0.00  0.00    +0.110 A 
BRANCH  10  12
ATOM     12  C   LIG    1       -7.047   9.697  -1.346  0.00  0.00    +0.510 C 
ATOM     13  F   LIG    1       -8.103   8.938  -0.831  0.00  0.00    -0.170 F 
ATOM     14  F   LIG    1       -6.885   9.407  -2.705  0.00  0.00    -0.170 F 
ATOM     15  F   LIG    1       -7.331  11.058  -1.191  0.00  0.00    -0.170 F 
ENDBRANCH  10  12
ENDBRANCH   3   6
BRANCH   1  17
ATOM     16  O   LIG    1        0.031   4.413   0.026  0.00  0.00    -0.450 OA
ATOM     17  C   LIG    1       -1.064   3.884   0.028  0.00  0.00    +0.580 C 
ATOM     18  N   LIG    1       -1.164   2.540   0.021  0.00  0.00    -0.630 N 
ATOM     19  H   LIG    1       -2.037   2.119   0.024  0.00  0.00    +0.420 HD
BRANCH  18  20
ATOM     20  C   LIG    1       -0.022   1.763   0.012  0.00  0.00    +0.400 C 
ATOM     21  N   LIG    1        1.178   2.218   0.003  0.00  0.00    -0.520 NA
ATOM     22  C   LIG    1        2.296   1.301  -0.013  0.00  0.00    +0.270 C 
ATOM     23  C   LIG    1        1.817  -0.159  -0.016  0.00  0.00    +0.110 C 
ATOM     24  S   LIG    1        0.002  -0.004   0.002  0.00  0.00    -0.180 S 
ENDBRANCH  18  20
ENDBRANCH   1  17
BRANCH   2  25
ATOM     25  C   LIG    1       -1.156   7.031   0.058  0.00  0.00    +0.530 C 
ATOM     26  F   LIG    1       -1.504   8.222  -0.589  0.00  0.00    -0.170 F 
ATOM     27  F   LIG    1       -0.082   6.434  -0.611  0.00  0.00    -0.120 F 
ATOM     28  F   LIG    1       -0.787   7.308   1.379  0.00  0.00    -0.160 F 
ENDBRANCH   2  25
TORSDOF 5
