REMARK  Name = ZINCrH000004uFeg.0
REMARK                            x       y       z     vdW  Elec       q    Type
REMARK                         _______ _______ _______ _____ _____    ______ ____
ROOT
ATOM      1  C   LIG    1        3.598  -3.567  -0.051  0.00  0.00    +0.320 C 
ENDROOT
BRANCH   1   2
ATOM      2  N   LIG    1        2.675  -2.452   0.177  0.00  0.00    -0.600 N 
ATOM      3  C   LIG    1        2.990  -1.031  -0.005  0.00  0.00    +0.350 C 
ATOM      4  C   LIG    1        1.735  -0.272   0.347  0.00  0.00    -0.080 A 
ATOM      5  C   LIG    1        1.418   1.066   0.370  0.00  0.00    +0.030 A 
ATOM      6  C   LIG    1        0.148   1.470   0.748  0.00  0.00    +0.040 A 
ATOM      7  C   LIG    1       -0.804   0.531   1.103  0.00  0.00    +0.000 A 
ATOM      8  C   LIG    1       -0.496  -0.814   1.083  0.00  0.00    +0.080 A 
ATOM      9  C   LIG    1        0.781  -1.229   0.703  0.00  0.00    -0.150 A 
ATOM     10  C   LIG    1        1.399  -2.563   0.586  0.00  0.00    +0.570 C 
ATOM     11  O   LIG    1        0.835  -3.613   0.825  0.00  0.00    -0.500 OA
ENDBRANCH   1   2
BRANCH   1  12
ATOM     12  C   LIG    1        3.112  -4.392  -1.215  0.00  0.00    -0.120 A 
ATOM     13  C   LIG    1        1.977  -5.170  -1.084  0.00  0.00    +0.060 A 
ATOM     14  C   LIG    1        1.529  -5.923  -2.153  0.00  0.00    +0.000 A 
ATOM     15  C   LIG    1        2.221  -5.906  -3.350  0.00  0.00    +0.010 A 
ATOM     16  C   LIG    1        3.359  -5.132  -3.478  0.00  0.00    +0.000 A 
ATOM     17  C   LIG    1        3.805  -4.375  -2.411  0.00  0.00    +0.020 A 
ENDBRANCH   1  12
BRANCH   1  19
ATOM     18  O   LIG    1        2.998  -4.139   2.159  0.00  0.00    -0.510 OA
ATOM     19  C   LIG    1        3.660  -4.428   1.184  0.00  0.00    +0.510 C 
ATOM     20  N   LIG    1        4.451  -5.519   1.206  0.00  0.00    -0.720 N 
ATOM     21  H   LIG    1        4.980  -5.750   0.427  0.00  0.00    +0.400 HD
BRANCH  20  22
ATOM     22  C   LIG    1        4.511  -6.356   2.407  0.00  0.00    +0.320 C 
BRANCH  22  23
ATOM     23  C   LIG    1        5.461  -7.503   2.172  0.00  0.00    -0.110 A 
ATOM     24  C   LIG    1        4.991  -8.694   1.653  0.00  0.00    +0.020 A 
ATOM     25  C   LIG    1        5.863  -9.745   1.434  0.00  0.00    +0.000 A 
ATOM     26  C   LIG    1        7.203  -9.606   1.744  0.00  0.00    +0.010 A 
ATOM     27  C   LIG    1        7.672  -8.416   2.268  0.00  0.00    +0.000 A 
ATOM     28  C   LIG    1        6.801  -7.365   2.483  0.00  0.00    +0.020 A 
ENDBRANCH  22  23
ENDBRANCH  20  22
ENDBRANCH   1  19
TORSDOF 5
