REMARK  Name = ZINCqH0000006XNE.0
REMARK                            x       y       z     vdW  Elec       q    Type
REMARK                         _______ _______ _______ _____ _____    ______ ____
ROOT
ATOM      1  C   LIG    1        4.712   1.511  -0.035  0.00  0.00    +0.210 A 
ATOM      2  N   LIG    1        3.543   2.116   0.003  0.00  0.00    -0.460 NA
ATOM      3  C   LIG    1        2.392   1.443   0.028  0.00  0.00    +0.130 A 
ATOM      4  C   LIG    1        1.157   2.117   0.068  0.00  0.00    +0.050 A 
ATOM      5  C   LIG    1       -0.001   1.403   0.091  0.00  0.00    +0.030 A 
ATOM      6  C   LIG    1        0.012   0.010   0.077  0.00  0.00    +0.020 A 
ATOM      7  C   LIG    1        1.189  -0.677   0.039  0.00  0.00    +0.060 A 
ATOM      8  C   LIG    1        2.399   0.025   0.014  0.00  0.00    -0.070 A 
ATOM      9  C   LIG    1        3.686  -0.670  -0.028  0.00  0.00    -0.060 A 
ATOM     10  C   LIG    1        4.831   0.112  -0.052  0.00  0.00    +0.020 A 
ENDROOT
BRANCH   1  14
ATOM     11  C   LIG    1        8.252   3.870  -0.107  0.00  0.00    +0.120 A 
ATOM     12  C   LIG    1        8.341   2.486  -0.123  0.00  0.00    -0.040 A 
ATOM     13  C   LIG    1        7.194   1.719  -0.095  0.00  0.00    +0.040 A 
ATOM     14  C   LIG    1        5.944   2.334  -0.060  0.00  0.00    -0.060 A 
ATOM     15  C   LIG    1        5.854   3.726  -0.044  0.00  0.00    +0.020 A 
ATOM     16  C   LIG    1        7.005   4.491  -0.067  0.00  0.00    +0.100 A 
BRANCH  11  18
ATOM     17  C   LIG    1       10.629   3.921  -0.171  0.00  0.00    +0.240 C 
ATOM     18  O   LIG    1        9.384   4.622  -0.130  0.00  0.00    -0.300 OA
ENDBRANCH  11  18
BRANCH  16  19
ATOM     19  O   LIG    1        6.921   5.848  -0.052  0.00  0.00    -0.300 OA
ATOM     20  C   LIG    1        5.611   6.416  -0.011  0.00  0.00    +0.240 C 
ENDBRANCH  16  19
ENDBRANCH   1  14
BRANCH   9  21
ATOM     21  C   LIG    1        3.762  -2.147  -0.045  0.00  0.00    +0.590 C 
ATOM     22  N   LIG    1        4.747  -2.763  -0.728  0.00  0.00    -0.640 N 
ATOM     23  C   LIG    1        5.932  -2.340  -1.490  0.00  0.00    +0.260 C 
ATOM     24  C   LIG    1        5.800  -3.628  -2.310  0.00  0.00    +0.050 C 
ATOM     25  C   LIG    1        5.105  -4.153  -1.046  0.00  0.00    +0.280 C 
ATOM     26  O   LIG    1        2.937  -2.805   0.558  0.00  0.00    -0.520 OA
ENDBRANCH   9  21
TORSDOF 4
