REMARK  Name = ZINCnE000001SM1G.0
REMARK                            x       y       z     vdW  Elec       q    Type
REMARK                         _______ _______ _______ _____ _____    ______ ____
ROOT
ATOM      1  C   LIG    1        6.098   0.510  -0.055  0.00  0.00    +0.300 C 
ENDROOT
BRANCH   1   3
ATOM      2  C   LIG    1        3.743  -0.115  -0.035  0.00  0.00    +0.600 C 
ATOM      3  N   LIG    1        4.676   0.858  -0.039  0.00  0.00    -0.730 N 
ATOM      4  H   LIG    1        4.404   1.790  -0.030  0.00  0.00    +0.410 HD
ATOM      5  O   LIG    1        4.083  -1.282  -0.045  0.00  0.00    -0.520 OA
BRANCH   2  10
ATOM      6  O   LIG    1       -1.031  -0.655   0.008  0.00  0.00    -0.610 OA
ATOM      7  C   LIG    1        0.002  -0.004   0.002  0.00  0.00    +0.440 A 
ATOM      8  N   LIG    1       -0.016   1.334   0.009  0.00  0.00    -0.600 NA
ATOM      9  S   LIG    1        1.597   1.859  -0.003  0.00  0.00    +0.090 S 
ATOM     10  C   LIG    1        2.306   0.237  -0.019  0.00  0.00    -0.220 A 
ATOM     11  C   LIG    1        1.245  -0.619  -0.013  0.00  0.00    -0.080 A 
ATOM     12 CL   LIG    1        1.434  -2.345  -0.024  0.00  0.00    -0.040 Cl
ENDBRANCH   2  10
ENDBRANCH   1   3
BRANCH   1  13
ATOM     13  C   LIG    1        6.937   1.790  -0.056  0.00  0.00    +0.200 C 
BRANCH  13  14
ATOM     14  O   LIG    1        6.734   2.493   1.172  0.00  0.00    -0.300 OA
BRANCH  14  15
ATOM     15  C   LIG    1        7.410   3.660   1.333  0.00  0.00    +0.150 A 
ATOM     16  C   LIG    1        8.241   4.115   0.348  0.00  0.00    -0.100 A 
ATOM     17  C   LIG    1        8.940   5.309   0.498  0.00  0.00    +0.050 A 
ATOM     18  C   LIG    1        8.819   6.058   1.629  0.00  0.00    -0.020 A 
ATOM     19  C   LIG    1        7.975   5.624   2.666  0.00  0.00    -0.020 A 
ATOM     20  C   LIG    1        7.827   6.371   3.846  0.00  0.00    +0.010 A 
ATOM     21  C   LIG    1        7.001   5.919   4.830  0.00  0.00    +0.020 A 
ATOM     22  C   LIG    1        6.299   4.725   4.684  0.00  0.00    +0.000 A 
ATOM     23  C   LIG    1        6.418   3.975   3.554  0.00  0.00    +0.050 A 
ATOM     24  C   LIG    1        7.256   4.412   2.515  0.00  0.00    -0.070 A 
ENDBRANCH  14  15
ENDBRANCH  13  14
ENDBRANCH   1  13
TORSDOF 5
