REMARK  Name = ZINCrH000004u6Gx.0
REMARK                            x       y       z     vdW  Elec       q    Type
REMARK                         _______ _______ _______ _____ _____    ______ ____
ROOT
ATOM      1  C   LIG    1       -3.507   7.359   1.542  0.00  0.00    +0.240 C 
ATOM      2  C   LIG    1       -2.133   8.032   1.508  0.00  0.00    +0.030 C 
ATOM      3  C   LIG    1       -1.374   7.571   0.260  0.00  0.00    +0.300 C 
ATOM      4  N   LIG    1       -1.327   6.102   0.251  0.00  0.00    -0.620 N 
ATOM      5  C   LIG    1       -2.587   5.354   0.364  0.00  0.00    +0.270 C 
ATOM      6  C   LIG    1       -0.151   5.453   0.134  0.00  0.00    +0.710 C 
ATOM      7  N   LIG    1       -0.131   4.109   0.033  0.00  0.00    -0.670 N 
ATOM      8  H   LIG    1       -0.963   3.612   0.005  0.00  0.00    +0.410 HD
ATOM      9  O   LIG    1        0.890   6.080   0.120  0.00  0.00    -0.570 OA
ATOM     10  C   LIG    1       -3.331   5.840   1.617  0.00  0.00    +0.020 C 
ENDROOT
BRANCH   7  11
ATOM     11  C   LIG    1        1.090   3.433  -0.031  0.00  0.00    +0.180 A 
ATOM     12  C   LIG    1        2.211   4.068  -0.516  0.00  0.00    +0.030 A 
ATOM     13  C   LIG    1        3.434   3.405  -0.585  0.00  0.00    +0.040 A 
ATOM     14  C   LIG    1        3.554   2.112  -0.174  0.00  0.00    +0.010 A 
ATOM     15  C   LIG    1        2.434   1.430   0.327  0.00  0.00    -0.080 A 
ATOM     16  C   LIG    1        2.525   0.093   0.760  0.00  0.00    +0.080 A 
ATOM     17  C   LIG    1        1.394  -0.508   1.236  0.00  0.00    -0.030 A 
ATOM     18  C   LIG    1        0.196   0.201   1.282  0.00  0.00    +0.290 A 
ATOM     19  N   LIG    1        0.116   1.446   0.878  0.00  0.00    -0.480 NA
ATOM     20  C   LIG    1        1.184   2.092   0.403  0.00  0.00    +0.110 A 
ENDBRANCH   7  11
BRANCH   1  23
ATOM     21  O   LIG    1       -6.196   7.386   1.743  0.00  0.00    -0.530 OA
ATOM     22  C   LIG    1       -5.596   7.796   2.718  0.00  0.00    +0.580 C 
ATOM     23  N   LIG    1       -4.248   7.823   2.717  0.00  0.00    -0.720 N 
ATOM     24  H   LIG    1       -3.770   8.150   3.495  0.00  0.00    +0.400 HD
BRANCH  22  25
ATOM     25  C   LIG    1       -6.341   8.262   3.898  0.00  0.00    -0.160 A 
ATOM     26  C   LIG    1       -5.742   8.734   5.025  0.00  0.00    -0.040 A 
ATOM     27  S   LIG    1       -6.906   9.185   6.186  0.00  0.00    +0.200 S 
ATOM     28  C   LIG    1       -8.238   8.729   5.138  0.00  0.00    -0.060 A 
ATOM     29  C   LIG    1       -7.783   8.271   3.978  0.00  0.00    +0.070 A 
ENDBRANCH  22  25
ENDBRANCH   1  23
TORSDOF 3
