REMARK  Name = ZINCqH0000034odh.0
REMARK                            x       y       z     vdW  Elec       q    Type
REMARK                         _______ _______ _______ _____ _____    ______ ____
ROOT
ATOM      1  N   LIG    1       -3.419   0.519  -3.430  0.00  0.00    -0.670 N 
ATOM      2  H   LIG    1       -3.611  -0.366  -3.083  0.00  0.00    +0.400 HD
ATOM      3  C   LIG    1       -4.136   1.010  -4.460  0.00  0.00    +0.740 C 
ATOM      4  N   LIG    1       -5.187   0.316  -4.941  0.00  0.00    -0.650 N 
ATOM      5  C   LIG    1       -5.838  -0.968  -4.628  0.00  0.00    +0.280 C 
ATOM      6  C   LIG    1       -7.114  -0.386  -5.218  0.00  0.00    -0.090 C 
ATOM      7  C   LIG    1       -8.013  -1.339  -6.010  0.00  0.00    +0.090 C 
ATOM      8  C   LIG    1       -9.209  -1.561  -5.107  0.00  0.00    -0.040 C 
ATOM      9  C   LIG    1       -9.250  -0.670  -4.151  0.00  0.00    -0.030 C 
ATOM     10  C   LIG    1       -8.088   0.296  -4.255  0.00  0.00    +0.090 C 
ATOM     11  C   LIG    1       -6.180   0.509  -6.013  0.00  0.00    +0.310 C 
ATOM     12  O   LIG    1       -3.835   2.079  -4.955  0.00  0.00    -0.560 OA
ENDROOT
BRANCH   1  17
ATOM     13  N   LIG    1       -1.682   3.289  -1.769  0.00  0.00    -0.490 N 
ATOM     14  C   LIG    1       -0.407   2.817  -1.736  0.00  0.00    +0.290 A 
ATOM     15  C   LIG    1       -0.105   1.603  -2.250  0.00  0.00    -0.070 A 
ATOM     16  C   LIG    1       -1.111   0.814  -2.826  0.00  0.00    +0.110 A 
ATOM     17  C   LIG    1       -2.394   1.288  -2.860  0.00  0.00    +0.040 A 
ATOM     18  C   LIG    1       -2.674   2.557  -2.310  0.00  0.00    +0.520 A 
ATOM     19  O   LIG    1       -3.814   2.993  -2.328  0.00  0.00    -0.530 OA
BRANCH  13  21
ATOM     20  C   LIG    1       -1.825   5.675  -2.290  0.00  0.00    +0.040 C 
ATOM     21  C   LIG    1       -1.980   4.608  -1.204  0.00  0.00    +0.280 C 
ENDBRANCH  13  21
ENDBRANCH   1  17
BRANCH  11  22
ATOM     22  C   LIG    1       -5.761  -0.081  -7.335  0.00  0.00    -0.090 A 
ATOM     23  C   LIG    1       -4.787  -1.061  -7.377  0.00  0.00    +0.010 A 
ATOM     24  C   LIG    1       -4.406  -1.605  -8.589  0.00  0.00    +0.000 A 
ATOM     25  C   LIG    1       -4.992  -1.163  -9.760  0.00  0.00    +0.000 A 
ATOM     26  C   LIG    1       -5.962  -0.178  -9.719  0.00  0.00    +0.000 A 
ATOM     27  C   LIG    1       -6.346   0.362  -8.506  0.00  0.00    +0.020 A 
ENDBRANCH  11  22
TORSDOF 3
