MODEL        1
REMARK  Name = ZINC000071772991
REMARK                            x       y       z     vdW  Elec       q    Type
REMARK                         _______ _______ _______ _____ _____    ______ ____
ROOT
ATOM      1  N   LIG    1        0.796  -0.399  -1.397  0.00  0.00    -1.280 NA
ENDROOT
BRANCH   1   3
ATOM      2  C   LIG    1       -0.022   1.810   0.012  0.00  0.00    -0.300 C 
ATOM      3  S   LIG    1        0.002  -0.004   0.002  0.00  0.00    +2.580 S 
ATOM      4  O   LIG    1       -1.309  -0.519  -0.182  0.00  0.00    -0.910 OA
ATOM      5  O   LIG    1        0.845  -0.497   1.035  0.00  0.00    -0.920 OA
ENDBRANCH   1   3
BRANCH   1   6
ATOM      6  S   LIG    1       -0.037  -0.488  -2.825  0.00  0.00    +2.580 S 
ATOM      7  O   LIG    1       -1.341  -0.907  -2.445  0.00  0.00    -0.910 OA
ATOM      8  O   LIG    1        0.780  -1.300  -3.657  0.00  0.00    -0.920 OA
ATOM      9  C   LIG    1       -0.070   1.220  -3.437  0.00  0.00    -0.310 C 
ENDBRANCH   1   6
BRANCH   1  10
ATOM     10  C   LIG    1        2.236  -0.669  -1.370  0.00  0.00    +0.230 C 
BRANCH  10  11
ATOM     11  C   LIG    1        2.466  -2.138  -1.122  0.00  0.00    +0.490 C 
ATOM     12  O   LIG    1        3.603  -2.575  -1.063  0.00  0.00    -0.690 OA
ATOM     13  O   LIG    1        1.516  -2.889  -0.980  0.00  0.00    -0.680 OA
ENDBRANCH  10  11
ENDBRANCH   1  10
TORSDOF 4
ENDMDL
MODEL        2
REMARK  Name = ZINC000001065733
REMARK                            x       y       z     vdW  Elec       q    Type
REMARK                         _______ _______ _______ _____ _____    ______ ____
ROOT
ATOM      1  C   LIG    1       -1.522  -2.385   0.004  0.00  0.00    -0.710 A 
ATOM      2  C   LIG    1       -1.854  -3.127   1.128  0.00  0.00    +0.510 A 
ATOM      3  N   LIG    1       -1.703  -4.481   1.082  0.00  0.00    -0.650 N 
ATOM      4  H   LIG    1       -1.925  -5.030   1.850  0.00  0.00    +0.410 HD
ATOM      5  C   LIG    1       -1.237  -5.043  -0.053  0.00  0.00    +0.610 A 
ATOM      6  N   LIG    1       -0.933  -4.278  -1.108  0.00  0.00    -0.390 NA
ATOM      7  O   LIG    1       -1.094  -6.252  -0.118  0.00  0.00    -0.560 OA
ATOM      8  O   LIG    1       -2.317  -2.522   2.242  0.00  0.00    -0.590 OA
ATOM      9  N   LIG    1       -1.076  -3.001  -1.078  0.00  0.00    -0.030 NA
ENDROOT
BRANCH   1  10
ATOM     10  S   LIG    1       -1.700  -0.632   0.015  0.00  0.00    +2.540 S 
ATOM     11  O   LIG    1       -2.349  -0.338  -1.214  0.00  0.00    -0.950 OA
ATOM     12  O   LIG    1       -2.325  -0.351   1.259  0.00  0.00    -0.910 OA
BRANCH  10  14
ATOM     13  C   LIG    1       -0.019   1.526   0.010  0.00  0.00    +0.070 C 
ATOM     14  C   LIG    1        0.002  -0.004   0.002  0.00  0.00    -0.360 C 
ENDBRANCH  10  14
ENDBRANCH   1  10
TORSDOF 2
ENDMDL
MODEL        3
REMARK  Name = ZINC000019793983
REMARK                            x       y       z     vdW  Elec       q    Type
REMARK                         _______ _______ _______ _____ _____    ______ ____
ROOT
ATOM      1  N   LIG    1        2.307   3.909  -0.010  0.00  0.00    -0.710 N 
ATOM      2  H   LIG    1        3.147   3.423  -0.025  0.00  0.00    +0.400 HD
ENDROOT
BRANCH   1   8
ATOM      3  O   LIG    1        0.002  -0.004   0.002  0.00  0.00    -0.600 OA
ATOM      4  C   LIG    1       -0.015   1.217   0.009  0.00  0.00    +0.490 A 
ATOM      5  C   LIG    1       -1.290   1.939   0.031  0.00  0.00    +0.040 A 
ATOM      6  N   LIG    1       -1.275   3.244   0.038  0.00  0.00    -0.220 NA
ATOM      7  N   LIG    1       -0.047   3.918   0.023  0.00  0.00    -0.510 NA
ATOM      8  C   LIG    1        1.120   3.226   0.003  0.00  0.00    +0.550 A 
ATOM      9  N   LIG    1        1.132   1.908   0.002  0.00  0.00    -0.700 NA
ENDBRANCH   1   8
BRANCH   1  10
ATOM     10  C   LIG    1        2.310   5.374  -0.002  0.00  0.00    +0.280 C 
BRANCH  10  11
ATOM     11  C   LIG    1        3.753   5.882  -0.019  0.00  0.00    +0.160 C 
BRANCH  11  12
ATOM     12  N   LIG    1        3.755   7.351  -0.011  0.00  0.00    -0.530 NA
ATOM     13  C   LIG    1        2.795   7.885  -0.988  0.00  0.00    +0.150 C 
ATOM     14  C   LIG    1        2.786   9.413  -0.904  0.00  0.00    +0.220 C 
ATOM     15  O   LIG    1        4.111   9.905  -1.123  0.00  0.00    -0.390 OA
ATOM     16  C   LIG    1        5.072   9.406  -0.190  0.00  0.00    +0.220 C 
ATOM     17  C   LIG    1        5.104   7.877  -0.266  0.00  0.00    +0.150 C 
ENDBRANCH  11  12
ENDBRANCH  10  11
ENDBRANCH   1  10
TORSDOF 4
ENDMDL
MODEL        4
REMARK  Name = ZINC000238900512
REMARK                            x       y       z     vdW  Elec       q    Type
REMARK                         _______ _______ _______ _____ _____    ______ ____
ROOT
ATOM      1  C   LIG    1       -0.047   5.392   0.031  0.00  0.00    +0.490 C 
ATOM      2  O   LIG    1       -0.488   5.864   1.306  0.00  0.00    -0.360 OA
ATOM      3  C   LIG    1       -1.799   5.426   1.669  0.00  0.00    +0.200 C 
ATOM      4  C   LIG    1       -2.811   5.948   0.646  0.00  0.00    +0.130 C 
ATOM      5  C   LIG    1       -2.417   5.452  -0.749  0.00  0.00    +0.180 C 
ATOM      6  C   LIG    1       -0.989   5.912  -1.058  0.00  0.00    +0.170 C 
ENDROOT
BRANCH   1  11
ATOM      7  O   LIG    1        0.002  -0.004   0.006  0.00  0.00    -0.570 OA
ATOM      8  C   LIG    1       -0.015   1.213   0.012  0.00  0.00    +0.480 A 
ATOM      9  C   LIG    1       -1.287   1.938  -0.038  0.00  0.00    +0.190 A 
ATOM     10  N   LIG    1       -1.274   3.242  -0.031  0.00  0.00    -0.230 NA
ATOM     11  N   LIG    1       -0.054   3.927   0.024  0.00  0.00    -0.490 N 
ATOM     12  C   LIG    1        1.111   3.257   0.070  0.00  0.00    +0.650 A 
ATOM     13  O   LIG    1        2.156   3.877   0.117  0.00  0.00    -0.590 OA
ATOM     14  N   LIG    1        1.138   1.911   0.069  0.00  0.00    -0.690 NA
ENDBRANCH   1  11
BRANCH   5  15
ATOM     15  O   LIG    1       -3.316   5.994  -1.720  0.00  0.00    -0.570 OA
ATOM     16  H   LIG    1       -4.240   5.747  -1.581  0.00  0.00    +0.380 HD
ENDBRANCH   5  15
BRANCH   4  17
ATOM     17  O   LIG    1       -4.115   5.465   0.975  0.00  0.00    -0.560 OA
ATOM     18  H   LIG    1       -4.427   5.738   1.849  0.00  0.00    +0.380 HD
ENDBRANCH   4  17
BRANCH   6  19
ATOM     19  O   LIG    1       -0.943   7.340  -1.088  0.00  0.00    -0.550 OA
ATOM     20  H   LIG    1       -1.520   7.738  -1.754  0.00  0.00    +0.380 HD
ENDBRANCH   6  19
TORSDOF 4
ENDMDL
MODEL        5
REMARK  Name = ZINC000088375393
REMARK                            x       y       z     vdW  Elec       q    Type
REMARK                         _______ _______ _______ _____ _____    ______ ____
ROOT
ATOM      1  C   LIG    1       -1.325   1.954   0.002  0.00  0.00    +0.110 C 
ATOM      2  C   LIG    1       -1.964   1.914  -1.391  0.00  0.00    +0.230 C 
ATOM      3  O   LIG    1       -3.116   2.761  -1.405  0.00  0.00    -0.390 OA
ATOM      4  C   LIG    1       -2.831   4.141  -1.163  0.00  0.00    +0.200 C 
ATOM      5  C   LIG    1       -2.236   4.295   0.241  0.00  0.00    +0.230 C 
ATOM      6  N   LIG    1       -1.106   3.361   0.372  0.00  0.00    -0.600 N 
ATOM      7  C   LIG    1        0.095   3.783   0.817  0.00  0.00    +0.480 C 
ATOM      8  O   LIG    1        1.034   3.017   0.847  0.00  0.00    -0.430 OA
ENDROOT
BRANCH   1  10
ATOM      9  O   LIG    1        0.209   0.327   0.771  0.00  0.00    -0.690 OA
ATOM     10  C   LIG    1       -0.006   1.225  -0.024  0.00  0.00    +0.520 C 
ATOM     11  O   LIG    1        0.844   1.530  -0.844  0.00  0.00    -0.680 OA
ENDBRANCH   1  10
BRANCH   7  12
ATOM     12  C   LIG    1        0.270   5.208   1.277  0.00  0.00    +0.360 C 
BRANCH  12  13
ATOM     13  N   LIG    1        1.654   5.415   1.709  0.00  0.00    -0.300 N 
ATOM     14  C   LIG    1        2.498   6.362   1.261  0.00  0.00    +0.380 A 
ATOM     15  N   LIG    1        3.628   6.195   1.905  0.00  0.00    -0.310 NA
ATOM     16  N   LIG    1        3.485   5.197   2.707  0.00  0.00    -0.080 NA
ATOM     17  N   LIG    1        2.291   4.727   2.595  0.00  0.00    -0.050 NA
ENDBRANCH  12  13
ENDBRANCH   7  12
TORSDOF 3
ENDMDL
MODEL        6
REMARK  Name = ZINC000088375391
REMARK                            x       y       z     vdW  Elec       q    Type
REMARK                         _______ _______ _______ _____ _____    ______ ____
ROOT
ATOM      1  C   LIG    1       -1.332   1.941   0.002  0.00  0.00    +0.110 C 
ATOM      2  C   LIG    1       -1.751   2.297  -1.429  0.00  0.00    +0.230 C 
ATOM      3  O   LIG    1       -3.075   2.835  -1.412  0.00  0.00    -0.390 OA
ATOM      4  C   LIG    1       -4.072   1.922  -0.946  0.00  0.00    +0.200 C 
ATOM      5  C   LIG    1       -3.771   1.547   0.510  0.00  0.00    +0.230 C 
ATOM      6  N   LIG    1       -2.375   1.089   0.593  0.00  0.00    -0.600 N 
ATOM      7  C   LIG    1       -2.062  -0.077   1.193  0.00  0.00    +0.480 C 
ATOM      8  O   LIG    1       -0.899  -0.386   1.347  0.00  0.00    -0.440 OA
ENDROOT
BRANCH   1  10
ATOM      9  O   LIG    1        0.062   0.130  -0.609  0.00  0.00    -0.670 OA
ATOM     10  C   LIG    1       -0.022   1.196  -0.024  0.00  0.00    +0.520 C 
ATOM     11  O   LIG    1        0.956   1.663   0.536  0.00  0.00    -0.690 OA
ENDBRANCH   1  10
BRANCH   7  12
ATOM     12  C   LIG    1       -3.156  -0.996   1.672  0.00  0.00    +0.360 C 
BRANCH  12  13
ATOM     13  N   LIG    1       -2.560  -2.187   2.283  0.00  0.00    -0.300 N 
ATOM     14  C   LIG    1       -2.803  -2.656   3.521  0.00  0.00    +0.380 A 
ATOM     15  N   LIG    1       -2.070  -3.733   3.666  0.00  0.00    -0.310 NA
ATOM     16  N   LIG    1       -1.411  -3.915   2.574  0.00  0.00    -0.090 NA
ATOM     17  N   LIG    1       -1.709  -2.985   1.734  0.00  0.00    -0.040 NA
ENDBRANCH  12  13
ENDBRANCH   7  12
TORSDOF 3
ENDMDL
MODEL        7
REMARK  Name = ZINC000003830728
REMARK                            x       y       z     vdW  Elec       q    Type
REMARK                         _______ _______ _______ _____ _____    ______ ____
ROOT
ATOM      1  C   LIG    1       -0.363   1.566  -0.255  0.00  0.00    +0.060 C 
ATOM      2  C   LIG    1       -0.224   0.043  -0.201  0.00  0.00    +0.110 C 
ATOM      3  O   LIG    1       -1.513  -0.557   0.009  0.00  0.00    -0.350 OA
ATOM      4  C   LIG    1       -1.302  -1.734   0.819  0.00  0.00    +0.460 C 
ATOM      5  C   LIG    1       -0.233  -1.281   1.845  0.00  0.00    +0.180 C 
ATOM      6  C   LIG    1        0.672  -0.359   0.986  0.00  0.00    +0.120 C 
ENDROOT
BRANCH   4   7
ATOM      7  N   LIG    1       -0.799  -2.840   0.000  0.00  0.00    -0.540 N 
ATOM      8  C   LIG    1        0.365  -2.687  -0.707  0.00  0.00    +0.230 A 
ATOM      9  C   LIG    1        0.828  -3.707  -1.461  0.00  0.00    -0.100 A 
ATOM     10  C   LIG    1        0.095  -4.920  -1.504  0.00  0.00    +0.510 A 
ATOM     11  N   LIG    1       -1.046  -5.029  -0.794  0.00  0.00    -0.680 NA
ATOM     12  O   LIG    1        0.493  -5.854  -2.177  0.00  0.00    -0.580 OA
ATOM     13  F   LIG    1        1.974  -3.574  -2.164  0.00  0.00    -0.140 F 
ATOM     14  C   LIG    1       -1.482  -3.999  -0.047  0.00  0.00    +0.650 A 
ATOM     15  O   LIG    1       -2.512  -4.113   0.589  0.00  0.00    -0.600 OA
ENDBRANCH   4   7
BRANCH   5  16
ATOM     16  O   LIG    1        0.504  -2.399   2.342  0.00  0.00    -0.530 OA
ATOM     17  H   LIG    1        1.185  -2.166   2.987  0.00  0.00    +0.380 HD
ENDBRANCH   5  16
BRANCH   6  18
ATOM     18  O   LIG    1        1.064   0.794   1.733  0.00  0.00    -0.550 OA
ATOM     19  H   LIG    1        1.632   1.405   1.244  0.00  0.00    +0.380 HD
ENDBRANCH   6  18
TORSDOF 3
ENDMDL
MODEL        8
REMARK  Name = ZINC000003830726
REMARK                            x       y       z     vdW  Elec       q    Type
REMARK                         _______ _______ _______ _____ _____    ______ ____
ROOT
ATOM      1  C   LIG    1       -0.641   1.571  -0.433  0.00  0.00    +0.060 C 
ATOM      2  C   LIG    1       -0.410   0.061  -0.340  0.00  0.00    +0.120 C 
ATOM      3  O   LIG    1       -1.642  -0.602  -0.010  0.00  0.00    -0.360 OA
ATOM      4  C   LIG    1       -1.302  -1.734   0.819  0.00  0.00    +0.440 C 
ATOM      5  C   LIG    1       -0.187  -1.184   1.744  0.00  0.00    +0.170 C 
ATOM      6  C   LIG    1        0.595  -0.246   0.787  0.00  0.00    +0.110 C 
ENDROOT
BRANCH   4   7
ATOM      7  N   LIG    1       -0.799  -2.840   0.000  0.00  0.00    -0.540 N 
ATOM      8  C   LIG    1       -0.539  -2.637  -1.330  0.00  0.00    +0.250 A 
ATOM      9  C   LIG    1       -0.075  -3.657  -2.084  0.00  0.00    -0.110 A 
ATOM     10  C   LIG    1        0.133  -4.921  -1.479  0.00  0.00    +0.510 A 
ATOM     11  N   LIG    1       -0.135  -5.080  -0.167  0.00  0.00    -0.680 NA
ATOM     12  O   LIG    1        0.551  -5.856  -2.138  0.00  0.00    -0.590 OA
ATOM     13  F   LIG    1        0.187  -3.474  -3.397  0.00  0.00    -0.150 F 
ATOM     14  C   LIG    1       -0.592  -4.045   0.562  0.00  0.00    +0.660 A 
ATOM     15  O   LIG    1       -0.829  -4.203   1.744  0.00  0.00    -0.590 OA
ENDBRANCH   4   7
BRANCH   5  16
ATOM     16  O   LIG    1        0.650  -2.241   2.217  0.00  0.00    -0.500 OA
ATOM     17  H   LIG    1        1.364  -1.946   2.800  0.00  0.00    +0.370 HD
ENDBRANCH   5  16
BRANCH   6  18
ATOM     18  O   LIG    1        1.749  -0.911   0.268  0.00  0.00    -0.530 OA
ATOM     19  H   LIG    1        2.276  -0.370  -0.337  0.00  0.00    +0.370 HD
ENDBRANCH   6  18
TORSDOF 3
ENDMDL
MODEL        9
REMARK  Name = ZINC000003830725
REMARK                            x       y       z     vdW  Elec       q    Type
REMARK                         _______ _______ _______ _____ _____    ______ ____
ROOT
ATOM      1  C   LIG    1       -0.019   1.526   0.010  0.00  0.00    +0.050 C 
ATOM      2  C   LIG    1        0.002  -0.004   0.002  0.00  0.00    +0.120 C 
ATOM      3  O   LIG    1        0.734  -0.491  -1.144  0.00  0.00    -0.350 OA
ATOM      4  C   LIG    1        1.116  -1.842  -0.806  0.00  0.00    +0.400 C 
ATOM      5  C   LIG    1        1.531  -1.775   0.681  0.00  0.00    +0.150 C 
ATOM      6  C   LIG    1        0.779  -0.538   1.226  0.00  0.00    +0.120 C 
ENDROOT
BRANCH   4   7
ATOM      7  N   LIG    1        2.244  -2.276  -1.634  0.00  0.00    -0.530 N 
ATOM      8  C   LIG    1        2.151  -3.439  -2.353  0.00  0.00    +0.230 A 
ATOM      9  C   LIG    1        3.191  -3.838  -3.116  0.00  0.00    -0.100 A 
ATOM     10  C   LIG    1        4.362  -3.040  -3.156  0.00  0.00    +0.500 A 
ATOM     11  N   LIG    1        4.413  -1.903  -2.433  0.00  0.00    -0.680 NA
ATOM     12  O   LIG    1        5.313  -3.379  -3.837  0.00  0.00    -0.590 OA
ATOM     13  F   LIG    1        3.116  -4.981  -3.832  0.00  0.00    -0.140 F 
ATOM     14  C   LIG    1        3.360  -1.526  -1.685  0.00  0.00    +0.650 A 
ATOM     15  O   LIG    1        3.421  -0.498  -1.039  0.00  0.00    -0.540 OA
ENDBRANCH   4   7
BRANCH   5  16
ATOM     16  O   LIG    1        2.944  -1.599   0.798  0.00  0.00    -0.490 OA
ATOM     17  H   LIG    1        3.260  -1.551   1.711  0.00  0.00    +0.360 HD
ENDBRANCH   5  16
BRANCH   6  18
ATOM     18  O   LIG    1        1.704   0.442   1.699  0.00  0.00    -0.530 OA
ATOM     19  H   LIG    1        1.287   1.240   2.053  0.00  0.00    +0.370 HD
ENDBRANCH   6  18
TORSDOF 3
ENDMDL
MODEL       10
REMARK  Name = ZINC000003830727
REMARK                            x       y       z     vdW  Elec       q    Type
REMARK                         _______ _______ _______ _____ _____    ______ ____
ROOT
ATOM      1  C   LIG    1       -0.019   1.526   0.010  0.00  0.00    +0.060 C 
ATOM      2  C   LIG    1        0.002  -0.004   0.002  0.00  0.00    +0.120 C 
ATOM      3  O   LIG    1        0.734  -0.491  -1.144  0.00  0.00    -0.350 OA
ATOM      4  C   LIG    1        1.116  -1.842  -0.806  0.00  0.00    +0.410 C 
ATOM      5  C   LIG    1        1.531  -1.775   0.681  0.00  0.00    +0.160 C 
ATOM      6  C   LIG    1        0.779  -0.538   1.226  0.00  0.00    +0.130 C 
ENDROOT
BRANCH   4   7
ATOM      7  N   LIG    1        2.244  -2.276  -1.634  0.00  0.00    -0.530 N 
ATOM      8  C   LIG    1        2.151  -3.439  -2.353  0.00  0.00    +0.240 A 
ATOM      9  C   LIG    1        3.191  -3.838  -3.116  0.00  0.00    -0.100 A 
ATOM     10  C   LIG    1        4.362  -3.040  -3.156  0.00  0.00    +0.500 A 
ATOM     11  N   LIG    1        4.413  -1.903  -2.433  0.00  0.00    -0.680 NA
ATOM     12  O   LIG    1        5.313  -3.379  -3.837  0.00  0.00    -0.590 OA
ATOM     13  F   LIG    1        3.116  -4.981  -3.832  0.00  0.00    -0.140 F 
ATOM     14  C   LIG    1        3.360  -1.526  -1.685  0.00  0.00    +0.660 A 
ATOM     15  O   LIG    1        3.421  -0.498  -1.039  0.00  0.00    -0.550 OA
ENDBRANCH   4   7
BRANCH   5  16
ATOM     16  O   LIG    1        2.944  -1.599   0.798  0.00  0.00    -0.500 OA
ATOM     17  H   LIG    1        3.260  -1.551   1.711  0.00  0.00    +0.360 HD
ENDBRANCH   5  16
BRANCH   6  18
ATOM     18  O   LIG    1       -0.120  -0.918   2.270  0.00  0.00    -0.560 OA
ATOM     19  H   LIG    1       -0.618  -0.181   2.648  0.00  0.00    +0.380 HD
ENDBRANCH   6  18
TORSDOF 3
ENDMDL
MODEL       11
REMARK  Name = ZINC000003865792
REMARK                            x       y       z     vdW  Elec       q    Type
REMARK                         _______ _______ _______ _____ _____    ______ ____
ROOT
ATOM      1  N   LIG    1       -2.430   0.984   0.019  0.00  0.00    -0.710 N 
ATOM      2  H   LIG    1       -2.240   0.033   0.013  0.00  0.00    +0.410 HD
ATOM      3  C   LIG    1       -3.707   1.416   0.027  0.00  0.00    +0.700 C 
ATOM      4  N   LIG    1       -4.719   0.526   0.027  0.00  0.00    -0.740 N 
ATOM      5  H   LIG    1       -4.529  -0.425   0.021  0.00  0.00    +0.400 HD
ATOM      6  O   LIG    1       -3.945   2.608   0.035  0.00  0.00    -0.600 OA
ENDROOT
BRANCH   4   7
ATOM      7  C   LIG    1       -6.107   0.996   0.036  0.00  0.00    +0.290 C 
ATOM      8  C   LIG    1       -6.572   1.262  -1.406  0.00  0.00    +0.060 C 
ATOM      9  C   LIG    1       -8.113   1.427  -1.351  0.00  0.00    -0.300 C 
ATOM     10  S   LIG    1       -8.618   0.086  -0.208  0.00  0.00    +2.400 S 
ATOM     11  O   LIG    1       -8.881  -1.095  -0.954  0.00  0.00    -0.940 OA
ATOM     12  O   LIG    1       -9.592   0.583   0.699  0.00  0.00    -0.940 OA
ATOM     13  C   LIG    1       -7.016  -0.086   0.655  0.00  0.00    -0.320 C 
ENDBRANCH   4   7
BRANCH   1  14
ATOM     14  C   LIG    1       -1.330   1.951   0.019  0.00  0.00    +0.190 C 
BRANCH  14  16
ATOM     15  O   LIG    1        0.002  -0.004   0.002  0.00  0.00    -0.690 OA
ATOM     16  C   LIG    1       -0.015   1.215   0.009  0.00  0.00    +0.490 C 
ATOM     17  O   LIG    1        1.033   1.839   0.002  0.00  0.00    -0.690 OA
ENDBRANCH  14  16
ENDBRANCH   1  14
TORSDOF 3
ENDMDL
MODEL       12
REMARK  Name = ZINC000003865791
REMARK                            x       y       z     vdW  Elec       q    Type
REMARK                         _______ _______ _______ _____ _____    ______ ____
ROOT
ATOM      1  N   LIG    1       -2.430   0.984   0.019  0.00  0.00    -0.710 N 
ATOM      2  H   LIG    1       -2.240   0.033   0.013  0.00  0.00    +0.410 HD
ATOM      3  C   LIG    1       -3.707   1.416   0.027  0.00  0.00    +0.700 C 
ATOM      4  N   LIG    1       -4.719   0.526   0.027  0.00  0.00    -0.740 N 
ATOM      5  H   LIG    1       -4.529  -0.425   0.021  0.00  0.00    +0.400 HD
ATOM      6  O   LIG    1       -3.945   2.608   0.035  0.00  0.00    -0.600 OA
ENDROOT
BRANCH   4   7
ATOM      7  C   LIG    1       -6.107   0.996   0.036  0.00  0.00    +0.280 C 
ATOM      8  C   LIG    1       -6.576   1.226   1.484  0.00  0.00    +0.060 C 
ATOM      9  C   LIG    1       -8.109   1.384   1.488  0.00  0.00    -0.310 C 
ATOM     10  S   LIG    1       -8.690   0.423   0.043  0.00  0.00    +2.400 S 
ATOM     11  O   LIG    1       -9.289   1.304  -0.898  0.00  0.00    -0.930 OA
ATOM     12  O   LIG    1       -9.402  -0.721   0.494  0.00  0.00    -0.940 OA
ATOM     13  C   LIG    1       -7.038  -0.088  -0.565  0.00  0.00    -0.310 C 
ENDBRANCH   4   7
BRANCH   1  14
ATOM     14  C   LIG    1       -1.330   1.951   0.019  0.00  0.00    +0.190 C 
BRANCH  14  16
ATOM     15  O   LIG    1        0.002  -0.004   0.002  0.00  0.00    -0.690 OA
ATOM     16  C   LIG    1       -0.015   1.215   0.009  0.00  0.00    +0.490 C 
ATOM     17  O   LIG    1        1.033   1.839   0.002  0.00  0.00    -0.690 OA
ENDBRANCH  14  16
ENDBRANCH   1  14
TORSDOF 3
ENDMDL
MODEL       13
REMARK  Name = ZINC000004029831
REMARK                            x       y       z     vdW  Elec       q    Type
REMARK                         _______ _______ _______ _____ _____    ______ ____
ROOT
ATOM      1  N   PRO A  1       -2.466   0.187  -1.237  0.00  0.00    -0.620 N 
ATOM      2  H   PRO A  1       -2.067   0.574  -2.031  0.00  0.00    +0.400 HD
ATOM      3  C   PRO A  1       -3.011  -1.045  -1.289  0.00  0.00    +0.500 C 
ATOM      4  O   PRO A  1       -3.511  -1.530  -0.296  0.00  0.00    -0.560 OA
ENDROOT
BRANCH   3   5
ATOM      5  CA  PRO A  1       -2.998  -1.821  -2.581  0.00  0.00    +0.160 C 
ATOM      6  CB  PRO A  1       -3.797  -1.058  -3.659  0.00  0.00    +0.100 C 
ATOM      7  CG  PRO A  1       -4.525  -2.195  -4.423  0.00  0.00    +0.070 C 
ATOM      8  CD  PRO A  1       -4.836  -3.192  -3.279  0.00  0.00    +0.260 C 
ATOM      9  N   PRO A  1       -3.654  -3.127  -2.388  0.00  0.00    -0.500 N 
ATOM     10  H1  PRO A  1       -3.947  -3.219  -1.427  0.00  0.00    +0.440 HD
ATOM     11  H2  PRO A  1       -3.012  -3.870  -2.621  0.00  0.00    +0.430 HD
ENDBRANCH   3   5
BRANCH   1  12
ATOM     12  CA  PRO A  1       -2.479   0.941   0.019  0.00  0.00    +0.190 C 
BRANCH  12  13
ATOM     13  C   PRO A  1       -3.790   1.672   0.153  0.00  0.00    +0.490 C 
ATOM     14  OXT PRO A  1       -4.255   1.893   1.258  0.00  0.00    -0.690 OA
ATOM     15  O   PRO A  1       -4.386   2.042  -0.844  0.00  0.00    -0.700 OA
ENDBRANCH  12  13
BRANCH  12  16
ATOM     16  CB  PRO A  1       -1.330   1.951   0.019  0.00  0.00    -0.040 C 
BRANCH  16  18
ATOM     17  OD1 PRO A  1        0.002  -0.004   0.002  0.00  0.00    -0.700 OA
ATOM     18  CG  PRO A  1       -0.015   1.215   0.009  0.00  0.00    +0.490 C 
ATOM     19  OD2 PRO A  1        1.033   1.839   0.002  0.00  0.00    -0.710 OA
ENDBRANCH  16  18
ENDBRANCH  12  16
ENDBRANCH   1  12
TORSDOF 5
ENDMDL
MODEL       14
REMARK  Name = ZINC000004008783
REMARK                            x       y       z     vdW  Elec       q    Type
REMARK                         _______ _______ _______ _____ _____    ______ ____
ROOT
ATOM      1  N   LIG    1       -2.430   0.984   0.019  0.00  0.00    -0.600 N 
ATOM      2  C   LIG    1       -3.053   0.439  -1.069  0.00  0.00    +0.720 C 
ATOM      3  N   LIG    1       -4.242  -0.165  -0.732  0.00  0.00    -0.730 N 
ATOM      4  H   LIG    1       -4.756  -0.803  -1.251  0.00  0.00    +0.420 HD
ATOM      5  C   LIG    1       -4.538   0.359   0.537  0.00  0.00    +0.370 C 
ATOM      6  N   LIG    1       -5.329   0.146   1.674  0.00  0.00    -0.720 N 
ATOM      7  H   LIG    1       -6.130  -0.396   1.746  0.00  0.00    +0.430 HD
ATOM      8  C   LIG    1       -4.719   0.875   2.664  0.00  0.00    +0.730 C 
ATOM      9  N   LIG    1       -3.461   1.272   2.308  0.00  0.00    -0.740 N 
ATOM     10  H   LIG    1       -2.926   1.967   2.722  0.00  0.00    +0.430 HD
ATOM     11  O   LIG    1       -5.237   1.137   3.732  0.00  0.00    -0.550 OA
ATOM     12  O   LIG    1       -2.608   0.483  -2.200  0.00  0.00    -0.540 OA
ATOM     13  C   LIG    1       -3.090   0.393   1.184  0.00  0.00    +0.440 C 
ENDROOT
BRANCH   1  14
ATOM     14  C   LIG    1       -1.330   1.951   0.019  0.00  0.00    +0.240 C 
BRANCH  14  16
ATOM     15  O   LIG    1        0.002  -0.004   0.002  0.00  0.00    -0.680 OA
ATOM     16  C   LIG    1       -0.015   1.215   0.009  0.00  0.00    +0.480 C 
ATOM     17  O   LIG    1        1.033   1.839   0.002  0.00  0.00    -0.700 OA
ENDBRANCH  14  16
ENDBRANCH   1  14
TORSDOF 2
ENDMDL
MODEL       15
REMARK  Name = ZINC000004008784
REMARK                            x       y       z     vdW  Elec       q    Type
REMARK                         _______ _______ _______ _____ _____    ______ ____
ROOT
ATOM      1  N   LIG    1       -2.430   0.984   0.019  0.00  0.00    -0.600 N 
ATOM      2  C   LIG    1       -3.013   0.474  -1.073  0.00  0.00    +0.710 C 
ATOM      3  N   LIG    1       -3.999  -0.393  -0.809  0.00  0.00    -0.750 N 
ATOM      4  H   LIG    1       -4.530  -0.858  -1.474  0.00  0.00    +0.420 HD
ATOM      5  C   LIG    1       -4.150  -0.529   0.646  0.00  0.00    +0.460 C 
ATOM      6  N   LIG    1       -3.715  -1.869   1.065  0.00  0.00    -0.740 N 
ATOM      7  H   LIG    1       -4.182  -2.697   0.869  0.00  0.00    +0.430 HD
ATOM      8  C   LIG    1       -2.575  -1.769   1.758  0.00  0.00    +0.710 C 
ATOM      9  N   LIG    1       -2.129  -0.513   1.893  0.00  0.00    -0.710 N 
ATOM     10  H   LIG    1       -1.322  -0.252   2.363  0.00  0.00    +0.430 HD
ATOM     11  O   LIG    1       -1.995  -2.731   2.224  0.00  0.00    -0.590 OA
ATOM     12  O   LIG    1       -2.678   0.772  -2.204  0.00  0.00    -0.580 OA
ATOM     13  C   LIG    1       -3.063   0.416   1.218  0.00  0.00    +0.460 C 
ENDROOT
BRANCH   1  14
ATOM     14  C   LIG    1       -1.330   1.951   0.019  0.00  0.00    +0.230 C 
BRANCH  14  16
ATOM     15  O   LIG    1        0.002  -0.004   0.002  0.00  0.00    -0.670 OA
ATOM     16  C   LIG    1       -0.015   1.215   0.009  0.00  0.00    +0.480 C 
ATOM     17  O   LIG    1        1.033   1.839   0.002  0.00  0.00    -0.700 OA
ENDBRANCH  14  16
ENDBRANCH   1  14
TORSDOF 2
ENDMDL
MODEL       16
REMARK  Name = ZINC000077010557
REMARK                            x       y       z     vdW  Elec       q    Type
REMARK                         _______ _______ _______ _____ _____    ______ ____
ROOT
ATOM      1  C   LIG    1       -0.547  -2.646  -1.544  0.00  0.00    +0.500 C 
ATOM      2  N   LIG    1        0.481  -3.096  -2.291  0.00  0.00    -0.610 N 
ATOM      3  C   LIG    1        0.879  -2.403  -3.527  0.00  0.00    +0.220 C 
ATOM      4  C   LIG    1        2.390  -2.153  -3.475  0.00  0.00    +0.200 C 
ATOM      5  O   LIG    1        3.062  -3.383  -3.192  0.00  0.00    -0.390 OA
ATOM      6  C   LIG    1        2.733  -3.951  -1.922  0.00  0.00    +0.230 C 
ATOM      7  C   LIG    1        1.242  -4.290  -1.891  0.00  0.00    +0.110 C 
ATOM      8  O   LIG    1       -0.927  -3.286  -0.586  0.00  0.00    -0.450 OA
ENDROOT
BRANCH   7   9
ATOM      9  C   LIG    1        0.845  -4.705  -0.497  0.00  0.00    +0.520 C 
ATOM     10  O   LIG    1        0.412  -5.827  -0.296  0.00  0.00    -0.690 OA
ATOM     11  O   LIG    1        0.957  -3.919   0.428  0.00  0.00    -0.670 OA
ENDBRANCH   7   9
BRANCH   1  12
ATOM     12  C   LIG    1       -1.226  -1.348  -1.899  0.00  0.00    +0.190 C 
BRANCH  12  14
ATOM     13  C   LIG    1       -2.988   0.125  -1.215  0.00  0.00    +0.200 C 
ATOM     14  O   LIG    1       -2.277  -1.089  -0.966  0.00  0.00    -0.360 OA
ENDBRANCH  12  14
ENDBRANCH   1  12
TORSDOF 3
ENDMDL
MODEL       17
REMARK  Name = ZINC000077010553
REMARK                            x       y       z     vdW  Elec       q    Type
REMARK                         _______ _______ _______ _____ _____    ______ ____
ROOT
ATOM      1  C   LIG    1        2.317  -2.908  -0.170  0.00  0.00    +0.490 C 
ATOM      2  N   LIG    1        2.156  -3.215  -1.473  0.00  0.00    -0.600 N 
ATOM      3  C   LIG    1        2.895  -2.490  -2.519  0.00  0.00    +0.220 C 
ATOM      4  C   LIG    1        1.895  -2.025  -3.583  0.00  0.00    +0.200 C 
ATOM      5  O   LIG    1        1.115  -3.142  -4.016  0.00  0.00    -0.390 OA
ATOM      6  C   LIG    1        0.318  -3.734  -2.986  0.00  0.00    +0.230 C 
ATOM      7  C   LIG    1        1.242  -4.290  -1.891  0.00  0.00    +0.110 C 
ATOM      8  O   LIG    1        1.649  -3.469   0.672  0.00  0.00    -0.440 OA
ENDROOT
BRANCH   7   9
ATOM      9  C   LIG    1        0.418  -4.740  -0.712  0.00  0.00    +0.520 C 
ATOM     10  O   LIG    1       -0.368  -3.969  -0.187  0.00  0.00    -0.670 OA
ATOM     11  O   LIG    1        0.537  -5.875  -0.283  0.00  0.00    -0.700 OA
ENDBRANCH   7   9
BRANCH   1  12
ATOM     12  C   LIG    1        3.327  -1.867   0.239  0.00  0.00    +0.190 C 
BRANCH  12  14
ATOM     13  C   LIG    1        4.237  -0.753   2.156  0.00  0.00    +0.200 C 
ATOM     14  O   LIG    1        3.310  -1.721   1.661  0.00  0.00    -0.360 OA
ENDBRANCH  12  14
ENDBRANCH   1  12
TORSDOF 3
ENDMDL
MODEL       18
REMARK  Name = ZINC000004218575
REMARK                            x       y       z     vdW  Elec       q    Type
REMARK                         _______ _______ _______ _____ _____    ______ ____
ROOT
ATOM      1  C   LIG    1       -0.018   1.461   0.010  0.00  0.00    +0.370 C 
ATOM      2  N   LIG    1        0.002  -0.004   0.002  0.00  0.00    -0.450 N 
ATOM      3  N   LIG    1        0.006  -0.687  -1.220  0.00  0.00    -0.220 NA
ATOM      4  C   LIG    1        0.024  -1.996  -1.234  0.00  0.00    +0.020 A 
ATOM      5  C   LIG    1        0.040  -2.721   0.047  0.00  0.00    +0.540 A 
ATOM      6  N   LIG    1        0.036  -2.018   1.199  0.00  0.00    -0.560 N 
ATOM      7  C   LIG    1        0.052  -2.720   2.485  0.00  0.00    +0.340 C 
ATOM      8  O   LIG    1        0.058  -3.937   0.067  0.00  0.00    -0.470 OA
ATOM      9  C   LIG    1        0.022  -0.673   1.168  0.00  0.00    +0.680 A 
ATOM     10  O   LIG    1        0.019  -0.051   2.214  0.00  0.00    -0.550 OA
ENDROOT
BRANCH   4  11
ATOM     11  S   LIG    1        0.029  -2.875  -2.761  0.00  0.00    +0.120 S 
BRANCH  11  12
ATOM     12  C   LIG    1        0.005  -1.547  -3.996  0.00  0.00    -0.010 C 
BRANCH  12  13
ATOM     13  C   LIG    1        0.007  -2.147  -5.379  0.00  0.00    +0.510 C 
ATOM     14  O   LIG    1       -0.007  -1.421  -6.358  0.00  0.00    -0.680 OA
ATOM     15  O   LIG    1        0.023  -3.358  -5.517  0.00  0.00    -0.670 OA
ENDBRANCH  12  13
ENDBRANCH  11  12
ENDBRANCH   4  11
TORSDOF 3
ENDMDL
MODEL       19
REMARK  Name = ZINC000004228241
REMARK                            x       y       z     vdW  Elec       q    Type
REMARK                         _______ _______ _______ _____ _____    ______ ____
ROOT
ATOM      1  C   LIG    1       -1.306   2.341   3.675  0.00  0.00    +0.190 C 
ATOM      2  O   LIG    1       -2.645   1.808   3.572  0.00  0.00    -0.370 OA
ATOM      3  C   LIG    1       -3.273   2.110   4.837  0.00  0.00    +0.300 C 
ATOM      4  C   LIG    1       -2.179   1.843   5.895  0.00  0.00    +0.140 C 
ATOM      5  C   LIG    1       -0.853   2.001   5.113  0.00  0.00    +0.180 C 
ENDROOT
BRANCH   4   6
ATOM      6  O   LIG    1       -2.256   2.805   6.949  0.00  0.00    -0.550 OA
ATOM      7  H   LIG    1       -3.092   2.790   7.434  0.00  0.00    +0.380 HD
ENDBRANCH   4   6
BRANCH   3   8
ATOM      8  O   LIG    1       -4.395   1.252   5.053  0.00  0.00    -0.550 OA
ATOM      9  H   LIG    1       -5.093   1.343   4.389  0.00  0.00    +0.390 HD
ENDBRANCH   3   8
BRANCH   5  10
ATOM     10  O   LIG    1       -0.071   3.063   5.662  0.00  0.00    -0.540 OA
ATOM     11  H   LIG    1        0.188   2.925   6.583  0.00  0.00    +0.390 HD
ENDBRANCH   5  10
BRANCH   1  12
ATOM     12  C   LIG    1       -0.386   1.669   2.654  0.00  0.00    +0.290 C 
BRANCH  12  13
ATOM     13  O   LIG    1       -0.772   2.060   1.335  0.00  0.00    -0.750 OA
BRANCH  13  15
ATOM     14  O   LIG    1        0.002  -0.004   0.002  0.00  0.00    -1.110 OA
ATOM     15  P   LIG    1       -0.019   1.541   0.011  0.00  0.00    +2.210 P 
ATOM     16  O   LIG    1        1.431   2.075  -0.001  0.00  0.00    -1.110 OA
BRANCH  15  17
ATOM     17  O   LIG    1       -0.798   2.074  -1.294  0.00  0.00    -0.900 OA
ATOM     18  H   LIG    1       -0.398   1.799  -2.130  0.00  0.00    +0.410 HD
ENDBRANCH  15  17
ENDBRANCH  13  15
ENDBRANCH  12  13
ENDBRANCH   1  12
TORSDOF 7
ENDMDL
MODEL       20
REMARK  Name = ZINC000004324703
REMARK                            x       y       z     vdW  Elec       q    Type
REMARK                         _______ _______ _______ _____ _____    ______ ____
ROOT
ATOM      1  C   LIG    1       -3.794   1.676   0.029  0.00  0.00    +0.510 C 
ATOM      2  N   LIG    1       -4.952   0.987   0.031  0.00  0.00    -0.740 N 
ATOM      3  H   LIG    1       -4.939   0.017   0.026  0.00  0.00    +0.400 HD
ATOM      4  O   LIG    1       -3.811   2.889   0.036  0.00  0.00    -0.540 OA
ENDROOT
BRANCH   1   5
ATOM      5  C   LIG    1       -2.479   0.941   0.019  0.00  0.00    +0.070 C 
BRANCH   5   6
ATOM      6  C   LIG    1       -1.330   1.951   0.019  0.00  0.00    -0.050 C 
BRANCH   6   8
ATOM      7  O   LIG    1        0.002  -0.004   0.002  0.00  0.00    -0.700 OA
ATOM      8  C   LIG    1       -0.015   1.215   0.009  0.00  0.00    +0.490 C 
ATOM      9  O   LIG    1        1.033   1.839   0.002  0.00  0.00    -0.700 OA
ENDBRANCH   6   8
ENDBRANCH   5   6
ENDBRANCH   1   5
BRANCH   2  10
ATOM     10  C   LIG    1       -6.231   1.702   0.041  0.00  0.00    +0.230 C 
BRANCH  10  11
ATOM     11  C   LIG    1       -7.380   0.692   0.041  0.00  0.00    +0.320 C 
BRANCH  11  12
ATOM     12  N   LIG    1       -8.659   1.407   0.051  0.00  0.00    -0.630 N 
ATOM     13  C   LIG    1       -9.393   1.822   1.255  0.00  0.00    +0.250 C 
ATOM     14  C   LIG    1      -10.649   2.522   0.699  0.00  0.00    +0.250 C 
ATOM     15  N   LIG    1      -10.487   2.428  -0.760  0.00  0.00    -0.740 N 
ATOM     16  H   LIG    1      -11.110   2.774  -1.418  0.00  0.00    +0.430 HD
ATOM     17  C   LIG    1       -9.341   1.792  -1.036  0.00  0.00    +0.700 C 
ATOM     18  O   LIG    1       -8.958   1.577  -2.170  0.00  0.00    -0.580 OA
ENDBRANCH  11  12
ENDBRANCH  10  11
ENDBRANCH   2  10
TORSDOF 6
ENDMDL
MODEL       21
REMARK  Name = ZINC000004324704
REMARK                            x       y       z     vdW  Elec       q    Type
REMARK                         _______ _______ _______ _____ _____    ______ ____
ROOT
ATOM      1  C   LIG    1       -4.751   0.523   0.027  0.00  0.00    +0.510 C 
ATOM      2  N   LIG    1       -6.058   0.853   0.035  0.00  0.00    -0.740 N 
ATOM      3  H   LIG    1       -6.323   1.786   0.042  0.00  0.00    +0.400 HD
ATOM      4  O   LIG    1       -4.420  -0.643   0.019  0.00  0.00    -0.500 OA
ENDROOT
BRANCH   1   5
ATOM      5  C   LIG    1       -3.701   1.604   0.028  0.00  0.00    +0.180 C 
BRANCH   5   6
ATOM      6  O   LIG    1       -2.403   1.007   0.019  0.00  0.00    -0.330 OA
BRANCH   6   7
ATOM      7  C   LIG    1       -1.330   1.951   0.019  0.00  0.00    +0.100 C 
BRANCH   7   9
ATOM      8  O   LIG    1        0.002  -0.004   0.002  0.00  0.00    -0.670 OA
ATOM      9  C   LIG    1       -0.015   1.215   0.009  0.00  0.00    +0.500 C 
ATOM     10  O   LIG    1        1.033   1.839   0.002  0.00  0.00    -0.700 OA
ENDBRANCH   7   9
ENDBRANCH   6   7
ENDBRANCH   5   6
ENDBRANCH   1   5
BRANCH   2  11
ATOM     11  C   LIG    1       -7.079  -0.198   0.035  0.00  0.00    +0.240 C 
BRANCH  11  12
ATOM     12  C   LIG    1       -8.469   0.441   0.045  0.00  0.00    +0.320 C 
BRANCH  12  13
ATOM     13  N   LIG    1       -9.490  -0.610   0.044  0.00  0.00    -0.630 N 
ATOM     14  C   LIG    1      -10.085  -1.218  -1.155  0.00  0.00    +0.260 C 
ATOM     15  C   LIG    1      -11.083  -2.248  -0.590  0.00  0.00    +0.250 C 
ATOM     16  N   LIG    1      -10.944  -2.110   0.867  0.00  0.00    -0.740 N 
ATOM     17  H   LIG    1      -11.437  -2.619   1.530  0.00  0.00    +0.430 HD
ATOM     18  C   LIG    1      -10.025  -1.173   1.135  0.00  0.00    +0.700 C 
ATOM     19  O   LIG    1       -9.711  -0.855   2.266  0.00  0.00    -0.580 OA
ENDBRANCH  12  13
ENDBRANCH  11  12
ENDBRANCH   2  11
TORSDOF 7
ENDMDL
MODEL       22
REMARK  Name = ZINC000101190944
REMARK                            x       y       z     vdW  Elec       q    Type
REMARK                         _______ _______ _______ _____ _____    ______ ____
ROOT
ATOM      1  C   LIG    1       -1.330   1.951   0.019  0.00  0.00    +0.220 C 
ATOM      2  C   LIG    1       -1.366   2.915   1.208  0.00  0.00    +0.030 C 
ATOM      3  C   LIG    1       -2.728   3.614   1.246  0.00  0.00    +0.140 C 
ATOM      4  C   LIG    1       -3.832   2.555   1.323  0.00  0.00    +0.170 C 
ATOM      5  C   LIG    1       -3.700   1.605   0.130  0.00  0.00    +0.140 C 
ATOM      6  O   LIG    1       -2.400   1.011   0.136  0.00  0.00    -0.350 OA
ENDROOT
BRANCH   1   8
ATOM      7  O   LIG    1        0.002  -0.004   0.002  0.00  0.00    -0.660 OA
ATOM      8  C   LIG    1       -0.015   1.215   0.009  0.00  0.00    +0.500 C 
ATOM      9  O   LIG    1        1.033   1.839   0.002  0.00  0.00    -0.670 OA
ENDBRANCH   1   8
BRANCH   4  10
ATOM     10  O   LIG    1       -3.701   1.817   2.540  0.00  0.00    -0.540 OA
ATOM     11  H   LIG    1       -3.771   2.359   3.338  0.00  0.00    +0.380 HD
ENDBRANCH   4  10
BRANCH   3  12
ATOM     12  O   LIG    1       -2.797   4.463   2.393  0.00  0.00    -0.570 OA
ATOM     13  H   LIG    1       -2.122   5.155   2.412  0.00  0.00    +0.380 HD
ENDBRANCH   3  12
BRANCH   1  14
ATOM     14  O   LIG    1       -1.473   2.687  -1.197  0.00  0.00    -0.570 OA
ATOM     15  H   LIG    1       -1.459   2.139  -1.993  0.00  0.00    +0.380 HD
ENDBRANCH   1  14
BRANCH   5  16
ATOM     16  C   LIG    1       -4.762   0.508   0.232  0.00  0.00    +0.240 C 
BRANCH  16  17
ATOM     17  O   LIG    1       -6.062   1.102   0.226  0.00  0.00    -0.550 OA
ATOM     18  H   LIG    1       -6.257   1.615  -0.570  0.00  0.00    +0.370 HD
ENDBRANCH  16  17
BRANCH  16  19
ATOM     19  C   LIG    1       -4.631  -0.442  -0.961  0.00  0.00    +0.160 C 
BRANCH  19  20
ATOM     20  O   LIG    1       -5.544  -1.530  -0.806  0.00  0.00    -0.570 OA
ATOM     21  H   LIG    1       -5.515  -2.173  -1.528  0.00  0.00    +0.380 HD
ENDBRANCH  19  20
ENDBRANCH  16  19
ENDBRANCH   5  16
TORSDOF 8
ENDMDL
MODEL       23
REMARK  Name = ZINC000017283847
REMARK                            x       y       z     vdW  Elec       q    Type
REMARK                         _______ _______ _______ _____ _____    ______ ____
ROOT
ATOM      1  C   LIG    1       -0.018   1.461   0.010  0.00  0.00    +0.340 C 
ATOM      2  N   LIG    1        0.002  -0.004   0.002  0.00  0.00    -0.560 N 
ATOM      3  C   LIG    1        0.005  -0.663  -1.178  0.00  0.00    +0.600 A 
ATOM      4  C   LIG    1        0.025  -2.134  -1.149  0.00  0.00    -0.240 A 
ATOM      5  C   LIG    1        0.040  -2.772   0.102  0.00  0.00    +0.430 A 
ATOM      6  N   LIG    1        0.035  -2.014   1.235  0.00  0.00    -0.520 N 
ATOM      7  C   LIG    1        0.051  -2.671   2.544  0.00  0.00    +0.350 C 
ATOM      8  N   LIG    1        0.059  -4.129   0.140  0.00  0.00    -0.610 NA
ATOM      9  C   LIG    1        0.062  -4.805  -1.030  0.00  0.00    +0.570 A 
ATOM     10  N   LIG    1        0.048  -4.149  -2.202  0.00  0.00    -0.380 NA
ATOM     11  O   LIG    1        0.079  -6.022  -1.022  0.00  0.00    -0.560 OA
ATOM     12  N   LIG    1        0.030  -2.862  -2.263  0.00  0.00    -0.050 NA
ATOM     13  O   LIG    1       -0.007  -0.058  -2.233  0.00  0.00    -0.490 OA
ATOM     14  C   LIG    1        0.022  -0.671   1.167  0.00  0.00    +0.710 A 
ATOM     15  O   LIG    1        0.018  -0.035   2.203  0.00  0.00    -0.550 OA
ENDROOT
TORSDOF 0
ENDMDL
MODEL       24
REMARK  Name = ZINC000004704321
REMARK                            x       y       z     vdW  Elec       q    Type
REMARK                         _______ _______ _______ _____ _____    ______ ____
ROOT
ATOM      1  C   LIG    1       -0.018   1.465   0.010  0.00  0.00    +0.200 C 
ATOM      2  N   LIG    1        0.002  -0.004   0.002  0.00  0.00    -0.540 NA
ATOM      3  C   LIG    1       -1.359  -0.548  -0.091  0.00  0.00    +0.170 C 
ATOM      4  C   LIG    1       -1.286  -2.068  -0.279  0.00  0.00    +0.290 C 
ATOM      5  N   LIG    1       -0.463  -2.633   0.801  0.00  0.00    -0.620 N 
ATOM      6  C   LIG    1        0.864  -2.046   1.044  0.00  0.00    +0.280 C 
ATOM      7  C   LIG    1       -0.911  -3.662   1.546  0.00  0.00    +0.520 C 
ATOM      8  O   LIG    1       -2.007  -4.135   1.331  0.00  0.00    -0.510 OA
ATOM      9  C   LIG    1        0.706  -0.527   1.180  0.00  0.00    +0.170 C 
ENDROOT
BRANCH   7  10
ATOM     10  C   LIG    1       -0.051  -4.226   2.647  0.00  0.00    +0.180 C 
BRANCH  10  11
ATOM     11  O   LIG    1       -0.740  -5.301   3.288  0.00  0.00    -0.330 OA
BRANCH  11  12
ATOM     12  C   LIG    1       -0.007  -5.909   4.353  0.00  0.00    +0.100 C 
BRANCH  12  13
ATOM     13  C   LIG    1       -0.825  -7.024   4.953  0.00  0.00    +0.500 C 
ATOM     14  O   LIG    1       -0.379  -7.676   5.882  0.00  0.00    -0.700 OA
ATOM     15  O   LIG    1       -1.933  -7.275   4.510  0.00  0.00    -0.670 OA
ENDBRANCH  12  13
ENDBRANCH  11  12
ENDBRANCH  10  11
ENDBRANCH   7  10
TORSDOF 4
ENDMDL
MODEL       25
REMARK  Name = ZINC000584879885
REMARK                            x       y       z     vdW  Elec       q    Type
REMARK                         _______ _______ _______ _____ _____    ______ ____
ROOT
ATOM      1  C   LIG    1        0.041  -3.298  -1.561  0.00  0.00    +0.330 C 
ATOM      2  C   LIG    1       -1.373  -3.916  -1.642  0.00  0.00    -0.060 C 
ATOM      3  C   LIG    1       -1.318  -4.976  -0.517  0.00  0.00    +0.160 C 
ATOM      4  C   LIG    1        0.155  -5.294  -0.379  0.00  0.00    +0.500 C 
ATOM      5  O   LIG    1        0.605  -6.266   0.189  0.00  0.00    -0.550 OA
ATOM      6  N   LIG    1        0.893  -4.341  -0.978  0.00  0.00    -0.600 N 
ATOM      7  C   LIG    1        2.357  -4.344  -1.037  0.00  0.00    +0.300 C 
ENDROOT
BRANCH   1  11
ATOM      8  C   LIG    1       -0.018   1.461   0.010  0.00  0.00    +0.350 C 
ATOM      9  N   LIG    1        0.002  -0.004   0.002  0.00  0.00    -0.380 N 
ATOM     10  C   LIG    1        0.008  -0.792  -1.094  0.00  0.00    +0.250 A 
ATOM     11  C   LIG    1        0.027  -2.079  -0.676  0.00  0.00    -0.240 A 
ATOM     12  C   LIG    1        0.034  -2.078   0.723  0.00  0.00    +0.230 A 
ATOM     13  N   LIG    1        0.025  -0.834   1.130  0.00  0.00    -0.300 NA
ENDBRANCH   1  11
BRANCH   2  14
ATOM     14  C   LIG    1       -1.604  -4.563  -2.983  0.00  0.00    +0.500 C 
ATOM     15  O   LIG    1       -1.043  -4.127  -3.974  0.00  0.00    -0.700 OA
ATOM     16  O   LIG    1       -2.351  -5.522  -3.077  0.00  0.00    -0.650 OA
ENDBRANCH   2  14
BRANCH   3  17
ATOM     17  O   LIG    1       -2.050  -6.144  -0.895  0.00  0.00    -0.490 OA
ATOM     18  H   LIG    1       -2.049  -6.842  -0.226  0.00  0.00    +0.350 HD
ENDBRANCH   3  17
TORSDOF 3
ENDMDL
MODEL       26
REMARK  Name = ZINC000004899454
REMARK                            x       y       z     vdW  Elec       q    Type
REMARK                         _______ _______ _______ _____ _____    ______ ____
ROOT
ATOM      1  N   LIG    1        0.688  -0.476  -1.203  0.00  0.00    -0.690 N 
ATOM      2  H   LIG    1        0.175  -0.710  -1.993  0.00  0.00    +0.410 HD
ATOM      3  C   LIG    1        2.031  -0.587  -1.215  0.00  0.00    +0.490 C 
ATOM      4  O   LIG    1        2.672  -0.295  -0.228  0.00  0.00    -0.550 OA
ENDROOT
BRANCH   3   5
ATOM      5  CA  LIG    1        2.736  -1.073  -2.455  0.00  0.00    +0.220 C 
ATOM      6  C   LIG    1        2.685  -2.615  -2.529  0.00  0.00    +0.080 C 
ATOM      7  C   LIG    1        4.021  -3.008  -1.856  0.00  0.00    +0.050 C 
ATOM      8  C   LIG    1        4.906  -1.798  -2.055  0.00  0.00    +0.530 C 
ATOM      9  O   LIG    1        6.112  -1.791  -1.928  0.00  0.00    -0.540 OA
ATOM     10  N   LIG    1        4.162  -0.729  -2.396  0.00  0.00    -0.710 N 
ATOM     11  H   LIG    1        4.522   0.153  -2.578  0.00  0.00    +0.410 HD
ENDBRANCH   3   5
BRANCH   1  13
ATOM     12  CB  LIG    1       -0.019   1.526   0.010  0.00  0.00    +0.030 C 
ATOM     13  CA  LIG    1        0.002  -0.004   0.002  0.00  0.00    +0.150 C 
BRANCH  13  14
ATOM     14  C   LIG    1       -1.412  -0.526   0.013  0.00  0.00    +0.500 C 
ATOM     15  OXT LIG    1       -2.099  -0.403   1.012  0.00  0.00    -0.690 OA
ATOM     16  O   LIG    1       -1.868  -1.070  -0.978  0.00  0.00    -0.690 OA
ENDBRANCH  13  14
ENDBRANCH   1  13
TORSDOF 3
ENDMDL
MODEL       27
REMARK  Name = ZINC000002086385
REMARK                            x       y       z     vdW  Elec       q    Type
REMARK                         _______ _______ _______ _____ _____    ______ ____
ROOT
ATOM      1  N   LIG    1       -0.569  -3.965   1.006  0.00  0.00    -0.590 N 
ATOM      2  H   LIG    1       -0.150  -4.440   0.272  0.00  0.00    +0.380 HD
ATOM      3  C   LIG    1       -1.134  -4.652   2.019  0.00  0.00    +0.570 C 
ATOM      4  O   LIG    1       -1.660  -4.057   2.938  0.00  0.00    -0.530 OA
ENDROOT
BRANCH   1   9
ATOM      5  C   LIG    1       -0.018   1.465   0.010  0.00  0.00    +0.200 C 
ATOM      6  N   LIG    1        0.002  -0.004   0.002  0.00  0.00    -0.550 NA
ATOM      7  C   LIG    1       -1.360  -0.549  -0.079  0.00  0.00    +0.190 C 
ATOM      8  C   LIG    1       -1.292  -2.075  -0.165  0.00  0.00    +0.180 C 
ATOM      9  N   LIG    1       -0.588  -2.599   1.014  0.00  0.00    -0.300 NA
ATOM     10  C   LIG    1        0.774  -2.054   1.095  0.00  0.00    +0.180 C 
ATOM     11  C   LIG    1        0.706  -0.528   1.181  0.00  0.00    +0.190 C 
ENDBRANCH   1   9
BRANCH   3  12
ATOM     12  C   LIG    1       -1.114  -6.131   2.011  0.00  0.00    -0.080 C 
ATOM     13  C   LIG    1       -1.677  -6.815   3.019  0.00  0.00    +0.020 C 
BRANCH  13  14
ATOM     14  C   LIG    1       -1.657  -8.290   3.011  0.00  0.00    +0.500 C 
ATOM     15  O   LIG    1       -2.169  -8.913   3.930  0.00  0.00    -0.680 OA
ATOM     16  O   LIG    1       -1.128  -8.889   2.086  0.00  0.00    -0.680 OA
ENDBRANCH  13  14
ENDBRANCH   3  12
TORSDOF 3
ENDMDL
MODEL       28
REMARK  Name = ZINC000020244718
REMARK                            x       y       z     vdW  Elec       q    Type
REMARK                         _______ _______ _______ _____ _____    ______ ____
ROOT
ATOM      1  C   LIG    1       -0.018   1.465   0.010  0.00  0.00    +0.190 C 
ATOM      2  N   LIG    1        0.002  -0.004   0.002  0.00  0.00    -0.540 NA
ATOM      3  C   LIG    1       -1.359  -0.548  -0.091  0.00  0.00    +0.160 C 
ATOM      4  C   LIG    1       -1.286  -2.068  -0.279  0.00  0.00    +0.290 C 
ATOM      5  N   LIG    1       -0.463  -2.633   0.801  0.00  0.00    -1.020 NA
ATOM      6  C   LIG    1        0.864  -2.046   1.044  0.00  0.00    +0.290 C 
ATOM      7  C   LIG    1        0.706  -0.527   1.180  0.00  0.00    +0.160 C 
ENDROOT
BRANCH   5   8
ATOM      8  S   LIG    1       -1.014  -3.897   1.717  0.00  0.00    +2.640 S 
ATOM      9  O   LIG    1       -2.429  -3.785   1.654  0.00  0.00    -0.960 OA
ATOM     10  O   LIG    1       -0.322  -3.764   2.951  0.00  0.00    -0.960 OA
BRANCH   8  11
ATOM     11  C   LIG    1       -0.453  -5.377   0.830  0.00  0.00    -0.420 C 
BRANCH  11  12
ATOM     12  C   LIG    1       -0.899  -6.609   1.576  0.00  0.00    +0.520 C 
ATOM     13  O   LIG    1       -0.622  -7.715   1.145  0.00  0.00    -0.670 OA
ATOM     14  O   LIG    1       -1.536  -6.498   2.609  0.00  0.00    -0.680 OA
ENDBRANCH  11  12
ENDBRANCH   8  11
ENDBRANCH   5   8
TORSDOF 3
ENDMDL
MODEL       29
REMARK  Name = ZINC000001768908
REMARK                            x       y       z     vdW  Elec       q    Type
REMARK                         _______ _______ _______ _____ _____    ______ ____
ROOT
ATOM      1  C   UNK    1       -0.699   1.479   1.216  0.00  0.00    +0.110 C 
ENDROOT
BRANCH   1   2
ATOM      2  N   UNK    1       -0.012   1.005   0.008  0.00  0.00    -0.620 N 
ATOM      3  H   UNK    1       -0.500   1.339  -0.810  0.00  0.00    +0.440 HD
ATOM      4  H   UNK    1        0.935   1.354   0.000  0.00  0.00    +0.430 HD
ATOM      5  H   UNK    1        0.002  -0.004   0.002  0.00  0.00    +0.420 HD
ENDBRANCH   1   2
BRANCH   1   6
ATOM      6  C   UNK    1       -0.720   2.985   1.224  0.00  0.00    +0.500 C 
ATOM      7  O   UNK    1       -1.247   3.583   2.147  0.00  0.00    -0.630 OA
ATOM      8  O   UNK    1       -0.209   3.607   0.308  0.00  0.00    -0.670 OA
ENDBRANCH   1   6
BRANCH   1   9
ATOM      9  C   UNK    1        0.041   0.972   2.456  0.00  0.00    -0.340 C 
BRANCH   9  10
ATOM     10  S   UNK    1        0.065  -0.842   2.446  0.00  0.00    +2.420 S 
ATOM     11  O   UNK    1        0.843  -1.278   1.339  0.00  0.00    -0.950 OA
ATOM     12  O   UNK    1       -1.268  -1.314   2.585  0.00  0.00    -0.920 OA
BRANCH  10  13
ATOM     13  C   UNK    1        0.973  -1.213   3.972  0.00  0.00    -0.390 C 
BRANCH  13  14
ATOM     14  C   UNK    1        1.093  -2.706   4.135  0.00  0.00    +0.520 C 
ATOM     15  O   UNK    1        1.672  -3.169   5.103  0.00  0.00    -0.660 OA
ATOM     16  O   UNK    1        0.612  -3.451   3.298  0.00  0.00    -0.670 OA
ENDBRANCH  13  14
ENDBRANCH  10  13
ENDBRANCH   9  10
ENDBRANCH   1   9
TORSDOF 6
ENDMDL
MODEL       30
REMARK  Name = ZINC000005273553
REMARK                            x       y       z     vdW  Elec       q    Type
REMARK                         _______ _______ _______ _____ _____    ______ ____
ROOT
ATOM      1  N   LIG    1       -1.372  -0.511   0.012  0.00  0.00    -0.690 N 
ATOM      2  H   LIG    1       -1.810  -0.743  -0.822  0.00  0.00    +0.410 HD
ATOM      3  C   LIG    1       -2.029  -0.655   1.181  0.00  0.00    +0.490 C 
ATOM      4  O   LIG    1       -1.481  -0.365   2.224  0.00  0.00    -0.540 OA
ENDROOT
BRANCH   3   5
ATOM      5  CA  LIG    1       -3.442  -1.177   1.191  0.00  0.00    +0.220 C 
ATOM      6  C   LIG    1       -4.434  -0.039   0.862  0.00  0.00    +0.080 C 
ATOM      7  C   LIG    1       -4.820   0.462   2.273  0.00  0.00    +0.050 C 
ATOM      8  C   LIG    1       -4.573  -0.731   3.170  0.00  0.00    +0.530 C 
ATOM      9  O   LIG    1       -5.007  -0.855   4.296  0.00  0.00    -0.540 OA
ATOM     10  N   LIG    1       -3.804  -1.637   2.538  0.00  0.00    -0.710 N 
ATOM     11  H   LIG    1       -3.525  -2.482   2.922  0.00  0.00    +0.410 HD
ENDBRANCH   3   5
BRANCH   1  13
ATOM     12  CB  LIG    1       -0.019   1.526   0.010  0.00  0.00    +0.020 C 
ATOM     13  CA  LIG    1        0.002  -0.004   0.002  0.00  0.00    +0.150 C 
BRANCH  13  14
ATOM     14  C   LIG    1        0.707  -0.490  -1.238  0.00  0.00    +0.500 C 
ATOM     15  OXT LIG    1        0.073  -0.696  -2.259  0.00  0.00    -0.690 OA
ATOM     16  O   LIG    1        1.912  -0.677  -1.220  0.00  0.00    -0.690 OA
ENDBRANCH  13  14
ENDBRANCH   1  13
TORSDOF 3
ENDMDL
MODEL       31
REMARK  Name = ZINC000005273554
REMARK                            x       y       z     vdW  Elec       q    Type
REMARK                         _______ _______ _______ _____ _____    ______ ____
ROOT
ATOM      1  N   LIG    1        0.688  -0.476  -1.203  0.00  0.00    -0.690 N 
ATOM      2  H   LIG    1        0.175  -0.710  -1.993  0.00  0.00    +0.410 HD
ATOM      3  C   LIG    1        2.031  -0.587  -1.215  0.00  0.00    +0.500 C 
ATOM      4  O   LIG    1        2.672  -0.295  -0.228  0.00  0.00    -0.550 OA
ENDROOT
BRANCH   3   5
ATOM      5  CA  LIG    1        2.736  -1.073  -2.455  0.00  0.00    +0.220 C 
ATOM      6  C   LIG    1        2.899   0.084  -3.466  0.00  0.00    +0.070 C 
ATOM      7  C   LIG    1        4.275  -0.237  -4.093  0.00  0.00    +0.060 C 
ATOM      8  C   LIG    1        4.985  -1.051  -3.034  0.00  0.00    +0.520 C 
ATOM      9  O   LIG    1        6.179  -1.265  -3.007  0.00  0.00    -0.540 OA
ATOM     10  N   LIG    1        4.101  -1.504  -2.127  0.00  0.00    -0.710 N 
ATOM     11  H   LIG    1        4.335  -2.043  -1.356  0.00  0.00    +0.420 HD
ENDBRANCH   3   5
BRANCH   1  13
ATOM     12  CB  LIG    1       -0.019   1.526   0.010  0.00  0.00    +0.030 C 
ATOM     13  CA  LIG    1        0.002  -0.004   0.002  0.00  0.00    +0.150 C 
BRANCH  13  14
ATOM     14  C   LIG    1       -1.412  -0.526   0.013  0.00  0.00    +0.500 C 
ATOM     15  OXT LIG    1       -2.099  -0.403   1.012  0.00  0.00    -0.690 OA
ATOM     16  O   LIG    1       -1.868  -1.070  -0.978  0.00  0.00    -0.690 OA
ENDBRANCH  13  14
ENDBRANCH   1  13
TORSDOF 3
ENDMDL
MODEL       32
REMARK  Name = ZINC000002095024
REMARK                            x       y       z     vdW  Elec       q    Type
REMARK                         _______ _______ _______ _____ _____    ______ ____
ROOT
ATOM      1  C   LIG    1       -0.018   1.461   0.010  0.00  0.00    +0.340 C 
ATOM      2  N   LIG    1        0.002  -0.004   0.002  0.00  0.00    -0.570 N 
ATOM      3  C   LIG    1        0.005  -0.650  -1.184  0.00  0.00    +0.600 A 
ATOM      4  C   LIG    1        0.025  -2.123  -1.167  0.00  0.00    -0.270 A 
ATOM      5  N   LIG    1        0.029  -2.842  -2.261  0.00  0.00    -0.060 NA
ATOM      6  N   LIG    1        0.047  -4.130  -2.190  0.00  0.00    -0.410 NA
ATOM      7  C   LIG    1        0.061  -4.792  -0.972  0.00  0.00    +0.370 A 
ATOM      8  N   LIG    1        0.058  -4.098   0.199  0.00  0.00    -0.540 NA
ATOM      9  N   LIG    1        0.079  -6.100  -0.948  0.00  0.00    -0.310 NA
ATOM     10  C   LIG    1        0.041  -2.787   0.150  0.00  0.00    +0.430 A 
ATOM     11  N   LIG    1        0.035  -1.997   1.279  0.00  0.00    -0.530 N 
ATOM     12  C   LIG    1        0.051  -2.621   2.604  0.00  0.00    +0.330 C 
ATOM     13  O   LIG    1       -0.008  -0.035  -2.233  0.00  0.00    -0.510 OA
ATOM     14  C   LIG    1        0.022  -0.657   1.171  0.00  0.00    +0.720 A 
ATOM     15  O   LIG    1        0.018  -0.001   2.194  0.00  0.00    -0.560 OA
ENDROOT
BRANCH   9  16
ATOM     16  N   LIG    1        0.083  -6.822  -2.148  0.00  0.00    -0.790 N 
ATOM     17  H   LIG    1        0.073  -6.353  -2.997  0.00  0.00    +0.380 HD
ATOM     18  H   LIG    1        0.097  -7.792  -2.131  0.00  0.00    +0.400 HD
ENDBRANCH   9  16
TORSDOF 1
ENDMDL
MODEL       33
REMARK  Name = ZINC000005829542
REMARK                            x       y       z     vdW  Elec       q    Type
REMARK                         _______ _______ _______ _____ _____    ______ ____
ROOT
ATOM      1  C   LIG    1       -1.136  -2.159   0.001  0.00  0.00    +0.210 C 
ATOM      2  C   LIG    1       -2.351  -2.652   0.766  0.00  0.00    +0.520 C 
ATOM      3  N   LIG    1       -3.212  -3.453   0.101  0.00  0.00    -0.650 N 
ATOM      4  H   LIG    1       -3.999  -3.787   0.559  0.00  0.00    +0.420 HD
ATOM      5  C   LIG    1       -3.002  -3.796  -1.176  0.00  0.00    +0.550 C 
ATOM      6  N   LIG    1       -1.956  -3.400  -1.909  0.00  0.00    -0.600 NA
ATOM      7  S   LIG    1       -4.155  -4.815  -1.925  0.00  0.00    -0.660 S 
ATOM      8  O   LIG    1       -2.540  -2.340   1.922  0.00  0.00    -0.490 OA
ATOM      9  C   LIG    1       -1.018  -2.621  -1.438  0.00  0.00    +0.460 C 
ATOM     10  O   LIG    1        0.019  -2.243  -2.205  0.00  0.00    -0.560 OA
ENDROOT
BRANCH   1  13
ATOM     11  C   LIG    1       -0.018   1.503   0.010  0.00  0.00    +0.100 C 
ATOM     12  C   LIG    1        0.002  -0.004   0.002  0.00  0.00    +0.520 C 
ATOM     13  N   LIG    1       -1.156  -0.694   0.009  0.00  0.00    -0.710 N 
ATOM     14  H   LIG    1       -2.002  -0.220   0.020  0.00  0.00    +0.400 HD
ATOM     15  O   LIG    1        1.060  -0.596  -0.011  0.00  0.00    -0.520 OA
ENDBRANCH   1  13
TORSDOF 1
ENDMDL
MODEL       34
REMARK  Name = ZINC000004110719
REMARK                            x       y       z     vdW  Elec       q    Type
REMARK                         _______ _______ _______ _____ _____    ______ ____
ROOT
ATOM      1  C   LIG    1       -0.848   2.016   1.520  0.00  0.00    -0.500 C 
ATOM      2  C   LIG    1       -0.063   1.504   2.745  0.00  0.00    -0.240 C 
ATOM      3  S   LIG    1       -1.389   1.186   3.978  0.00  0.00    +2.390 S 
ATOM      4  C   LIG    1       -2.609   0.624   2.723  0.00  0.00    -0.320 C 
ATOM      5  O   LIG    1       -1.817   2.413   4.551  0.00  0.00    -0.930 OA
ATOM      6  O   LIG    1       -1.020   0.096   4.812  0.00  0.00    -0.940 OA
ATOM      7  C   LIG    1       -2.288   1.516   1.509  0.00  0.00    +0.240 C 
ENDROOT
BRANCH   1   9
ATOM      8  O   LIG    1        0.002  -0.004   0.002  0.00  0.00    -1.050 OA
ATOM      9  S   LIG    1       -0.018   1.450   0.010  0.00  0.00    +2.640 S 
ATOM     10  O   LIG    1       -0.752   1.947  -1.143  0.00  0.00    -1.050 OA
ATOM     11  O   LIG    1        1.341   1.970  -0.000  0.00  0.00    -1.050 OA
ENDBRANCH   1   9
BRANCH   7  12
ATOM     12  O   LIG    1       -3.164   2.644   1.518  0.00  0.00    -0.550 OA
ATOM     13  H   LIG    1       -4.101   2.416   1.447  0.00  0.00    +0.380 HD
ENDBRANCH   7  12
TORSDOF 2
ENDMDL
MODEL       35
REMARK  Name = ZINC000002385478
REMARK                            x       y       z     vdW  Elec       q    Type
REMARK                         _______ _______ _______ _____ _____    ______ ____
ROOT
ATOM      1  O   LIG    1        0.005  -0.008  -0.001  0.00  0.00    -0.560 OA
ATOM      2  C   LIG    1       -0.012   1.205   0.009  0.00  0.00    +0.620 C 
ATOM      3  N   LIG    1        1.146   1.894   0.002  0.00  0.00    -0.620 N 
ATOM      4  C   LIG    1        2.436   1.190  -0.025  0.00  0.00    +0.260 C 
ATOM      5  C   LIG    1        3.246   1.698  -1.225  0.00  0.00    +0.270 C 
ATOM      6  N   LIG    1        3.241   3.168  -1.206  0.00  0.00    -0.620 N 
ATOM      7  C   LIG    1        1.952   3.872  -1.179  0.00  0.00    +0.270 C 
ATOM      8  C   LIG    1        4.399   3.857  -1.215  0.00  0.00    +0.550 C 
ATOM      9  O   LIG    1        5.459   3.267  -1.142  0.00  0.00    -0.550 OA
ATOM     10  C   LIG    1        1.141   3.364   0.015  0.00  0.00    +0.280 C 
ENDROOT
BRANCH   8  11
ATOM     11  C   LIG    1        4.380   5.333  -1.313  0.00  0.00    -0.080 C 
ATOM     12  C   LIG    1        5.533   6.013  -1.422  0.00  0.00    +0.020 C 
BRANCH  12  13
ATOM     13  C   LIG    1        5.514   7.484  -1.520  0.00  0.00    +0.500 C 
ATOM     14  O   LIG    1        6.563   8.104  -1.619  0.00  0.00    -0.680 OA
ATOM     15  O   LIG    1        4.449   8.085  -1.501  0.00  0.00    -0.680 OA
ENDBRANCH  12  13
ENDBRANCH   8  11
TORSDOF 2
ENDMDL
MODEL       36
REMARK  Name = ZINC000001266331
REMARK                            x       y       z     vdW  Elec       q    Type
REMARK                         _______ _______ _______ _____ _____    ______ ____
ROOT
ATOM      1  C   LIG    1        3.150  -0.623  -2.692  0.00  0.00    +0.262 A 
ATOM      2  C   LIG    1        3.533   0.246  -3.704  0.00  0.00    +0.298 A 
ATOM      3  N   LIG    1        4.063  -0.278  -4.845  0.00  0.00    -0.269 N 
ATOM      4  H   LIG    1        4.341   0.301  -5.572  0.00  0.00    +0.174 HD
ATOM      5  C   LIG    1        4.193  -1.618  -4.945  0.00  0.00    +0.367 A 
ATOM      6  N   LIG    1        3.807  -2.409  -3.937  0.00  0.00    -0.088 NA
ATOM      7  O   LIG    1        4.664  -2.109  -5.956  0.00  0.00    -0.243 OA
ATOM      8  O   LIG    1        3.385   1.579  -3.560  0.00  0.00    -0.264 OA
ATOM      9  N   LIG    1        3.310  -1.926  -2.854  0.00  0.00    -0.120 NA
ENDROOT
BRANCH   1  10
ATOM     10  S   LIG    1        2.460   0.006  -1.198  0.00  0.00    +0.021 S 
ATOM     11  O   LIG    1        3.148  -0.697  -0.172  0.00  0.00    -0.168 OA
ATOM     12  O   LIG    1        2.576   1.416  -1.325  0.00  0.00    -0.168 OA
BRANCH  10  13
ATOM     13  C   LIG    1        0.718  -0.497  -1.257  0.00  0.00    +0.177 C 
BRANCH  13  15
ATOM     14  C   LIG    1       -0.019   1.526   0.010  0.00  0.00    +0.009 C 
ATOM     15  C   LIG    1        0.002  -0.004   0.002  0.00  0.00    +0.004 C 
ATOM     16  C   LIG    1       -1.433  -0.534   0.013  0.00  0.00    +0.009 C 
ENDBRANCH  13  15
ENDBRANCH  10  13
ENDBRANCH   1  10
TORSDOF 3
ENDMDL
MODEL       37
REMARK  Name = ZINC000002473650
REMARK                            x       y       z     vdW  Elec       q    Type
REMARK                         _______ _______ _______ _____ _____    ______ ____
ROOT
ATOM      1  N   LIG    1       -2.943  -3.552  -1.329  0.00  0.00    -0.700 N 
ATOM      2  H   LIG    1       -2.109  -3.891  -1.690  0.00  0.00    +0.420 HD
ENDROOT
BRANCH   1   3
ATOM      3  C   LIG    1       -4.119  -4.286  -1.485  0.00  0.00    +0.270 A 
ATOM      4  N   LIG    1       -5.251  -3.837  -1.006  0.00  0.00    -0.320 NA
ATOM      5  N   LIG    1       -6.422  -4.586  -1.172  0.00  0.00    -0.570 N 
ATOM      6  H   LIG    1       -7.259  -4.249  -0.815  0.00  0.00    +0.410 HD
ATOM      7  C   LIG    1       -6.404  -5.765  -1.818  0.00  0.00    +0.640 A 
ATOM      8  N   LIG    1       -5.262  -6.263  -2.326  0.00  0.00    -0.680 NA
ATOM      9  O   LIG    1       -7.439  -6.392  -1.946  0.00  0.00    -0.610 OA
ATOM     10  C   LIG    1       -4.108  -5.575  -2.196  0.00  0.00    +0.500 A 
ATOM     11  O   LIG    1       -3.071  -6.019  -2.653  0.00  0.00    -0.570 OA
ENDBRANCH   1   3
BRANCH   1  12
ATOM     12  C   LIG    1       -2.968  -2.271  -0.619  0.00  0.00    +0.340 C 
BRANCH  12  13
ATOM     13  C   LIG    1       -1.579  -1.686  -0.590  0.00  0.00    +0.460 C 
ATOM     14  O   LIG    1       -0.663  -2.279  -1.109  0.00  0.00    -0.500 OA
BRANCH  13  15
ATOM     15  O   LIG    1       -1.360  -0.507   0.012  0.00  0.00    -0.350 OA
BRANCH  15  17
ATOM     16  C   LIG    1       -0.019   1.526   0.010  0.00  0.00    +0.070 C 
ATOM     17  C   LIG    1        0.002  -0.004   0.002  0.00  0.00    +0.170 C 
ATOM     18  C   LIG    1        0.742  -0.511   1.242  0.00  0.00    +0.030 C 
ENDBRANCH  15  17
ENDBRANCH  13  15
ENDBRANCH  12  13
ENDBRANCH   1  12
TORSDOF 5
ENDMDL
MODEL       38
REMARK  Name = ZINC000002371866
REMARK                            x       y       z     vdW  Elec       q    Type
REMARK                         _______ _______ _______ _____ _____    ______ ____
ROOT
ATOM      1  C   LIG    1       -0.848   2.016   1.520  0.00  0.00    -0.500 C 
ATOM      2  C   LIG    1       -0.906   3.566   1.535  0.00  0.00    -0.240 C 
ATOM      3  S   LIG    1       -2.227   3.862   2.778  0.00  0.00    +2.390 S 
ATOM      4  C   LIG    1       -3.239   2.411   2.300  0.00  0.00    -0.340 C 
ATOM      5  O   LIG    1       -2.922   5.059   2.460  0.00  0.00    -0.940 OA
ATOM      6  O   LIG    1       -1.704   3.668   4.085  0.00  0.00    -0.930 OA
ATOM      7  C   LIG    1       -2.279   1.475   1.554  0.00  0.00    +0.240 C 
ENDROOT
BRANCH   1   9
ATOM      8  O   LIG    1        0.002  -0.004   0.002  0.00  0.00    -1.040 OA
ATOM      9  S   LIG    1       -0.018   1.450   0.010  0.00  0.00    +2.650 S 
ATOM     10  O   LIG    1       -0.752   1.947  -1.143  0.00  0.00    -1.050 OA
ATOM     11  O   LIG    1        1.341   1.970  -0.000  0.00  0.00    -1.050 OA
ENDBRANCH   1   9
BRANCH   7  12
ATOM     12  O   LIG    1       -2.271   0.203   2.206  0.00  0.00    -0.540 OA
ATOM     13  H   LIG    1       -3.131  -0.240   2.214  0.00  0.00    +0.380 HD
ENDBRANCH   7  12
TORSDOF 2
ENDMDL
MODEL       39
REMARK  Name = ZINC000002271797
REMARK                            x       y       z     vdW  Elec       q    Type
REMARK                         _______ _______ _______ _____ _____    ______ ____
ROOT
ATOM      1  N   LIG    1        2.407   1.043  -0.015  0.00  0.00    -0.690 N 
ATOM      2  H   LIG    1        2.242   0.087  -0.019  0.00  0.00    +0.420 HD
ENDROOT
BRANCH   1   3
ATOM      3  C   LIG    1        3.715   1.526  -0.025  0.00  0.00    +0.270 A 
ATOM      4  N   LIG    1        3.949   2.813  -0.015  0.00  0.00    -0.330 NA
ATOM      5  N   LIG    1        5.268   3.281  -0.025  0.00  0.00    -0.580 N 
ATOM      6  H   LIG    1        5.436   4.236  -0.017  0.00  0.00    +0.410 HD
ATOM      7  C   LIG    1        6.306   2.426  -0.044  0.00  0.00    +0.640 A 
ATOM      8  N   LIG    1        6.109   1.094  -0.055  0.00  0.00    -0.690 NA
ATOM      9  O   LIG    1        7.441   2.863  -0.052  0.00  0.00    -0.610 OA
ATOM     10  C   LIG    1        4.856   0.595  -0.041  0.00  0.00    +0.500 A 
ATOM     11  O   LIG    1        4.670  -0.607  -0.050  0.00  0.00    -0.570 OA
ENDBRANCH   1   3
BRANCH   1  12
ATOM     12  C   LIG    1        1.280   1.980   0.001  0.00  0.00    +0.300 C 
BRANCH  12  14
ATOM     13  O   LIG    1        0.002  -0.004   0.002  0.00  0.00    -0.530 OA
ATOM     14  C   LIG    1       -0.014   1.209   0.009  0.00  0.00    +0.510 C 
ATOM     15  N   LIG    1       -1.191   1.867   0.018  0.00  0.00    -0.730 N 
ATOM     16  H   LIG    1       -1.204   2.837   0.023  0.00  0.00    +0.410 HD
BRANCH  15  17
ATOM     17  C   LIG    1       -2.449   1.117   0.020  0.00  0.00    +0.280 C 
BRANCH  17  18
ATOM     18  C   LIG    1       -3.626   2.095   0.031  0.00  0.00    +0.170 C 
BRANCH  18  19
ATOM     19  O   LIG    1       -3.633   2.844  -1.186  0.00  0.00    -0.570 OA
ATOM     20  H   LIG    1       -4.354   3.486  -1.249  0.00  0.00    +0.380 HD
ENDBRANCH  18  19
ENDBRANCH  17  18
ENDBRANCH  15  17
ENDBRANCH  12  14
ENDBRANCH   1  12
TORSDOF 6
ENDMDL
MODEL       40
REMARK  Name = ZINC000003768506
REMARK                            x       y       z     vdW  Elec       q    Type
REMARK                         _______ _______ _______ _____ _____    ______ ____
ROOT
ATOM      1  C   LIG    1        1.422  -2.324  -2.469  0.00  0.00    -0.140 C 
ATOM      2  C   LIG    1        1.528  -3.674  -2.632  0.00  0.00    +0.150 A 
ATOM      3  N   LIG    1        2.130  -4.322  -3.674  0.00  0.00    -0.650 N 
ATOM      4  H   LIG    1        2.538  -3.821  -4.397  0.00  0.00    +0.410 HD
ATOM      5  C   LIG    1        2.147  -5.645  -3.680  0.00  0.00    +0.560 A 
ATOM      6  C   LIG    1        1.487  -6.282  -2.514  0.00  0.00    -0.280 A 
ATOM      7  C   LIG    1        1.353  -7.610  -2.256  0.00  0.00    +0.120 C 
ATOM      8  O   LIG    1        2.663  -6.288  -4.572  0.00  0.00    -0.500 OA
ATOM      9  S   LIG    1        0.919  -4.920  -1.529  0.00  0.00    +0.250 S 
ENDROOT
BRANCH   7  10
ATOM     10  C   LIG    1        0.686  -8.040  -1.081  0.00  0.00    +0.490 C 
ATOM     11  O   LIG    1        0.565  -9.236  -0.848  0.00  0.00    -0.670 OA
ATOM     12  O   LIG    1        0.231  -7.215  -0.299  0.00  0.00    -0.650 OA
ENDBRANCH   7  10
BRANCH   1  13
ATOM     13  C   LIG    1        0.776  -1.802  -1.335  0.00  0.00    +0.510 C 
ATOM     14  O   LIG    1        0.311  -2.554  -0.498  0.00  0.00    -0.510 OA
BRANCH  13  15
ATOM     15  O   LIG    1        0.671  -0.465  -1.174  0.00  0.00    -0.360 OA
BRANCH  15  17
ATOM     16  C   LIG    1       -0.019   1.526   0.010  0.00  0.00    +0.050 C 
ATOM     17  C   LIG    1        0.002  -0.004   0.002  0.00  0.00    +0.200 C 
ENDBRANCH  15  17
ENDBRANCH  13  15
ENDBRANCH   1  13
TORSDOF 4
ENDMDL
MODEL       41
REMARK  Name = ZINC000101041790
REMARK                            x       y       z     vdW  Elec       q    Type
REMARK                         _______ _______ _______ _____ _____    ______ ____
ROOT
ATOM      1  C   LIG    1       -1.412  -0.526   0.013  0.00  0.00    +0.320 C 
ATOM      2  C   LIG    1       -2.048  -0.734  -1.197  0.00  0.00    -0.430 C 
ATOM      3  C   LIG    1       -1.334  -0.580  -2.478  0.00  0.00    +0.560 C 
ATOM      4  N   LIG    1       -2.018  -0.799  -3.619  0.00  0.00    -0.720 NA
ATOM      5  C   LIG    1       -3.313  -1.147  -3.604  0.00  0.00    +0.660 C 
ATOM      6  N   LIG    1       -4.023  -1.304  -2.478  0.00  0.00    -0.690 N 
ATOM      7  H   LIG    1       -4.958  -1.558  -2.539  0.00  0.00    +0.390 HD
ATOM      8  O   LIG    1       -3.872  -1.329  -4.668  0.00  0.00    -0.610 OA
ATOM      9  O   LIG    1       -0.159  -0.266  -2.504  0.00  0.00    -0.580 OA
ATOM     10  C   LIG    1       -3.467  -1.124  -1.263  0.00  0.00    +0.580 C 
ATOM     11  O   LIG    1       -4.123  -1.270  -0.248  0.00  0.00    -0.580 OA
ENDROOT
BRANCH   1  13
ATOM     12  C   LIG    1        0.993  -1.132  -0.009  0.00  0.00    +0.040 C 
ATOM     13  C   LIG    1       -0.009   0.024   0.042  0.00  0.00    +0.080 C 
ENDBRANCH   1  13
BRANCH   1  14
ATOM     14  N   LIG    1       -2.047  -0.815   1.166  0.00  0.00    -0.690 N 
ATOM     15  H   LIG    1       -2.916  -1.245   1.147  0.00  0.00    +0.420 HD
BRANCH  14  16
ATOM     16  C   LIG    1       -1.424  -0.478   2.449  0.00  0.00    +0.250 C 
BRANCH  16  17
ATOM     17  C   LIG    1       -2.346  -0.909   3.592  0.00  0.00    +0.030 C 
BRANCH  17  18
ATOM     18  C   LIG    1       -1.696  -0.558   4.931  0.00  0.00    +0.180 C 
BRANCH  18  19
ATOM     19  O   LIG    1       -2.557  -0.960   5.999  0.00  0.00    -0.570 OA
ATOM     20  H   LIG    1       -2.207  -0.768   6.880  0.00  0.00    +0.380 HD
ENDBRANCH  18  19
ENDBRANCH  17  18
ENDBRANCH  16  17
ENDBRANCH  14  16
ENDBRANCH   1  14
TORSDOF 6
ENDMDL
MODEL       42
REMARK  Name = ZINC000004009632
REMARK                            x       y       z     vdW  Elec       q    Type
REMARK                         _______ _______ _______ _____ _____    ______ ____
ROOT
ATOM      1  O   LIG    1        0.002  -0.004   0.002  0.00  0.00    -0.630 OA
ATOM      2  C   LIG    1       -0.014   1.211   0.009  0.00  0.00    +0.440 A 
ATOM      3  C   LIG    1       -1.304   1.933   0.031  0.00  0.00    -0.020 A 
ATOM      4  C   LIG    1       -1.301   3.278   0.039  0.00  0.00    -0.050 A 
ATOM      5  C   LIG    1       -0.007   3.993   0.024  0.00  0.00    +0.480 A 
ATOM      6  N   LIG    1        1.146   3.298   0.004  0.00  0.00    -0.390 N 
ATOM      7  O   LIG    1        0.015   5.208   0.031  0.00  0.00    -0.600 OA
ATOM      8  N   LIG    1        1.142   1.900   0.001  0.00  0.00    -0.480 NA
ENDROOT
BRANCH   6   9
ATOM      9  C   LIG    1        2.422   4.018  -0.010  0.00  0.00    +0.290 C 
ATOM     10  C   LIG    1        3.240   3.614  -1.249  0.00  0.00    +0.070 C 
ATOM     11  C   LIG    1        4.689   4.109  -1.067  0.00  0.00    -0.320 C 
ATOM     12  S   LIG    1        4.955   4.148   0.743  0.00  0.00    +2.390 S 
ATOM     13  O   LIG    1        5.171   5.490   1.158  0.00  0.00    -0.940 OA
ATOM     14  O   LIG    1        5.885   3.137   1.104  0.00  0.00    -0.940 OA
ATOM     15  C   LIG    1        3.267   3.624   1.229  0.00  0.00    -0.310 C 
ENDBRANCH   6   9
TORSDOF 1
ENDMDL
MODEL       43
REMARK  Name = ZINC000225391689
REMARK                            x       y       z     vdW  Elec       q    Type
REMARK                         _______ _______ _______ _____ _____    ______ ____
ROOT
ATOM      1  C   LIG    1       -0.846  -0.529  -1.450  0.00  0.00    -0.550 A 
ATOM      2  C   LIG    1       -2.183  -0.777  -1.544  0.00  0.00    -0.140 A 
ATOM      3  C   LIG    1       -3.398  -0.762  -0.652  0.00  0.00    +0.110 C 
ATOM      4  C   LIG    1       -4.691  -0.672  -1.488  0.00  0.00    -0.320 C 
ATOM      5  S   LIG    1       -4.153  -1.472  -3.050  0.00  0.00    +2.490 S 
ATOM      6  O   LIG    1       -4.568  -0.727  -4.187  0.00  0.00    -0.970 OA
ATOM      7  O   LIG    1       -4.291  -2.885  -2.987  0.00  0.00    -0.960 OA
ATOM      8  C   LIG    1       -2.416  -1.157  -2.879  0.00  0.00    -0.740 A 
ATOM      9  C   LIG    1       -1.246  -1.145  -3.539  0.00  0.00    +0.210 A 
ATOM     10  N   LIG    1       -0.277  -0.749  -2.666  0.00  0.00    -0.470 NA
ENDROOT
BRANCH   1  11
ATOM     11  S   LIG    1        0.002  -0.004   0.002  0.00  0.00    +2.730 S 
ATOM     12  O   LIG    1       -0.792  -0.422   1.104  0.00  0.00    -0.980 OA
ATOM     13  O   LIG    1        1.360  -0.386  -0.166  0.00  0.00    -0.980 OA
BRANCH  11  14
ATOM     14  N   LIG    1       -0.020   1.652   0.011  0.00  0.00    -1.250 NA
ATOM     15  H   LIG    1       -0.867   2.125   0.018  0.00  0.00    +0.410 HD
ATOM     16  H   LIG    1        0.813   2.148   0.006  0.00  0.00    +0.410 HD
ENDBRANCH  11  14
ENDBRANCH   1  11
TORSDOF 2
ENDMDL
MODEL       44
REMARK  Name = ZINC000004484374
REMARK                            x       y       z     vdW  Elec       q    Type
REMARK                         _______ _______ _______ _____ _____    ______ ____
ROOT
ATOM      1  C   LIG    1        1.463  -2.354  -2.541  0.00  0.00    +0.130 A 
ATOM      2  C   LIG    1        1.628  -3.695  -2.820  0.00  0.00    -0.380 A 
ATOM      3  C   LIG    1        1.400  -5.091  -2.404  0.00  0.00    +0.550 A 
ATOM      4  N   LIG    1        1.945  -5.873  -3.357  0.00  0.00    -0.640 N 
ATOM      5  H   LIG    1        1.943  -6.843  -3.343  0.00  0.00    +0.390 HD
ATOM      6  C   LIG    1        2.508  -5.102  -4.359  0.00  0.00    +0.030 A 
ATOM      7  O   LIG    1        0.831  -5.464  -1.396  0.00  0.00    -0.590 OA
ATOM      8  C   LIG    1        2.352  -3.789  -4.096  0.00  0.00    +0.090 A 
ATOM      9  N   LIG    1        2.583  -2.461  -4.516  0.00  0.00    -0.530 N 
ATOM     10  H   LIG    1        3.041  -2.189  -5.326  0.00  0.00    +0.420 HD
ATOM     11  N   LIG    1        2.027  -1.607  -3.554  0.00  0.00    -0.310 NA
ENDROOT
BRANCH   1  12
ATOM     12  C   LIG    1        0.787  -1.807  -1.354  0.00  0.00    +0.540 C 
ATOM     13  O   LIG    1        0.323  -2.559  -0.519  0.00  0.00    -0.490 OA
BRANCH  12  14
ATOM     14  O   LIG    1        0.682  -0.472  -1.193  0.00  0.00    -0.350 OA
BRANCH  14  16
ATOM     15  C   LIG    1       -0.019   1.526   0.010  0.00  0.00    +0.040 C 
ATOM     16  C   LIG    1        0.002  -0.004   0.002  0.00  0.00    +0.200 C 
ENDBRANCH  14  16
ENDBRANCH  12  14
ENDBRANCH   1  12
BRANCH   6  17
ATOM     17  O   LIG    1        3.132  -5.600  -5.455  0.00  0.00    -0.480 OA
ATOM     18  H   LIG    1        3.157  -6.566  -5.489  0.00  0.00    +0.370 HD
ENDBRANCH   6  17
TORSDOF 4
ENDMDL
MODEL       45
REMARK  Name = ZINC000008076668
REMARK                            x       y       z     vdW  Elec       q    Type
REMARK                         _______ _______ _______ _____ _____    ______ ____
ROOT
ATOM      1  CB  ALA A  1       -0.019   1.526   0.010  0.00  0.00    +0.060 C 
ATOM      2  CA  ALA A  1        0.002  -0.004   0.002  0.00  0.00    +0.250 C 
ATOM      3  N   ALA A  1       -1.368  -0.500  -0.009  0.00  0.00    -0.720 N 
ATOM      4  H   ALA A  1       -1.855  -0.500  -0.847  0.00  0.00    +0.410 HD
ATOM      5  C   GLU A  2       -1.983  -0.954   1.088  0.00  0.00    +0.520 C 
ATOM      6  CA  GLU A  2       -1.318  -0.996   2.431  0.00  0.00    +0.240 C 
ATOM      7  N   GLU A  2        0.132  -0.941   2.305  0.00  0.00    -0.700 N 
ATOM      8  H   GLU A  2        0.674  -1.243   3.051  0.00  0.00    +0.410 HD
ATOM      9  O   GLU A  2       -3.126  -1.347   0.992  0.00  0.00    -0.530 OA
ATOM     10  C   ALA A  1        0.747  -0.491   1.208  0.00  0.00    +0.520 C 
ATOM     11  O   ALA A  1        1.960  -0.477   1.186  0.00  0.00    -0.540 OA
ENDROOT
BRANCH   6  12
ATOM     12  CB  GLU A  2       -1.793   0.197   3.263  0.00  0.00    +0.060 C 
BRANCH  12  13
ATOM     13  CG  GLU A  2       -1.218   0.094   4.677  0.00  0.00    -0.060 C 
BRANCH  13  14
ATOM     14  CD  GLU A  2       -1.686   1.269   5.497  0.00  0.00    +0.490 C 
ATOM     15  OE2 GLU A  2       -1.338   1.377   6.660  0.00  0.00    -0.700 OA
ATOM     16  OE1 GLU A  2       -2.413   2.110   4.996  0.00  0.00    -0.700 OA
ENDBRANCH  13  14
ENDBRANCH  12  13
ENDBRANCH   6  12
TORSDOF 3
ENDMDL
MODEL       46
REMARK  Name = ZINC000225502501
REMARK                            x       y       z     vdW  Elec       q    Type
REMARK                         _______ _______ _______ _____ _____    ______ ____
ROOT
ATOM      1  C   LIG    1        0.002  -0.004   0.002  0.00  0.00    +0.600 A 
ATOM      2  N   LIG    1       -1.141  -0.685   0.004  0.00  0.00    -0.580 NA
ATOM      3  C   LIG    1       -1.123  -2.012  -0.004  0.00  0.00    +0.370 A 
ATOM      4  N   LIG    1        0.035  -2.661  -0.013  0.00  0.00    -0.560 NA
ATOM      5  C   LIG    1        1.179  -1.981  -0.015  0.00  0.00    +0.540 A 
ATOM      6  N   LIG    1        1.161  -0.653  -0.013  0.00  0.00    -0.650 NA
ENDROOT
BRANCH   5   7
ATOM      7  N   LIG    1        2.382  -2.656  -0.025  0.00  0.00    -0.450 N 
ATOM      8  C   LIG    1        2.476  -3.583   1.111  0.00  0.00    +0.190 C 
ATOM      9  C   LIG    1        3.798  -4.352   1.028  0.00  0.00    +0.250 C 
ATOM     10  O   LIG    1        4.883  -3.422   0.998  0.00  0.00    -0.390 OA
ATOM     11  C   LIG    1        4.824  -2.503  -0.097  0.00  0.00    +0.220 C 
ATOM     12  C   LIG    1        3.513  -1.716  -0.025  0.00  0.00    +0.190 C 
ENDBRANCH   5   7
BRANCH   1  13
ATOM     13  N   LIG    1       -0.017   1.376   0.010  0.00  0.00    -0.810 N 
ATOM     14  H   LIG    1       -0.863   1.850   0.016  0.00  0.00    +0.420 HD
ATOM     15  H   LIG    1        0.817   1.872   0.004  0.00  0.00    +0.410 HD
ENDBRANCH   1  13
BRANCH   3  16
ATOM     16  C   LIG    1       -2.402  -2.773  -0.003  0.00  0.00    +0.550 C 
ATOM     17  O   LIG    1       -2.386  -3.994  -0.010  0.00  0.00    -0.640 OA
ATOM     18  O   LIG    1       -3.467  -2.176   0.006  0.00  0.00    -0.650 OA
ENDBRANCH   3  16
TORSDOF 3
ENDMDL
MODEL       47
REMARK  Name = ZINC000008699056
REMARK                            x       y       z     vdW  Elec       q    Type
REMARK                         _______ _______ _______ _____ _____    ______ ____
ROOT
ATOM      1  N   LIG    1        0.796  -0.399  -1.397  0.00  0.00    -1.000 NA
ATOM      2  C   LIG    1        0.060  -0.584  -2.656  0.00  0.00    +0.300 C 
ATOM      3  C   LIG    1        0.726   0.269  -3.740  0.00  0.00    +0.140 C 
ATOM      4  N   LIG    1        2.158  -0.056  -3.804  0.00  0.00    -0.510 NA
ATOM      5  C   LIG    1        2.837   0.280  -2.545  0.00  0.00    +0.180 C 
ATOM      6  C   LIG    1        2.257  -0.567  -1.413  0.00  0.00    +0.300 C 
ENDROOT
BRANCH   1   8
ATOM      7  C   LIG    1       -0.022   1.810   0.012  0.00  0.00    -0.310 C 
ATOM      8  S   LIG    1        0.002  -0.004   0.002  0.00  0.00    +2.610 S 
ATOM      9  O   LIG    1       -1.309  -0.519  -0.182  0.00  0.00    -0.960 OA
ATOM     10  O   LIG    1        0.845  -0.497   1.035  0.00  0.00    -0.960 OA
ENDBRANCH   1   8
BRANCH   4  11
ATOM     11  C   LIG    1        2.799   0.614  -4.943  0.00  0.00    +0.090 C 
BRANCH  11  12
ATOM     12  C   LIG    1        4.194   0.072  -5.123  0.00  0.00    +0.500 C 
ATOM     13  O   LIG    1        4.902   0.497  -6.020  0.00  0.00    -0.710 OA
ATOM     14  O   LIG    1        4.614  -0.792  -4.373  0.00  0.00    -0.680 OA
ENDBRANCH  11  12
ENDBRANCH   4  11
TORSDOF 3
ENDMDL
MODEL       48
REMARK  Name = ZINC000074942190
REMARK                            x       y       z     vdW  Elec       q    Type
REMARK                         _______ _______ _______ _____ _____    ______ ____
ROOT
ATOM      1  C   LIG    1       -1.294   1.936   0.019  0.00  0.00    -0.280 A 
ATOM      2  C   LIG    1       -2.495   1.248   0.026  0.00  0.00    +0.330 A 
ATOM      3  N   LIG    1       -3.659   1.944   0.036  0.00  0.00    -0.530 N 
ATOM      4  C   LIG    1       -3.674   3.286   0.038  0.00  0.00    +0.700 A 
ATOM      5  N   LIG    1       -2.545   4.015   0.031  0.00  0.00    -0.670 N 
ATOM      6  H   LIG    1       -2.596   4.984   0.034  0.00  0.00    +0.420 HD
ATOM      7  O   LIG    1       -4.744   3.862   0.047  0.00  0.00    -0.550 OA
ATOM      8  C   LIG    1       -1.339   3.408   0.027  0.00  0.00    +0.540 A 
ATOM      9  O   LIG    1       -0.313   4.062   0.021  0.00  0.00    -0.480 OA
ENDROOT
BRANCH   1  11
ATOM     10  O   LIG    1        0.002  -0.004   0.002  0.00  0.00    -0.700 OA
ATOM     11  C   LIG    1       -0.015   1.220   0.009  0.00  0.00    +0.540 C 
ATOM     12  O   LIG    1        1.037   1.846   0.002  0.00  0.00    -0.660 OA
ENDBRANCH   1  11
BRANCH   3  13
ATOM     13  C   LIG    1       -4.929   1.215   0.045  0.00  0.00    +0.330 C 
BRANCH  13  14
ATOM     14  C   LIG    1       -5.361   0.959   1.490  0.00  0.00    +0.170 C 
BRANCH  14  15
ATOM     15  O   LIG    1       -5.636   2.205   2.133  0.00  0.00    -0.560 OA
ATOM     16  H   LIG    1       -5.916   2.120   3.054  0.00  0.00    +0.370 HD
ENDBRANCH  14  15
ENDBRANCH  13  14
ENDBRANCH   3  13
TORSDOF 4
ENDMDL
MODEL       49
REMARK  Name = ZINC000001750764
REMARK                            x       y       z     vdW  Elec       q    Type
REMARK                         _______ _______ _______ _____ _____    ______ ____
ROOT
ATOM      1  C   LIG    1       -0.018   1.503   0.010  0.00  0.00    +0.190 C 
ATOM      2  C   LIG    1        0.002  -0.004   0.002  0.00  0.00    +0.290 A 
ATOM      3  C   LIG    1       -1.156  -0.698   0.004  0.00  0.00    -0.830 A 
ATOM      4  C   LIG    1       -1.111  -2.113  -0.005  0.00  0.00    +0.590 A 
ATOM      5  N   LIG    1        0.084  -2.737  -0.014  0.00  0.00    -0.660 N 
ATOM      6  H   LIG    1        0.123  -3.706  -0.020  0.00  0.00    +0.430 HD
ATOM      7  C   LIG    1        1.224  -2.020  -0.016  0.00  0.00    +0.710 A 
ATOM      8  O   LIG    1        2.294  -2.597  -0.024  0.00  0.00    -0.560 OA
ATOM      9  O   LIG    1       -2.142  -2.761  -0.004  0.00  0.00    -0.490 OA
ATOM     10  N   LIG    1        1.194  -0.675  -0.013  0.00  0.00    -0.640 N 
ATOM     11  H   LIG    1        2.026  -0.177  -0.014  0.00  0.00    +0.430 HD
ENDROOT
BRANCH   3  12
ATOM     12  S   LIG    1       -2.703   0.146   0.016  0.00  0.00    +2.720 S 
ATOM     13  O   LIG    1       -3.305  -0.064  -1.292  0.00  0.00    -1.050 OA
ATOM     14  O   LIG    1       -2.413   1.550   0.264  0.00  0.00    -1.060 OA
ATOM     15  O   LIG    1       -3.495  -0.445   1.083  0.00  0.00    -1.050 OA
ENDBRANCH   3  12
TORSDOF 1
ENDMDL
MODEL       50
REMARK  Name = ZINC000102959273
REMARK                            x       y       z     vdW  Elec       q    Type
REMARK                         _______ _______ _______ _____ _____    ______ ____
ROOT
ATOM      1  C   LIG    1       -1.263  -2.173  -0.104  0.00  0.00    -0.510 A 
ATOM      2  C   LIG    1       -2.379  -3.026  -0.217  0.00  0.00    +0.430 A 
ATOM      3  N   LIG    1       -1.921  -4.301  -0.303  0.00  0.00    -0.440 NA
ATOM      4  N   LIG    1       -0.525  -4.309  -0.250  0.00  0.00    -0.400 N 
ATOM      5  C   LIG    1       -0.079  -3.042  -0.136  0.00  0.00    +0.530 A 
ATOM      6  O   LIG    1        1.083  -2.687  -0.064  0.00  0.00    -0.520 OA
ENDROOT
BRANCH   4   7
ATOM      7  C   LIG    1        0.282  -5.450  -0.312  0.00  0.00    +0.220 A 
ATOM      8  C   LIG    1        1.664  -5.329  -0.243  0.00  0.00    -0.020 A 
ATOM      9  C   LIG    1        2.457  -6.458  -0.305  0.00  0.00    +0.030 A 
ATOM     10  C   LIG    1        1.877  -7.707  -0.435  0.00  0.00    -0.070 A 
ATOM     11  C   LIG    1        0.502  -7.830  -0.504  0.00  0.00    +0.010 A 
ATOM     12  C   LIG    1       -0.298  -6.706  -0.436  0.00  0.00    -0.030 A 
ENDBRANCH   4   7
BRANCH   2  13
ATOM     13  N   LIG    1       -3.683  -2.639  -0.236  0.00  0.00    -0.820 N 
ATOM     14  H   LIG    1       -4.384  -3.304  -0.318  0.00  0.00    +0.390 HD
ATOM     15  H   LIG    1       -3.911  -1.699  -0.169  0.00  0.00    +0.410 HD
ENDBRANCH   2  13
BRANCH   1  16
ATOM     16  C   LIG    1       -1.280  -0.767   0.010  0.00  0.00    +0.420 C 
ATOM     17  O   LIG    1       -2.337  -0.179   0.130  0.00  0.00    -0.550 OA
BRANCH  16  21
ATOM     18  N   LIG    1       -0.020   1.346  -0.015  0.00  0.00    -0.860 N 
ATOM     19  H   LIG    1       -0.867   1.818  -0.001  0.00  0.00    +0.400 HD
ATOM     20  H   LIG    1        0.813   1.843  -0.032  0.00  0.00    +0.390 HD
ATOM     21  C   LIG    1        0.001  -0.002  -0.016  0.00  0.00    +0.460 C 
ATOM     22  O   LIG    1        1.061  -0.593  -0.039  0.00  0.00    -0.470 OA
ENDBRANCH  16  21
ENDBRANCH   1  16
TORSDOF 4
ENDMDL
MODEL       51
REMARK  Name = ZINC000102959277
REMARK                            x       y       z     vdW  Elec       q    Type
REMARK                         _______ _______ _______ _____ _____    ______ ____
ROOT
ATOM      1  C   LIG    1       -1.263  -2.173  -0.104  0.00  0.00    -0.510 A 
ATOM      2  C   LIG    1       -2.379  -3.026  -0.217  0.00  0.00    +0.430 A 
ATOM      3  N   LIG    1       -1.921  -4.301  -0.303  0.00  0.00    -0.440 NA
ATOM      4  N   LIG    1       -0.525  -4.309  -0.250  0.00  0.00    -0.400 N 
ATOM      5  C   LIG    1       -0.079  -3.042  -0.136  0.00  0.00    +0.530 A 
ATOM      6  O   LIG    1        1.083  -2.687  -0.064  0.00  0.00    -0.520 OA
ENDROOT
BRANCH   4   7
ATOM      7  C   LIG    1        0.282  -5.450  -0.312  0.00  0.00    +0.220 A 
ATOM      8  C   LIG    1        1.664  -5.329  -0.243  0.00  0.00    -0.020 A 
ATOM      9  C   LIG    1        2.457  -6.458  -0.305  0.00  0.00    +0.030 A 
ATOM     10  C   LIG    1        1.877  -7.707  -0.435  0.00  0.00    -0.070 A 
ATOM     11  C   LIG    1        0.502  -7.830  -0.504  0.00  0.00    +0.010 A 
ATOM     12  C   LIG    1       -0.298  -6.706  -0.436  0.00  0.00    -0.030 A 
ENDBRANCH   4   7
BRANCH   2  13
ATOM     13  N   LIG    1       -3.683  -2.639  -0.236  0.00  0.00    -0.820 N 
ATOM     14  H   LIG    1       -4.384  -3.304  -0.318  0.00  0.00    +0.390 HD
ATOM     15  H   LIG    1       -3.911  -1.699  -0.169  0.00  0.00    +0.410 HD
ENDBRANCH   2  13
BRANCH   1  16
ATOM     16  C   LIG    1       -1.280  -0.767   0.010  0.00  0.00    +0.420 C 
ATOM     17  O   LIG    1       -2.337  -0.179   0.130  0.00  0.00    -0.550 OA
BRANCH  16  21
ATOM     18  N   LIG    1       -0.020   1.346  -0.015  0.00  0.00    -0.860 N 
ATOM     19  H   LIG    1       -0.867   1.818  -0.001  0.00  0.00    +0.400 HD
ATOM     20  H   LIG    1        0.813   1.843  -0.032  0.00  0.00    +0.390 HD
ATOM     21  C   LIG    1        0.001  -0.002  -0.016  0.00  0.00    +0.460 C 
ATOM     22  O   LIG    1        1.061  -0.593  -0.039  0.00  0.00    -0.470 OA
ENDBRANCH  16  21
ENDBRANCH   1  16
TORSDOF 4
ENDMDL
MODEL       52
REMARK  Name = ZINC000020185001
REMARK                            x       y       z     vdW  Elec       q    Type
REMARK                         _______ _______ _______ _____ _____    ______ ____
ROOT
ATOM      1  C   LIG    1       -1.747  -0.897   0.594  0.00  0.00    -0.010 C 
ATOM      2  C   LIG    1       -2.272  -0.468  -0.778  0.00  0.00    +0.020 C 
ATOM      3  C   LIG    1       -3.585  -1.202  -1.070  0.00  0.00    +0.250 C 
ATOM      4  N   LIG    1       -3.358  -2.648  -0.936  0.00  0.00    -0.600 N 
ATOM      5  C   LIG    1       -2.770  -3.158   0.310  0.00  0.00    +0.260 C 
ATOM      6  C   LIG    1       -3.682  -3.490  -1.938  0.00  0.00    +0.460 C 
ATOM      7  O   LIG    1       -4.284  -3.076  -2.907  0.00  0.00    -0.550 OA
ATOM      8  C   LIG    1       -1.467  -2.402   0.587  0.00  0.00    +0.030 C 
ENDROOT
BRANCH   1  12
ATOM      9  N   LIG    1       -0.478   1.195   0.958  0.00  0.00    -0.860 N 
ATOM     10  H   LIG    1       -1.301   1.684   0.799  0.00  0.00    +0.400 HD
ATOM     11  H   LIG    1        0.341   1.675   1.154  0.00  0.00    +0.400 HD
ATOM     12  C   LIG    1       -0.473  -0.152   0.899  0.00  0.00    +0.520 C 
ATOM     13  O   LIG    1        0.556  -0.763   1.092  0.00  0.00    -0.540 OA
ENDBRANCH   1  12
BRANCH   6  14
ATOM     14  C   LIG    1       -3.300  -4.934  -1.854  0.00  0.00    +0.500 C 
ATOM     15  O   LIG    1       -2.593  -5.327  -0.941  0.00  0.00    -0.650 OA
ATOM     16  O   LIG    1       -3.697  -5.720  -2.700  0.00  0.00    -0.640 OA
ENDBRANCH   6  14
TORSDOF 2
ENDMDL
MODEL       53
REMARK  Name = ZINC000041072534
REMARK                            x       y       z     vdW  Elec       q    Type
REMARK                         _______ _______ _______ _____ _____    ______ ____
ROOT
ATOM      1  C   LIG    1       -1.293  -0.775   0.010  0.00  0.00    -0.010 C 
ATOM      2  C   LIG    1       -2.112  -0.408  -1.229  0.00  0.00    +0.030 C 
ATOM      3  C   LIG    1       -3.443  -1.168  -1.199  0.00  0.00    +0.290 C 
ATOM      4  N   LIG    1       -3.164  -2.604  -1.064  0.00  0.00    -0.620 N 
ATOM      5  C   LIG    1       -2.310  -3.057   0.043  0.00  0.00    +0.270 C 
ATOM      6  C   LIG    1       -3.682  -3.490  -1.938  0.00  0.00    +0.520 C 
ATOM      7  O   LIG    1       -4.386  -3.103  -2.847  0.00  0.00    -0.510 OA
ATOM      8  C   LIG    1       -0.992  -2.276  -0.001  0.00  0.00    +0.040 C 
ENDROOT
BRANCH   1  12
ATOM      9  N   LIG    1       -0.016   1.344   0.009  0.00  0.00    -0.860 N 
ATOM     10  H   LIG    1       -0.863   1.817   0.016  0.00  0.00    +0.400 HD
ATOM     11  H   LIG    1        0.817   1.840   0.004  0.00  0.00    +0.400 HD
ATOM     12  C   LIG    1        0.002  -0.004   0.002  0.00  0.00    +0.520 C 
ATOM     13  O   LIG    1        1.060  -0.596  -0.011  0.00  0.00    -0.540 OA
ENDBRANCH   1  12
BRANCH   6  14
ATOM     14  C   LIG    1       -3.387  -4.960  -1.785  0.00  0.00    +0.180 C 
BRANCH  14  15
ATOM     15  O   LIG    1       -4.045  -5.688  -2.824  0.00  0.00    -0.330 OA
BRANCH  15  16
ATOM     16  C   LIG    1       -3.829  -7.099  -2.771  0.00  0.00    +0.100 C 
BRANCH  16  17
ATOM     17  C   LIG    1       -4.564  -7.763  -3.907  0.00  0.00    +0.500 C 
ATOM     18  O   LIG    1       -4.510  -8.973  -4.044  0.00  0.00    -0.700 OA
ATOM     19  O   LIG    1       -5.212  -7.090  -4.690  0.00  0.00    -0.670 OA
ENDBRANCH  16  17
ENDBRANCH  15  16
ENDBRANCH  14  15
ENDBRANCH   6  14
TORSDOF 5
ENDMDL
MODEL       54
REMARK  Name = ZINC000002567176
REMARK                            x       y       z     vdW  Elec       q    Type
REMARK                         _______ _______ _______ _____ _____    ______ ____
ROOT
ATOM      1  N   LIG    1        1.461  -3.825  -2.510  0.00  0.00    -0.600 N 
ATOM      2  C   LIG    1        2.400  -4.595  -1.937  0.00  0.00    +0.660 C 
ATOM      3  N   LIG    1        2.098  -5.899  -2.047  0.00  0.00    -0.690 NA
ATOM      4  C   LIG    1        0.928  -6.022  -2.711  0.00  0.00    +0.480 C 
ATOM      5  O   LIG    1        0.348  -7.049  -2.993  0.00  0.00    -0.510 OA
ATOM      6  O   LIG    1        3.395  -4.166  -1.387  0.00  0.00    -0.560 OA
ATOM      7  C   LIG    1        0.495  -4.620  -3.019  0.00  0.00    +0.460 C 
ATOM      8  O   LIG    1       -0.508  -4.273  -3.607  0.00  0.00    -0.490 OA
ENDROOT
BRANCH   1   9
ATOM      9  C   LIG    1        1.479  -2.361  -2.569  0.00  0.00    +0.390 C 
BRANCH   9  10
ATOM     10  C   LIG    1        0.786  -1.801  -1.353  0.00  0.00    +0.450 C 
ATOM     11  O   LIG    1        0.325  -2.548  -0.523  0.00  0.00    -0.490 OA
BRANCH  10  12
ATOM     12  O   LIG    1        0.682  -0.472  -1.193  0.00  0.00    -0.360 OA
BRANCH  12  14
ATOM     13  C   LIG    1       -0.019   1.526   0.010  0.00  0.00    +0.070 C 
ATOM     14  C   LIG    1        0.002  -0.004   0.002  0.00  0.00    +0.200 C 
ENDBRANCH  12  14
ENDBRANCH  10  12
ENDBRANCH   9  10
ENDBRANCH   1   9
TORSDOF 4
ENDMDL
MODEL       55
REMARK  Name = ZINC000005426136
REMARK                            x       y       z     vdW  Elec       q    Type
REMARK                         _______ _______ _______ _____ _____    ______ ____
ROOT
ATOM      1  CA  LIG    1       -1.155   1.681   0.191  0.00  0.00    +0.160 C 
ATOM      2  C   LIG    1       -1.083   2.412  -1.157  0.00  0.00    +0.030 C 
ATOM      3  C   LIG    1       -0.390   1.515  -2.170  0.00  0.00    +0.020 C 
ATOM      4  C   LIG    1       -0.641   0.042  -1.916  0.00  0.00    +0.280 C 
ATOM      5  N   LIG    1       -2.078  -0.226  -1.848  0.00  0.00    -0.720 N 
ATOM      6  H   LIG    1       -2.529  -0.626  -2.608  0.00  0.00    +0.410 HD
ATOM      7  C   LIG    1       -2.783   0.079  -0.740  0.00  0.00    +0.730 C 
ATOM      8  N   LIG    1       -4.019  -0.445  -0.628  0.00  0.00    -0.590 NA
ATOM      9  N   LIG    1       -2.356   0.851   0.244  0.00  0.00    -0.630 N 
ATOM     10  H   LIG    1       -2.877   0.868   1.061  0.00  0.00    +0.420 HD
ENDROOT
BRANCH   1  12
ATOM     11  O   LIG    1        1.156   1.218   0.002  0.00  0.00    -0.670 OA
ATOM     12  C   LIG    1        0.063   0.809   0.354  0.00  0.00    +0.500 C 
ATOM     13  OXT LIG    1       -0.044  -0.303   0.842  0.00  0.00    -0.670 OA
ENDBRANCH   1  12
BRANCH   8  14
ATOM     14  N   LIG    1       -4.446  -1.284  -1.510  0.00  0.00    +0.250 N 
ATOM     15  O   LIG    1       -5.105  -0.890  -2.456  0.00  0.00    -0.260 OA
ATOM     16  O   LIG    1       -4.192  -2.470  -1.397  0.00  0.00    -0.250 OA
ENDBRANCH   8  14
TORSDOF 2
ENDMDL
MODEL       56
REMARK  Name = ZINC000015636573
REMARK                            x       y       z     vdW  Elec       q    Type
REMARK                         _______ _______ _______ _____ _____    ______ ____
ROOT
ATOM      1  O   LIG    1        0.002  -0.004   0.002  0.00  0.00    -0.450 OA
ATOM      2  C   LIG    1       -0.014   1.211   0.009  0.00  0.00    +0.420 A 
ATOM      3  C   LIG    1       -1.223   2.070   0.031  0.00  0.00    -0.120 A 
ATOM      4  C   LIG    1       -2.577   1.753   0.049  0.00  0.00    +0.050 A 
ATOM      5  C   LIG    1       -3.525   2.763   0.068  0.00  0.00    +0.020 A 
ATOM      6  C   LIG    1       -3.134   4.088   0.070  0.00  0.00    +0.010 A 
ATOM      7  C   LIG    1       -1.790   4.420   0.053  0.00  0.00    +0.060 A 
ATOM      8  C   LIG    1       -0.825   3.418   0.033  0.00  0.00    -0.120 A 
ATOM      9  C   LIG    1        0.656   3.482   0.013  0.00  0.00    +0.470 A 
ATOM     10  O   LIG    1        1.331   4.494   0.009  0.00  0.00    -0.470 OA
ATOM     11  C   LIG    1        1.164   2.098   0.002  0.00  0.00    -0.240 A 
ATOM     12  N   LIG    1        2.426   1.725  -0.017  0.00  0.00    -0.100 NA
ENDROOT
BRANCH  12  13
ATOM     13  N   LIG    1        2.728   0.471  -0.024  0.00  0.00    -0.380 NA
BRANCH  13  14
ATOM     14  C   LIG    1        4.066   0.076  -0.043  0.00  0.00    +0.400 A 
ATOM     15  N   LIG    1        4.513  -1.164  -0.058  0.00  0.00    -0.320 NA
ATOM     16  N   LIG    1        5.914  -1.069  -0.076  0.00  0.00    -0.330 N 
ATOM     17  H   LIG    1        6.542  -1.808  -0.089  0.00  0.00    +0.460 HD
ATOM     18  N   LIG    1        6.208   0.187  -0.071  0.00  0.00    -0.020 NA
ATOM     19  N   LIG    1        5.128   0.884  -0.057  0.00  0.00    -0.330 NA
ENDBRANCH  13  14
ENDBRANCH  12  13
TORSDOF 2
ENDMDL
MODEL       57
REMARK  Name = ZINC000001042130
REMARK                            x       y       z     vdW  Elec       q    Type
REMARK                         _______ _______ _______ _____ _____    ______ ____
ROOT
ATOM      1  C   LIG    1        2.113  -4.608   3.448  0.00  0.00    +0.270 A 
ATOM      2  N   LIG    1        2.695  -4.023   4.462  0.00  0.00    -0.320 NA
ATOM      3  N   LIG    1        3.297  -4.798   5.461  0.00  0.00    -0.570 N 
ATOM      4  H   LIG    1        3.728  -4.359   6.211  0.00  0.00    +0.410 HD
ATOM      5  C   LIG    1        3.287  -6.141   5.395  0.00  0.00    +0.640 A 
ATOM      6  N   LIG    1        2.699  -6.783   4.369  0.00  0.00    -0.680 NA
ATOM      7  O   LIG    1        3.819  -6.786   6.279  0.00  0.00    -0.610 OA
ATOM      8  C   LIG    1        2.101  -6.079   3.385  0.00  0.00    +0.500 A 
ATOM      9  O   LIG    1        1.566  -6.652   2.455  0.00  0.00    -0.570 OA
ENDROOT
BRANCH   1  10
ATOM     10  N   LIG    1        1.508  -3.851   2.445  0.00  0.00    -0.700 N 
ATOM     11  H   LIG    1        1.075  -4.293   1.698  0.00  0.00    +0.420 HD
BRANCH  10  12
ATOM     12  C   LIG    1        1.527  -2.388   2.519  0.00  0.00    +0.340 C 
BRANCH  12  13
ATOM     13  C   LIG    1        0.812  -1.815   1.323  0.00  0.00    +0.460 C 
ATOM     14  O   LIG    1        0.335  -2.553   0.493  0.00  0.00    -0.500 OA
BRANCH  13  15
ATOM     15  O   LIG    1        0.704  -0.485   1.178  0.00  0.00    -0.360 OA
BRANCH  15  17
ATOM     16  C   LIG    1       -0.019   1.526   0.010  0.00  0.00    +0.070 C 
ATOM     17  C   LIG    1        0.002  -0.004   0.002  0.00  0.00    +0.200 C 
ENDBRANCH  15  17
ENDBRANCH  13  15
ENDBRANCH  12  13
ENDBRANCH  10  12
ENDBRANCH   1  10
TORSDOF 5
ENDMDL
MODEL       58
REMARK  Name = ZINC000017146007
REMARK                            x       y       z     vdW  Elec       q    Type
REMARK                         _______ _______ _______ _____ _____    ______ ____
ROOT
ATOM      1  C   UNK    1       -2.135   0.949   1.227  0.00  0.00    +0.250 C 
ENDROOT
BRANCH   1   2
ATOM      2  C   UNK    1       -0.699   1.479   1.216  0.00  0.00    +0.100 C 
BRANCH   2   3
ATOM      3  N   UNK    1       -0.012   1.005   0.008  0.00  0.00    -0.610 N 
ATOM      4  H   UNK    1       -0.500   1.339  -0.810  0.00  0.00    +0.430 HD
ATOM      5  H   UNK    1        0.935   1.354   0.000  0.00  0.00    +0.430 HD
ATOM      6  H   UNK    1        0.002  -0.004   0.002  0.00  0.00    +0.420 HD
ENDBRANCH   2   3
BRANCH   2   7
ATOM      7  C   UNK    1       -0.720   2.985   1.224  0.00  0.00    +0.490 C 
ATOM      8  O   UNK    1       -1.079   3.585   2.223  0.00  0.00    -0.630 OA
ATOM      9  O   UNK    1       -0.376   3.605   0.232  0.00  0.00    -0.670 OA
ENDBRANCH   2   7
ENDBRANCH   1   2
BRANCH   1  10
ATOM     10  O   UNK    1       -2.115  -0.499   1.338  0.00  0.00    -0.380 OA
BRANCH  10  11
ATOM     11  C   UNK    1       -3.303  -1.124   1.362  0.00  0.00    +0.460 C 
ATOM     12  O   UNK    1       -4.325  -0.482   1.291  0.00  0.00    -0.500 OA
BRANCH  11  13
ATOM     13  C   UNK    1       -3.362  -2.625   1.476  0.00  0.00    +0.140 C 
BRANCH  13  14
ATOM     14  C   UNK    1       -4.823  -3.079   1.480  0.00  0.00    -0.030 C 
BRANCH  14  15
ATOM     15  C   UNK    1       -4.883  -4.581   1.594  0.00  0.00    +0.490 C 
ATOM     16  O   UNK    1       -5.961  -5.149   1.615  0.00  0.00    -0.700 OA
ATOM     17  O   UNK    1       -3.852  -5.228   1.665  0.00  0.00    -0.700 OA
ENDBRANCH  14  15
ENDBRANCH  13  14
ENDBRANCH  11  13
ENDBRANCH  10  11
ENDBRANCH   1  10
TORSDOF 8
ENDMDL
MODEL       59
REMARK  Name = ZINC000004763081
REMARK                            x       y       z     vdW  Elec       q    Type
REMARK                         _______ _______ _______ _____ _____    ______ ____
ROOT
ATOM      1  C   UNK A  1       -1.414  -2.036   0.129  0.00  0.00    +0.500 C 
ATOM      2  N   ASP A  2       -1.226  -2.617   1.330  0.00  0.00    -0.620 N 
ATOM      3  H   ASP A  2       -1.103  -2.068   2.120  0.00  0.00    +0.390 HD
ATOM      4  O   UNK A  1       -1.567  -2.722  -0.860  0.00  0.00    -0.560 OA
ENDROOT
BRANCH   1   5
ATOM      5  C   UNK A  1       -1.433  -0.534   0.013  0.00  0.00    +0.160 C 
BRANCH   5   6
ATOM      6  N   UNK A  1       -2.107  -0.147  -1.234  0.00  0.00    -0.620 N 
ATOM      7  H   UNK A  1       -3.054  -0.496  -1.227  0.00  0.00    +0.440 HD
ATOM      8  H   UNK A  1       -1.610  -0.539  -2.020  0.00  0.00    +0.440 HD
ATOM      9  H   UNK A  1       -2.120   0.859  -1.311  0.00  0.00    +0.430 HD
ENDBRANCH   5   6
BRANCH   5  11
ATOM     10  C   UNK A  1       -0.019   1.526   0.010  0.00  0.00    +0.040 C 
ATOM     11  C   UNK A  1        0.002  -0.004   0.002  0.00  0.00    +0.070 C 
ENDBRANCH   5  11
ENDBRANCH   1   5
BRANCH   2  12
ATOM     12  CA  ASP A  2       -1.207  -4.078   1.442  0.00  0.00    +0.190 C 
BRANCH  12  13
ATOM     13  C   ASP A  2       -2.618  -4.590   1.577  0.00  0.00    +0.490 C 
ATOM     14  OXT ASP A  2       -2.824  -5.787   1.683  0.00  0.00    -0.690 OA
ATOM     15  O   ASP A  2       -3.553  -3.807   1.578  0.00  0.00    -0.710 OA
ENDBRANCH  12  13
BRANCH  12  16
ATOM     16  CB  ASP A  2       -0.397  -4.484   2.676  0.00  0.00    -0.040 C 
BRANCH  16  17
ATOM     17  CG  ASP A  2        1.042  -4.079   2.487  0.00  0.00    +0.490 C 
ATOM     18  OD2 ASP A  2        1.860  -4.313   3.360  0.00  0.00    -0.710 OA
ATOM     19  OD1 ASP A  2        1.389  -3.518   1.462  0.00  0.00    -0.700 OA
ENDBRANCH  16  17
ENDBRANCH  12  16
ENDBRANCH   2  12
TORSDOF 7
ENDMDL
MODEL       60
REMARK  Name = ZINC000004763075
REMARK                            x       y       z     vdW  Elec       q    Type
REMARK                         _______ _______ _______ _____ _____    ______ ____
ROOT
ATOM      1  C   UNK A  1       -1.416  -2.035  -0.119  0.00  0.00    +0.500 C 
ATOM      2  N   ASP A  2       -1.251  -2.603  -1.330  0.00  0.00    -0.620 N 
ATOM      3  H   ASP A  2       -1.144  -2.046  -2.117  0.00  0.00    +0.390 HD
ATOM      4  O   UNK A  1       -1.550  -2.732   0.864  0.00  0.00    -0.560 OA
ENDROOT
BRANCH   1   5
ATOM      5  C   UNK A  1       -1.433  -0.534   0.013  0.00  0.00    +0.170 C 
BRANCH   5   6
ATOM      6  N   UNK A  1       -2.083  -0.161   1.276  0.00  0.00    -0.620 N 
ATOM      7  H   UNK A  1       -2.095   0.844   1.365  0.00  0.00    +0.430 HD
ATOM      8  H   UNK A  1       -1.571  -0.560   2.049  0.00  0.00    +0.440 HD
ATOM      9  H   UNK A  1       -3.030  -0.510   1.284  0.00  0.00    +0.440 HD
ENDBRANCH   5   6
BRANCH   5  11
ATOM     10  C   UNK A  1       -0.019   1.526   0.010  0.00  0.00    +0.030 C 
ATOM     11  C   UNK A  1        0.002  -0.004   0.002  0.00  0.00    +0.070 C 
ENDBRANCH   5  11
ENDBRANCH   1   5
BRANCH   2  12
ATOM     12  CA  ASP A  2       -1.234  -4.062  -1.459  0.00  0.00    +0.190 C 
BRANCH  12  13
ATOM     13  C   ASP A  2        0.157  -4.574  -1.190  0.00  0.00    +0.490 C 
ATOM     14  OXT ASP A  2        0.388  -5.770  -1.245  0.00  0.00    -0.690 OA
ATOM     15  O   ASP A  2        1.052  -3.792  -0.916  0.00  0.00    -0.700 OA
ENDBRANCH  12  13
BRANCH  12  16
ATOM     16  CB  ASP A  2       -1.657  -4.454  -2.876  0.00  0.00    -0.040 C 
BRANCH  16  17
ATOM     17  CG  ASP A  2       -3.091  -4.051  -3.102  0.00  0.00    +0.490 C 
ATOM     18  OD2 ASP A  2       -3.625  -4.274  -4.175  0.00  0.00    -0.710 OA
ATOM     19  OD1 ASP A  2       -3.717  -3.500  -2.213  0.00  0.00    -0.700 OA
ENDBRANCH  16  17
ENDBRANCH  12  16
ENDBRANCH   2  12
TORSDOF 7
ENDMDL
MODEL       61
REMARK  Name = ZINC000004763089
REMARK                            x       y       z     vdW  Elec       q    Type
REMARK                         _______ _______ _______ _____ _____    ______ ____
ROOT
ATOM      1  C   UNK A  1       -1.414  -2.036   0.129  0.00  0.00    +0.490 C 
ATOM      2  N   ASP A  2       -1.226  -2.617   1.330  0.00  0.00    -0.620 N 
ATOM      3  H   ASP A  2       -1.103  -2.068   2.120  0.00  0.00    +0.390 HD
ATOM      4  O   UNK A  1       -1.567  -2.722  -0.860  0.00  0.00    -0.550 OA
ENDROOT
BRANCH   1   5
ATOM      5  C   UNK A  1       -1.433  -0.534   0.013  0.00  0.00    +0.170 C 
BRANCH   5   6
ATOM      6  N   UNK A  1       -2.107  -0.147  -1.234  0.00  0.00    -0.620 N 
ATOM      7  H   UNK A  1       -3.054  -0.496  -1.227  0.00  0.00    +0.440 HD
ATOM      8  H   UNK A  1       -1.610  -0.539  -2.020  0.00  0.00    +0.440 HD
ATOM      9  H   UNK A  1       -2.120   0.859  -1.311  0.00  0.00    +0.430 HD
ENDBRANCH   5   6
BRANCH   5  11
ATOM     10  C   UNK A  1       -0.019   1.526   0.010  0.00  0.00    +0.030 C 
ATOM     11  C   UNK A  1        0.002  -0.004   0.002  0.00  0.00    +0.070 C 
ENDBRANCH   5  11
ENDBRANCH   1   5
BRANCH   2  12
ATOM     12  CA  ASP A  2       -1.207  -4.078   1.442  0.00  0.00    +0.190 C 
BRANCH  12  13
ATOM     13  C   ASP A  2        0.179  -4.587   1.141  0.00  0.00    +0.490 C 
ATOM     14  OXT ASP A  2        0.330  -5.691   0.647  0.00  0.00    -0.690 OA
ATOM     15  O   ASP A  2        1.151  -3.893   1.391  0.00  0.00    -0.700 OA
ENDBRANCH  12  13
BRANCH  12  16
ATOM     16  CB  ASP A  2       -1.602  -4.485   2.863  0.00  0.00    -0.040 C 
BRANCH  16  17
ATOM     17  CG  ASP A  2       -3.031  -4.084   3.121  0.00  0.00    +0.490 C 
ATOM     18  OD2 ASP A  2       -3.545  -4.319   4.202  0.00  0.00    -0.710 OA
ATOM     19  OD1 ASP A  2       -3.675  -3.524   2.250  0.00  0.00    -0.700 OA
ENDBRANCH  16  17
ENDBRANCH  12  16
ENDBRANCH   2  12
TORSDOF 7
ENDMDL
MODEL       62
REMARK  Name = ZINC000004763084
REMARK                            x       y       z     vdW  Elec       q    Type
REMARK                         _______ _______ _______ _____ _____    ______ ____
ROOT
ATOM      1  C   UNK A  1       -1.416  -2.035  -0.119  0.00  0.00    +0.490 C 
ATOM      2  N   ASP A  2       -1.251  -2.603  -1.330  0.00  0.00    -0.620 N 
ATOM      3  H   ASP A  2       -1.144  -2.046  -2.117  0.00  0.00    +0.390 HD
ATOM      4  O   UNK A  1       -1.550  -2.732   0.864  0.00  0.00    -0.550 OA
ENDROOT
BRANCH   1   5
ATOM      5  C   UNK A  1       -1.433  -0.534   0.013  0.00  0.00    +0.170 C 
BRANCH   5   6
ATOM      6  N   UNK A  1       -2.083  -0.161   1.276  0.00  0.00    -0.620 N 
ATOM      7  H   UNK A  1       -2.095   0.844   1.365  0.00  0.00    +0.430 HD
ATOM      8  H   UNK A  1       -1.571  -0.560   2.049  0.00  0.00    +0.440 HD
ATOM      9  H   UNK A  1       -3.030  -0.510   1.284  0.00  0.00    +0.440 HD
ENDBRANCH   5   6
BRANCH   5  11
ATOM     10  C   UNK A  1       -0.019   1.526   0.010  0.00  0.00    +0.040 C 
ATOM     11  C   UNK A  1        0.002  -0.004   0.002  0.00  0.00    +0.070 C 
ENDBRANCH   5  11
ENDBRANCH   1   5
BRANCH   2  12
ATOM     12  CA  ASP A  2       -1.234  -4.062  -1.459  0.00  0.00    +0.190 C 
BRANCH  12  13
ATOM     13  C   ASP A  2       -2.648  -4.573  -1.571  0.00  0.00    +0.490 C 
ATOM     14  OXT ASP A  2       -2.930  -5.683  -1.153  0.00  0.00    -0.690 OA
ATOM     15  O   ASP A  2       -3.509  -3.876  -2.082  0.00  0.00    -0.710 OA
ENDBRANCH  12  13
BRANCH  12  16
ATOM     16  CB  ASP A  2       -0.449  -4.455  -2.711  0.00  0.00    -0.040 C 
BRANCH  16  17
ATOM     17  CG  ASP A  2        0.994  -4.052  -2.546  0.00  0.00    +0.490 C 
ATOM     18  OD2 ASP A  2        1.796  -4.277  -3.437  0.00  0.00    -0.710 OA
ATOM     19  OD1 ASP A  2        1.360  -3.502  -1.521  0.00  0.00    -0.700 OA
ENDBRANCH  16  17
ENDBRANCH  12  16
ENDBRANCH   2  12
TORSDOF 7
ENDMDL
MODEL       63
REMARK  Name = ZINC000020213407
REMARK                            x       y       z     vdW  Elec       q    Type
REMARK                         _______ _______ _______ _____ _____    ______ ____
ROOT
ATOM      1  S   LIG    1       -2.198  -3.297   0.377  0.00  0.00    +2.730 S 
ATOM      2  O   LIG    1       -2.798  -2.833   1.578  0.00  0.00    -0.970 OA
ATOM      3  O   LIG    1       -1.621  -4.589   0.244  0.00  0.00    -0.960 OA
ENDROOT
BRANCH   1   4
ATOM      4  C   LIG    1       -3.431  -3.173  -0.875  0.00  0.00    -0.760 A 
ATOM      5  C   LIG    1       -4.503  -2.342  -0.860  0.00  0.00    +0.260 A 
ATOM      6  N   LIG    1       -5.220  -2.529  -1.986  0.00  0.00    -0.510 N 
ATOM      7  H   LIG    1       -6.036  -2.059  -2.222  0.00  0.00    +0.420 HD
ATOM      8  CA  LIG    1       -4.604  -3.499  -2.747  0.00  0.00    -0.030 A 
ATOM      9  C   LIG    1       -3.475  -3.907  -2.062  0.00  0.00    +0.070 A 
BRANCH   8  10
ATOM     10  C   LIG    1       -5.057  -3.999  -4.044  0.00  0.00    +0.550 C 
ATOM     11  OXT LIG    1       -4.417  -4.868  -4.623  0.00  0.00    -0.670 OA
ATOM     12  O   LIG    1       -6.078  -3.550  -4.551  0.00  0.00    -0.690 OA
ENDBRANCH   8  10
ENDBRANCH   1   4
BRANCH   1  13
ATOM     13  N   LIG    1       -1.005  -2.212  -0.000  0.00  0.00    -1.110 NA
ATOM     14  H   LIG    1       -0.117  -2.527  -0.228  0.00  0.00    +0.430 HD
BRANCH  13  15
ATOM     15  C   LIG    1       -1.293  -0.775   0.010  0.00  0.00    +0.310 C 
BRANCH  15  19
ATOM     16  N   LIG    1       -0.016   1.344   0.009  0.00  0.00    -0.850 N 
ATOM     17  H   LIG    1       -0.863   1.817   0.016  0.00  0.00    +0.400 HD
ATOM     18  H   LIG    1        0.817   1.840   0.004  0.00  0.00    +0.400 HD
ATOM     19  C   LIG    1        0.002  -0.004   0.002  0.00  0.00    +0.520 C 
ATOM     20  O   LIG    1        1.060  -0.596  -0.011  0.00  0.00    -0.530 OA
ENDBRANCH  15  19
ENDBRANCH  13  15
ENDBRANCH   1  13
TORSDOF 5
ENDMDL
MODEL       64
REMARK  Name = ZINC000004593521
REMARK                            x       y       z     vdW  Elec       q    Type
REMARK                         _______ _______ _______ _____ _____    ______ ____
ROOT
ATOM      1  N   LIG    1       -2.105  -0.148  -1.230  0.00  0.00    -0.600 N 
ATOM      2  C   LIG    1       -1.716  -0.500  -2.462  0.00  0.00    +0.710 C 
ATOM      3  N   LIG    1       -2.498  -0.021  -3.437  0.00  0.00    -0.750 N 
ATOM      4  H   LIG    1       -2.369  -0.173  -4.386  0.00  0.00    +0.420 HD
ATOM      5  C   LIG    1       -3.584   0.773  -2.845  0.00  0.00    +0.460 C 
ATOM      6  N   LIG    1       -3.390   2.194  -3.167  0.00  0.00    -0.740 N 
ATOM      7  H   LIG    1       -3.489   2.588  -4.047  0.00  0.00    +0.430 HD
ATOM      8  C   LIG    1       -3.054   2.859  -2.054  0.00  0.00    +0.710 C 
ATOM      9  N   LIG    1       -2.981   2.089  -0.961  0.00  0.00    -0.740 N 
ATOM     10  H   LIG    1       -2.753   2.398  -0.071  0.00  0.00    +0.430 HD
ATOM     11  O   LIG    1       -2.836   4.055  -2.037  0.00  0.00    -0.590 OA
ATOM     12  O   LIG    1       -0.740  -1.194  -2.676  0.00  0.00    -0.540 OA
ATOM     13  C   LIG    1       -3.316   0.680  -1.321  0.00  0.00    +0.470 C 
ENDROOT
BRANCH   1  14
ATOM     14  C   LIG    1       -1.433  -0.534   0.013  0.00  0.00    +0.190 C 
BRANCH  14  15
ATOM     15  C   LIG    1       -1.414  -2.036   0.129  0.00  0.00    +0.490 C 
ATOM     16  O   LIG    1       -1.746  -2.725  -0.821  0.00  0.00    -0.670 OA
ATOM     17  O   LIG    1       -1.065  -2.563   1.171  0.00  0.00    -0.700 OA
ENDBRANCH  14  15
BRANCH  14  19
ATOM     18  C   LIG    1       -0.019   1.526   0.010  0.00  0.00    +0.010 C 
ATOM     19  C   LIG    1        0.002  -0.004   0.002  0.00  0.00    +0.020 C 
ENDBRANCH  14  19
ENDBRANCH   1  14
TORSDOF 3
ENDMDL
MODEL       65
REMARK  Name = ZINC000014943670
REMARK                            x       y       z     vdW  Elec       q    Type
REMARK                         _______ _______ _______ _____ _____    ______ ____
ROOT
ATOM      1  N   LIG    1       -2.105  -0.148  -1.230  0.00  0.00    -0.600 N 
ATOM      2  C   LIG    1       -1.744  -0.484  -2.505  0.00  0.00    +0.720 C 
ATOM      3  N   LIG    1       -2.376   0.299  -3.443  0.00  0.00    -0.740 N 
ATOM      4  H   LIG    1       -2.474   0.132  -4.393  0.00  0.00    +0.420 HD
ATOM      5  C   LIG    1       -2.847   1.396  -2.702  0.00  0.00    +0.370 C 
ATOM      6  N   LIG    1       -3.750   2.467  -2.748  0.00  0.00    -0.720 N 
ATOM      7  H   LIG    1       -4.170   2.855  -3.532  0.00  0.00    +0.420 HD
ATOM      8  C   LIG    1       -3.910   2.843  -1.438  0.00  0.00    +0.730 C 
ATOM      9  N   LIG    1       -3.419   1.908  -0.572  0.00  0.00    -0.740 N 
ATOM     10  H   LIG    1       -3.208   2.031   0.367  0.00  0.00    +0.430 HD
ATOM     11  O   LIG    1       -4.428   3.886  -1.089  0.00  0.00    -0.560 OA
ATOM     12  O   LIG    1       -0.957  -1.370  -2.777  0.00  0.00    -0.500 OA
ATOM     13  C   LIG    1       -3.310   0.672  -1.369  0.00  0.00    +0.420 C 
ENDROOT
BRANCH   1  14
ATOM     14  C   LIG    1       -1.433  -0.534   0.013  0.00  0.00    +0.190 C 
BRANCH  14  15
ATOM     15  C   LIG    1       -1.414  -2.036   0.129  0.00  0.00    +0.480 C 
ATOM     16  O   LIG    1       -1.746  -2.725  -0.821  0.00  0.00    -0.660 OA
ATOM     17  O   LIG    1       -1.065  -2.563   1.171  0.00  0.00    -0.700 OA
ENDBRANCH  14  15
BRANCH  14  19
ATOM     18  C   LIG    1       -0.019   1.526   0.010  0.00  0.00    +0.010 C 
ATOM     19  C   LIG    1        0.002  -0.004   0.002  0.00  0.00    +0.030 C 
ENDBRANCH  14  19
ENDBRANCH   1  14
TORSDOF 3
ENDMDL
MODEL       66
REMARK  Name = ZINC000004593523
REMARK                            x       y       z     vdW  Elec       q    Type
REMARK                         _______ _______ _______ _____ _____    ______ ____
ROOT
ATOM      1  N   LIG    1       -2.105  -0.148  -1.230  0.00  0.00    -0.600 N 
ATOM      2  C   LIG    1       -1.744  -0.484  -2.505  0.00  0.00    +0.740 C 
ATOM      3  N   LIG    1       -2.755  -0.246  -3.406  0.00  0.00    -0.730 N 
ATOM      4  H   LIG    1       -2.692  -0.181  -4.372  0.00  0.00    +0.420 HD
ATOM      5  C   LIG    1       -3.900  -0.118  -2.602  0.00  0.00    +0.380 C 
ATOM      6  N   LIG    1       -5.220   0.353  -2.608  0.00  0.00    -0.720 N 
ATOM      7  H   LIG    1       -5.778   0.542  -3.378  0.00  0.00    +0.420 HD
ATOM      8  C   LIG    1       -5.546   0.490  -1.282  0.00  0.00    +0.730 C 
ATOM      9  N   LIG    1       -4.446   0.430  -0.474  0.00  0.00    -0.740 N 
ATOM     10  H   LIG    1       -4.429   0.275   0.484  0.00  0.00    +0.430 HD
ATOM     11  O   LIG    1       -6.681   0.646  -0.875  0.00  0.00    -0.560 OA
ATOM     12  O   LIG    1       -0.657  -0.940  -2.806  0.00  0.00    -0.530 OA
ATOM     13  C   LIG    1       -3.310   0.672  -1.369  0.00  0.00    +0.410 C 
ENDROOT
BRANCH   1  14
ATOM     14  C   LIG    1       -1.433  -0.534   0.013  0.00  0.00    +0.190 C 
BRANCH  14  15
ATOM     15  C   LIG    1       -1.414  -2.036   0.129  0.00  0.00    +0.490 C 
ATOM     16  O   LIG    1       -1.746  -2.725  -0.821  0.00  0.00    -0.670 OA
ATOM     17  O   LIG    1       -1.065  -2.563   1.171  0.00  0.00    -0.700 OA
ENDBRANCH  14  15
BRANCH  14  19
ATOM     18  C   LIG    1       -0.019   1.526   0.010  0.00  0.00    +0.010 C 
ATOM     19  C   LIG    1        0.002  -0.004   0.002  0.00  0.00    +0.020 C 
ENDBRANCH  14  19
ENDBRANCH   1  14
TORSDOF 3
ENDMDL
MODEL       67
REMARK  Name = ZINC000100649541
REMARK                            x       y       z     vdW  Elec       q    Type
REMARK                         _______ _______ _______ _____ _____    ______ ____
ROOT
ATOM      1  C   LIG    1        1.460  -3.867  -2.508  0.00  0.00    -0.100 A 
ATOM      2  N   LIG    1        0.890  -4.482  -1.499  0.00  0.00    -0.120 NA
ATOM      3  N   LIG    1        0.862  -5.764  -1.425  0.00  0.00    -0.340 NA
ATOM      4  C   LIG    1        1.402  -6.532  -2.356  0.00  0.00    +0.440 A 
ATOM      5  N   LIG    1        2.014  -5.976  -3.440  0.00  0.00    -0.350 N 
ATOM      6  S   LIG    1        1.329  -8.286  -2.195  0.00  0.00    -0.730 S 
ATOM      7  C   LIG    1        2.051  -4.628  -3.540  0.00  0.00    +0.520 A 
ATOM      8  O   LIG    1        2.588  -4.085  -4.491  0.00  0.00    -0.540 OA
ENDROOT
BRANCH   5   9
ATOM      9  N   LIG    1        2.574  -6.764  -4.406  0.00  0.00    -0.600 N 
ATOM     10  H   LIG    1        2.190  -6.549  -5.314  0.00  0.00    +0.350 HD
ATOM     11  H   LIG    1        2.459  -7.742  -4.186  0.00  0.00    +0.390 HD
ENDBRANCH   5   9
BRANCH   1  12
ATOM     12  C   LIG    1        1.479  -2.361  -2.569  0.00  0.00    +0.220 C 
BRANCH  12  13
ATOM     13  C   LIG    1        0.786  -1.801  -1.353  0.00  0.00    +0.450 C 
ATOM     14  O   LIG    1        0.325  -2.548  -0.523  0.00  0.00    -0.450 OA
BRANCH  13  15
ATOM     15  O   LIG    1        0.682  -0.472  -1.193  0.00  0.00    -0.370 OA
BRANCH  15  17
ATOM     16  C   LIG    1       -0.019   1.526   0.010  0.00  0.00    +0.050 C 
ATOM     17  C   LIG    1        0.002  -0.004   0.002  0.00  0.00    +0.200 C 
ENDBRANCH  15  17
ENDBRANCH  13  15
ENDBRANCH  12  13
ENDBRANCH   1  12
TORSDOF 5
ENDMDL
MODEL       68
REMARK  Name = ZINC000005960801
REMARK                            x       y       z     vdW  Elec       q    Type
REMARK                         _______ _______ _______ _____ _____    ______ ____
ROOT
ATOM      1  N   LIG    1       -2.105  -0.148  -1.230  0.00  0.00    -0.600 N 
ATOM      2  C   LIG    1       -1.716  -0.500  -2.462  0.00  0.00    +0.710 C 
ATOM      3  N   LIG    1       -2.498  -0.021  -3.437  0.00  0.00    -0.750 N 
ATOM      4  H   LIG    1       -2.369  -0.173  -4.386  0.00  0.00    +0.420 HD
ATOM      5  C   LIG    1       -3.584   0.773  -2.845  0.00  0.00    +0.460 C 
ATOM      6  N   LIG    1       -4.864   0.074  -3.027  0.00  0.00    -0.740 N 
ATOM      7  H   LIG    1       -5.321  -0.046  -3.873  0.00  0.00    +0.430 HD
ATOM      8  C   LIG    1       -5.299  -0.369  -1.841  0.00  0.00    +0.710 C 
ATOM      9  N   LIG    1       -4.486  -0.075  -0.819  0.00  0.00    -0.730 N 
ATOM     10  H   LIG    1       -4.641  -0.316   0.108  0.00  0.00    +0.430 HD
ATOM     11  O   LIG    1       -6.339  -0.984  -1.705  0.00  0.00    -0.590 OA
ATOM     12  O   LIG    1       -0.740  -1.193  -2.676  0.00  0.00    -0.540 OA
ATOM     13  C   LIG    1       -3.316   0.680  -1.321  0.00  0.00    +0.450 C 
ENDROOT
BRANCH   1  14
ATOM     14  C   LIG    1       -1.433  -0.534   0.013  0.00  0.00    +0.190 C 
BRANCH  14  15
ATOM     15  C   LIG    1       -1.414  -2.036   0.129  0.00  0.00    +0.490 C 
ATOM     16  O   LIG    1       -1.746  -2.725  -0.821  0.00  0.00    -0.660 OA
ATOM     17  O   LIG    1       -1.065  -2.563   1.171  0.00  0.00    -0.700 OA
ENDBRANCH  14  15
BRANCH  14  19
ATOM     18  C   LIG    1       -0.019   1.526   0.010  0.00  0.00    +0.010 C 
ATOM     19  C   LIG    1        0.002  -0.004   0.002  0.00  0.00    +0.020 C 
ENDBRANCH  14  19
ENDBRANCH   1  14
TORSDOF 3
ENDMDL
MODEL       69
REMARK  Name = ZINC000013545782
REMARK                            x       y       z     vdW  Elec       q    Type
REMARK                         _______ _______ _______ _____ _____    ______ ____
ROOT
ATOM      1  C   LIG    1       -2.053  -3.133   0.005  0.00  0.00    +0.290 A 
ATOM      2  N   LIG    1       -3.296  -2.725   0.013  0.00  0.00    -0.330 NA
ATOM      3  N   LIG    1       -4.336  -3.662   0.018  0.00  0.00    -0.510 N 
ATOM      4  H   LIG    1       -5.256  -3.355   0.024  0.00  0.00    +0.430 HD
ATOM      5  C   LIG    1       -4.078  -4.982   0.014  0.00  0.00    +0.520 A 
ATOM      6  N   LIG    1       -2.814  -5.444   0.005  0.00  0.00    -0.610 NA
ATOM      7  S   LIG    1       -5.380  -6.094   0.020  0.00  0.00    -0.720 S 
ATOM      8  C   LIG    1       -1.778  -4.579  -0.006  0.00  0.00    +0.490 A 
ATOM      9  O   LIG    1       -0.633  -4.989  -0.014  0.00  0.00    -0.530 OA
ENDROOT
BRANCH   1  10
ATOM     10  N   LIG    1       -1.005  -2.212  -0.000  0.00  0.00    -0.690 N 
ATOM     11  H   LIG    1       -0.087  -2.523  -0.011  0.00  0.00    +0.430 HD
BRANCH  10  12
ATOM     12  C   LIG    1       -1.293  -0.775   0.010  0.00  0.00    +0.290 C 
BRANCH  12  16
ATOM     13  N   LIG    1       -0.016   1.344   0.009  0.00  0.00    -0.850 N 
ATOM     14  H   LIG    1       -0.863   1.817   0.016  0.00  0.00    +0.400 HD
ATOM     15  H   LIG    1        0.817   1.840   0.004  0.00  0.00    +0.400 HD
ATOM     16  C   LIG    1        0.002  -0.004   0.002  0.00  0.00    +0.510 C 
ATOM     17  O   LIG    1        1.060  -0.596  -0.011  0.00  0.00    -0.530 OA
ENDBRANCH  12  16
ENDBRANCH  10  12
ENDBRANCH   1  10
TORSDOF 3
ENDMDL
MODEL       70
REMARK  Name = ZINC000032627252
REMARK                            x       y       z     vdW  Elec       q    Type
REMARK                         _______ _______ _______ _____ _____    ______ ____
ROOT
ATOM      1  S   LIG    1        0.043  -3.505  -1.711  0.00  0.00    +2.720 S 
ATOM      2  O   LIG    1       -0.512  -3.103  -2.956  0.00  0.00    -0.980 OA
ATOM      3  O   LIG    1       -0.484  -4.571  -0.934  0.00  0.00    -0.970 OA
ENDROOT
BRANCH   1   7
ATOM      4  C   LIG    1       -0.018   1.461   0.010  0.00  0.00    +0.350 C 
ATOM      5  N   LIG    1        0.002  -0.004   0.002  0.00  0.00    -0.370 N 
ATOM      6  C   LIG    1        0.008  -0.792  -1.094  0.00  0.00    +0.370 A 
ATOM      7  C   LIG    1        0.027  -2.079  -0.676  0.00  0.00    -0.810 A 
ATOM      8  C   LIG    1        0.034  -2.078   0.723  0.00  0.00    +0.340 A 
ATOM      9  N   LIG    1        0.025  -0.834   1.130  0.00  0.00    -0.300 NA
ENDBRANCH   1   7
BRANCH   1  10
ATOM     10  N   LIG    1        1.629  -3.880  -2.006  0.00  0.00    -1.090 NA
ATOM     11  H   LIG    1        1.982  -3.818  -2.906  0.00  0.00    +0.420 HD
BRANCH  10  12
ATOM     12  C   LIG    1        2.497  -4.304  -0.905  0.00  0.00    +0.190 C 
BRANCH  12  13
ATOM     13  C   LIG    1        3.749  -4.929  -1.465  0.00  0.00    +0.500 C 
ATOM     14  O   LIG    1        4.609  -5.352  -0.712  0.00  0.00    -0.690 OA
ATOM     15  O   LIG    1        3.901  -5.012  -2.672  0.00  0.00    -0.690 OA
ENDBRANCH  12  13
ENDBRANCH  10  12
ENDBRANCH   1  10
TORSDOF 4
ENDMDL
MODEL       71
REMARK  Name = ZINC000002473610
REMARK                            x       y       z     vdW  Elec       q    Type
REMARK                         _______ _______ _______ _____ _____    ______ ____
ROOT
ATOM      1  C   LIG    1       -2.543  -3.279   0.009  0.00  0.00    -0.010 A 
ATOM      2  N   LIG    1       -3.613  -2.526   0.018  0.00  0.00    -0.240 NA
ATOM      3  N   LIG    1       -4.881  -3.118   0.027  0.00  0.00    -0.580 N 
ATOM      4  H   LIG    1       -5.671  -2.556   0.034  0.00  0.00    +0.410 HD
ATOM      5  C   LIG    1       -5.020  -4.456   0.026  0.00  0.00    +0.640 A 
ATOM      6  N   LIG    1       -3.946  -5.267   0.017  0.00  0.00    -0.680 NA
ATOM      7  O   LIG    1       -6.135  -4.941   0.034  0.00  0.00    -0.610 OA
ATOM      8  C   LIG    1       -2.703  -4.743   0.002  0.00  0.00    +0.510 A 
ATOM      9  O   LIG    1       -1.727  -5.470  -0.006  0.00  0.00    -0.550 OA
ENDROOT
BRANCH   1  10
ATOM     10  S   LIG    1       -0.937  -2.554  -0.003  0.00  0.00    +0.070 S 
BRANCH  10  11
ATOM     11  C   LIG    1       -1.293  -0.775   0.010  0.00  0.00    +0.070 C 
BRANCH  11  15
ATOM     12  N   LIG    1       -0.016   1.344   0.009  0.00  0.00    -0.850 N 
ATOM     13  H   LIG    1       -0.863   1.817   0.016  0.00  0.00    +0.400 HD
ATOM     14  H   LIG    1        0.817   1.840   0.004  0.00  0.00    +0.400 HD
ATOM     15  C   LIG    1        0.002  -0.004   0.002  0.00  0.00    +0.540 C 
ATOM     16  O   LIG    1        1.060  -0.596  -0.011  0.00  0.00    -0.520 OA
ENDBRANCH  11  15
ENDBRANCH  10  11
ENDBRANCH   1  10
TORSDOF 3
ENDMDL
MODEL       72
REMARK  Name = ZINC000088346543
REMARK                            x       y       z     vdW  Elec       q    Type
REMARK                         _______ _______ _______ _____ _____    ______ ____
ROOT
ATOM      1  O   LIG    1        0.002  -0.004   0.002  0.00  0.00    -0.570 OA
ATOM      2  C   LIG    1       -0.014   1.211   0.009  0.00  0.00    +0.620 C 
ATOM      3  N   LIG    1        1.143   1.901   0.001  0.00  0.00    -0.720 N 
ATOM      4  H   LIG    1        1.130   2.871   0.007  0.00  0.00    +0.410 HD
ENDROOT
BRANCH   2   5
ATOM      5  C   LIG    1       -1.304   1.933   0.019  0.00  0.00    -0.170 A 
ATOM      6  N   LIG    1       -1.489   3.244   0.021  0.00  0.00    -0.330 NA
ATOM      7  N   LIG    1       -2.753   3.479   0.030  0.00  0.00    -0.190 NA
ATOM      8  N   LIG    1       -3.427   2.385   0.035  0.00  0.00    -0.370 NA
ATOM      9  C   LIG    1       -2.596   1.370   0.022  0.00  0.00    +0.080 A 
ENDBRANCH   2   5
BRANCH   3  10
ATOM     10  C   LIG    1        2.422   1.186  -0.015  0.00  0.00    +0.280 C 
BRANCH  10  11
ATOM     11  C   LIG    1        3.571   2.196  -0.020  0.00  0.00    +0.120 C 
ATOM     12  C   LIG    1        4.908   1.450  -0.040  0.00  0.00    +0.210 C 
ATOM     13  O   LIG    1        5.973   2.398  -0.158  0.00  0.00    -0.380 OA
ATOM     14  C   LIG    1        5.879   3.223  -1.323  0.00  0.00    +0.180 C 
ATOM     15  C   LIG    1        4.542   3.969  -1.303  0.00  0.00    +0.190 C 
ATOM     16  O   LIG    1        3.476   3.022  -1.184  0.00  0.00    -0.370 OA
ENDBRANCH  10  11
ENDBRANCH   3  10
TORSDOF 3
ENDMDL
MODEL       73
REMARK  Name = ZINC000000139197
REMARK                            x       y       z     vdW  Elec       q    Type
REMARK                         _______ _______ _______ _____ _____    ______ ____
ROOT
ATOM      1  N   LIG    1        1.508  -3.851   2.445  0.00  0.00    -0.690 N 
ATOM      2  H   LIG    1        0.809  -4.303   1.946  0.00  0.00    +0.420 HD
ENDROOT
BRANCH   1   3
ATOM      3  C   LIG    1        2.495  -4.595   3.091  0.00  0.00    +0.280 A 
ATOM      4  N   LIG    1        3.439  -3.998   3.771  0.00  0.00    -0.320 NA
ATOM      5  N   LIG    1        4.422  -4.759   4.415  0.00  0.00    -0.570 N 
ATOM      6  H   LIG    1        5.120  -4.312   4.917  0.00  0.00    +0.410 HD
ATOM      7  C   LIG    1        4.412  -6.102   4.346  0.00  0.00    +0.640 A 
ATOM      8  N   LIG    1        3.459  -6.757   3.657  0.00  0.00    -0.680 NA
ATOM      9  O   LIG    1        5.280  -6.736   4.915  0.00  0.00    -0.610 OA
ATOM     10  C   LIG    1        2.487  -6.066   3.025  0.00  0.00    +0.500 A 
ATOM     11  O   LIG    1        1.621  -6.651   2.401  0.00  0.00    -0.570 OA
ENDBRANCH   1   3
BRANCH   1  12
ATOM     12  C   LIG    1        1.527  -2.388   2.519  0.00  0.00    +0.290 C 
ATOM     13  C   LIG    1        0.825  -1.933   3.799  0.00  0.00    +0.050 C 
BRANCH  12  14
ATOM     14  C   LIG    1        0.812  -1.815   1.323  0.00  0.00    +0.460 C 
ATOM     15  O   LIG    1        0.335  -2.553   0.493  0.00  0.00    -0.500 OA
BRANCH  14  16
ATOM     16  O   LIG    1        0.704  -0.485   1.178  0.00  0.00    -0.350 OA
BRANCH  16  18
ATOM     17  C   LIG    1       -0.019   1.526   0.010  0.00  0.00    +0.070 C 
ATOM     18  C   LIG    1        0.002  -0.004   0.002  0.00  0.00    +0.200 C 
ENDBRANCH  16  18
ENDBRANCH  14  16
ENDBRANCH  12  14
ENDBRANCH   1  12
TORSDOF 5
ENDMDL
MODEL       74
REMARK  Name = ZINC000004556685
REMARK                            x       y       z     vdW  Elec       q    Type
REMARK                         _______ _______ _______ _____ _____    ______ ____
ROOT
ATOM      1  C   LEU A  1       -2.814  -2.572  -0.234  0.00  0.00    +0.470 C 
ATOM      2  N   SER A  2       -3.318  -2.603  -1.484  0.00  0.00    -0.690 N 
ATOM      3  H   SER A  2       -2.781  -2.294  -2.230  0.00  0.00    +0.400 HD
ATOM      4  O   LEU A  1       -3.485  -2.958   0.700  0.00  0.00    -0.560 OA
ENDROOT
BRANCH   1   5
ATOM      5  CA  LEU A  1       -1.417  -2.058   0.003  0.00  0.00    +0.180 C 
BRANCH   5   6
ATOM      6  N   LEU A  1       -0.927  -2.550   1.297  0.00  0.00    -0.820 NA
ATOM      7  H1  LEU A  1       -0.847  -3.556   1.294  0.00  0.00    +0.340 HD
ATOM      8  H2  LEU A  1       -1.519  -2.237   2.051  0.00  0.00    +0.350 HD
ENDBRANCH   5   6
BRANCH   5   9
ATOM      9  CB  LEU A  1       -1.432  -0.528   0.012  0.00  0.00    +0.050 C 
BRANCH   9  11
ATOM     10  CD1 LEU A  1        0.799  -0.377  -1.102  0.00  0.00    +0.000 C 
ATOM     11  CG  LEU A  1       -0.000  -0.005   0.148  0.00  0.00    -0.010 C 
ATOM     12  CD2 LEU A  1       -0.026   1.517   0.303  0.00  0.00    +0.000 C 
ENDBRANCH   9  11
ENDBRANCH   5   9
ENDBRANCH   1   5
BRANCH   2  13
ATOM     13  CA  SER A  2       -4.675  -3.102  -1.714  0.00  0.00    +0.160 C 
BRANCH  13  14
ATOM     14  C   SER A  2       -5.665  -1.987  -1.498  0.00  0.00    +0.500 C 
ATOM     15  OXT SER A  2       -6.790  -2.238  -1.099  0.00  0.00    -0.700 OA
ATOM     16  O   SER A  2       -5.341  -0.833  -1.721  0.00  0.00    -0.680 OA
ENDBRANCH  13  14
BRANCH  13  17
ATOM     17  CB  SER A  2       -4.793  -3.617  -3.150  0.00  0.00    +0.190 C 
BRANCH  17  18
ATOM     18  OG  SER A  2       -4.631  -2.528  -4.061  0.00  0.00    -0.550 OA
ATOM     19  H   SER A  2       -4.694  -2.781  -4.992  0.00  0.00    +0.360 HD
ENDBRANCH  17  18
ENDBRANCH  13  17
ENDBRANCH   2  13
TORSDOF 8
ENDMDL
MODEL       75
REMARK  Name = ZINC000002528807
REMARK                            x       y       z     vdW  Elec       q    Type
REMARK                         _______ _______ _______ _____ _____    ______ ____
ROOT
ATOM      1  N   LIG    1       -0.016   1.343   0.014  0.00  0.00    -0.870 N 
ATOM      2  H   LIG    1       -0.862   1.817   0.024  0.00  0.00    +0.400 HD
ATOM      3  H   LIG    1        0.818   1.840   0.008  0.00  0.00    +0.410 HD
ATOM      4  C   LIG    1        0.002  -0.004   0.002  0.00  0.00    +0.710 C 
ATOM      5  N   LIG    1       -1.150  -0.694   0.111  0.00  0.00    -0.630 N 
ATOM      6  C   LIG    1       -2.443   0.005   0.122  0.00  0.00    +0.260 C 
ATOM      7  C   LIG    1       -3.325  -0.577  -0.989  0.00  0.00    +0.260 C 
ATOM      8  N   LIG    1       -3.312  -2.042  -0.880  0.00  0.00    -0.630 N 
ATOM      9  C   LIG    1       -2.019  -2.742  -0.891  0.00  0.00    +0.270 C 
ATOM     10  C   LIG    1       -4.464  -2.733  -0.772  0.00  0.00    +0.510 C 
ATOM     11  O   LIG    1       -5.525  -2.145  -0.764  0.00  0.00    -0.480 OA
ATOM     12  C   LIG    1       -1.137  -2.160   0.214  0.00  0.00    +0.280 C 
ATOM     13  O   LIG    1        1.058  -0.597  -0.107  0.00  0.00    -0.600 OA
ENDROOT
BRANCH  10  14
ATOM     14  C   LIG    1       -4.435  -4.235  -0.661  0.00  0.00    -0.030 C 
BRANCH  14  15
ATOM     15  C   LIG    1       -5.844  -4.758  -0.552  0.00  0.00    +0.490 C 
ATOM     16  O   LIG    1       -6.043  -5.957  -0.453  0.00  0.00    -0.710 OA
ATOM     17  O   LIG    1       -6.785  -3.983  -0.564  0.00  0.00    -0.660 OA
ENDBRANCH  14  15
ENDBRANCH  10  14
TORSDOF 2
ENDMDL
MODEL       76
REMARK  Name = ZINC000019470860
REMARK                            x       y       z     vdW  Elec       q    Type
REMARK                         _______ _______ _______ _____ _____    ______ ____
ROOT
ATOM      1  C   LIG    1       -1.330   1.951   0.019  0.00  0.00    -0.100 C 
ATOM      2  C   LIG    1       -1.430   2.835  -1.226  0.00  0.00    +0.030 C 
ATOM      3  C   LIG    1       -2.751   3.608  -1.200  0.00  0.00    +0.000 C 
ATOM      4  C   LIG    1       -3.918   2.616  -1.216  0.00  0.00    +0.250 C 
ATOM      5  N   LIG    1       -3.750   1.670  -0.105  0.00  0.00    -0.600 N 
ATOM      6  C   LIG    1       -4.742   1.474   0.786  0.00  0.00    +0.500 C 
ATOM      7  O   LIG    1       -4.592   0.691   1.700  0.00  0.00    -0.510 OA
ATOM      8  C   LIG    1       -2.481   0.940   0.017  0.00  0.00    +0.310 C 
ENDROOT
BRANCH   1  10
ATOM      9  O   LIG    1        0.002  -0.004   0.002  0.00  0.00    -0.690 OA
ATOM     10  C   LIG    1       -0.015   1.215   0.009  0.00  0.00    +0.500 C 
ATOM     11  O   LIG    1        1.033   1.839   0.002  0.00  0.00    -0.700 OA
ENDBRANCH   1  10
BRANCH   6  12
ATOM     12  C   LIG    1       -6.039   2.230   0.648  0.00  0.00    +0.370 C 
BRANCH  12  13
ATOM     13  N   LIG    1       -6.947   1.844   1.731  0.00  0.00    -0.300 N 
ATOM     14  C   LIG    1       -7.551   2.674   2.602  0.00  0.00    +0.390 A 
ATOM     15  N   LIG    1       -8.271   1.923   3.399  0.00  0.00    -0.310 NA
ATOM     16  N   LIG    1       -8.117   0.696   3.038  0.00  0.00    -0.080 NA
ATOM     17  N   LIG    1       -7.322   0.645   2.026  0.00  0.00    -0.060 NA
ENDBRANCH  12  13
ENDBRANCH   6  12
TORSDOF 3
ENDMDL
MODEL       77
REMARK  Name = ZINC000019470858
REMARK                            x       y       z     vdW  Elec       q    Type
REMARK                         _______ _______ _______ _____ _____    ______ ____
ROOT
ATOM      1  C   LIG    1       -1.330   1.951   0.019  0.00  0.00    -0.100 C 
ATOM      2  C   LIG    1       -1.071   3.459   0.028  0.00  0.00    +0.040 C 
ATOM      3  C   LIG    1       -2.406   4.207   0.005  0.00  0.00    -0.010 C 
ATOM      4  C   LIG    1       -3.210   3.847   1.258  0.00  0.00    +0.250 C 
ATOM      5  N   LIG    1       -3.339   2.386   1.334  0.00  0.00    -0.600 N 
ATOM      6  C   LIG    1       -4.550   1.809   1.457  0.00  0.00    +0.500 C 
ATOM      7  O   LIG    1       -4.643   0.601   1.519  0.00  0.00    -0.510 OA
ATOM      8  C   LIG    1       -2.122   1.565   1.272  0.00  0.00    +0.310 C 
ENDROOT
BRANCH   1  10
ATOM      9  O   LIG    1        0.002  -0.004   0.002  0.00  0.00    -0.690 OA
ATOM     10  C   LIG    1       -0.015   1.215   0.009  0.00  0.00    +0.500 C 
ATOM     11  O   LIG    1        1.033   1.839   0.002  0.00  0.00    -0.690 OA
ENDBRANCH   1  10
BRANCH   6  12
ATOM     12  C   LIG    1       -5.790   2.664   1.519  0.00  0.00    +0.370 C 
BRANCH  12  13
ATOM     13  N   LIG    1       -6.969   1.805   1.652  0.00  0.00    -0.300 N 
ATOM     14  C   LIG    1       -7.910   1.883   2.612  0.00  0.00    +0.390 A 
ATOM     15  N   LIG    1       -8.781   0.936   2.361  0.00  0.00    -0.310 NA
ATOM     16  N   LIG    1       -8.397   0.311   1.303  0.00  0.00    -0.080 NA
ATOM     17  N   LIG    1       -7.305   0.837   0.869  0.00  0.00    -0.060 NA
ENDBRANCH  12  13
ENDBRANCH   6  12
TORSDOF 3
ENDMDL
MODEL       78
REMARK  Name = ZINC000003394329
REMARK                            x       y       z     vdW  Elec       q    Type
REMARK                         _______ _______ _______ _____ _____    ______ ____
ROOT
ATOM      1  C   UNK A  1       -3.986  -4.748   0.015  0.00  0.00    +0.030 C 
ENDROOT
BRANCH   1   2
ATOM      2  C   UNK A  1       -2.551  -4.218   0.004  0.00  0.00    +0.020 C 
BRANCH   2   3
ATOM      3  C   UNK A  1       -2.571  -2.688   0.012  0.00  0.00    +0.010 C 
BRANCH   3   4
ATOM      4  C   UNK A  1       -1.136  -2.159   0.001  0.00  0.00    +0.280 C 
BRANCH   4   9
ATOM      5  N   UNK A  1       -0.016   1.344   0.009  0.00  0.00    -0.870 N 
ATOM      6  H   UNK A  1       -0.863   1.817   0.016  0.00  0.00    +0.400 HD
ATOM      7  H   UNK A  1        0.817   1.840   0.004  0.00  0.00    +0.410 HD
ATOM      8  C   UNK A  1        0.002  -0.004   0.002  0.00  0.00    +0.700 C 
ATOM      9  N   UNK A  1       -1.156  -0.694   0.009  0.00  0.00    -0.740 N 
ATOM     10  H   UNK A  1       -2.002  -0.220   0.020  0.00  0.00    +0.400 HD
ATOM     11  O   UNK A  1        1.063  -0.598  -0.011  0.00  0.00    -0.600 OA
ENDBRANCH   4   9
ENDBRANCH   3   4
ENDBRANCH   2   3
ENDBRANCH   1   2
BRANCH   1  12
ATOM     12  C   UNK A  1       -3.965  -6.277   0.006  0.00  0.00    +0.170 C 
BRANCH  12  13
ATOM     13  N   UNK A  1       -3.387  -6.751  -1.254  0.00  0.00    -0.710 N 
ATOM     14  H   UNK A  1       -3.423  -6.191  -2.045  0.00  0.00    +0.390 HD
ATOM     15  C   UNK A  0       -2.804  -7.965  -1.314  0.00  0.00    +0.710 C 
ATOM     16  O   UNK A  0       -2.759  -8.667  -0.322  0.00  0.00    -0.600 OA
ATOM     17  N   UNK A  0       -2.272  -8.401  -2.473  0.00  0.00    -0.880 N 
ATOM     18  H   UNK A  0       -1.853  -9.274  -2.516  0.00  0.00    +0.410 HD
ATOM     19  H   UNK A  0       -2.309  -7.841  -3.264  0.00  0.00    +0.390 HD
ENDBRANCH  12  13
BRANCH  12  20
ATOM     20  C   UNK A  1       -5.372  -6.800   0.141  0.00  0.00    +0.490 C 
ATOM     21  O   UNK A  1       -5.970  -6.676   1.196  0.00  0.00    -0.700 OA
ATOM     22  O   UNK A  1       -5.913  -7.346  -0.806  0.00  0.00    -0.690 OA
ENDBRANCH  12  20
ENDBRANCH   1  12
TORSDOF 7
ENDMDL
MODEL       79
REMARK  Name = ZINC000003394332
REMARK                            x       y       z     vdW  Elec       q    Type
REMARK                         _______ _______ _______ _____ _____    ______ ____
ROOT
ATOM      1  C   UNK A  1       -3.986  -4.748   0.015  0.00  0.00    +0.030 C 
ENDROOT
BRANCH   1   2
ATOM      2  C   UNK A  1       -2.551  -4.218   0.004  0.00  0.00    +0.020 C 
BRANCH   2   3
ATOM      3  C   UNK A  1       -2.571  -2.688   0.012  0.00  0.00    +0.010 C 
BRANCH   3   4
ATOM      4  C   UNK A  1       -1.136  -2.159   0.001  0.00  0.00    +0.280 C 
BRANCH   4   9
ATOM      5  N   UNK A  1       -0.016   1.344   0.009  0.00  0.00    -0.870 N 
ATOM      6  H   UNK A  1       -0.863   1.817   0.016  0.00  0.00    +0.400 HD
ATOM      7  H   UNK A  1        0.817   1.840   0.004  0.00  0.00    +0.410 HD
ATOM      8  C   UNK A  1        0.002  -0.004   0.002  0.00  0.00    +0.700 C 
ATOM      9  N   UNK A  1       -1.156  -0.694   0.009  0.00  0.00    -0.740 N 
ATOM     10  H   UNK A  1       -2.002  -0.220   0.020  0.00  0.00    +0.400 HD
ATOM     11  O   UNK A  1        1.063  -0.598  -0.011  0.00  0.00    -0.600 OA
ENDBRANCH   4   9
ENDBRANCH   3   4
ENDBRANCH   2   3
ENDBRANCH   1   2
BRANCH   1  12
ATOM     12  C   UNK A  1       -3.965  -6.277   0.006  0.00  0.00    +0.170 C 
BRANCH  12  13
ATOM     13  N   UNK A  1       -3.363  -6.764   1.250  0.00  0.00    -0.710 N 
ATOM     14  H   UNK A  1       -3.384  -6.213   2.047  0.00  0.00    +0.390 HD
ATOM     15  C   UNK A  0       -2.780  -7.979   1.285  0.00  0.00    +0.700 C 
ATOM     16  O   UNK A  0       -2.753  -8.670   0.285  0.00  0.00    -0.600 OA
ATOM     17  N   UNK A  0       -2.225  -8.427   2.429  0.00  0.00    -0.880 N 
ATOM     18  H   UNK A  0       -1.806  -9.301   2.455  0.00  0.00    +0.410 HD
ATOM     19  H   UNK A  0       -2.247  -7.875   3.227  0.00  0.00    +0.390 HD
ENDBRANCH  12  13
BRANCH  12  20
ATOM     20  C   UNK A  1       -5.375  -6.798  -0.107  0.00  0.00    +0.490 C 
ATOM     21  O   UNK A  1       -6.027  -7.016   0.900  0.00  0.00    -0.690 OA
ATOM     22  O   UNK A  1       -5.863  -7.002  -1.205  0.00  0.00    -0.700 OA
ENDBRANCH  12  20
ENDBRANCH   1  12
TORSDOF 7
ENDMDL
MODEL       80
REMARK  Name = ZINC000002127851
REMARK                            x       y       z     vdW  Elec       q    Type
REMARK                         _______ _______ _______ _____ _____    ______ ____
ROOT
ATOM      1  N   LIG    1        1.385  -4.154   2.227  0.00  0.00    -0.710 N 
ATOM      2  H   LIG    1        0.964  -4.641   1.501  0.00  0.00    +0.410 HD
ENDROOT
BRANCH   1   3
ATOM      3  C   LIG    1        2.008  -4.849   3.263  0.00  0.00    +0.270 A 
ATOM      4  N   LIG    1        2.573  -4.203   4.250  0.00  0.00    -0.320 NA
ATOM      5  N   LIG    1        3.194  -4.915   5.283  0.00  0.00    -0.580 N 
ATOM      6  H   LIG    1        3.612  -4.432   6.013  0.00  0.00    +0.410 HD
ATOM      7  C   LIG    1        3.220  -6.260   5.278  0.00  0.00    +0.640 A 
ATOM      8  N   LIG    1        2.650  -6.963   4.282  0.00  0.00    -0.690 NA
ATOM      9  O   LIG    1        3.767  -6.851   6.190  0.00  0.00    -0.610 OA
ATOM     10  C   LIG    1        2.035  -6.321   3.267  0.00  0.00    +0.500 A 
ATOM     11  O   LIG    1        1.517  -6.949   2.363  0.00  0.00    -0.580 OA
ENDBRANCH   1   3
BRANCH   1  12
ATOM     12  C   LIG    1        1.365  -2.689   2.235  0.00  0.00    +0.290 C 
BRANCH  12  13
ATOM     13  C   LIG    1        0.625  -2.182   0.995  0.00  0.00    +0.050 C 
BRANCH  13  17
ATOM     14  C   LIG    1       -0.018   1.461   0.010  0.00  0.00    +0.280 C 
ATOM     15  N   LIG    1        0.002  -0.004   0.002  0.00  0.00    -0.740 N 
ATOM     16  H   LIG    1       -0.418  -0.491  -0.724  0.00  0.00    +0.400 HD
ATOM     17  C   LIG    1        0.604  -0.675   1.004  0.00  0.00    +0.520 C 
ATOM     18  O   LIG    1        1.130  -0.067   1.911  0.00  0.00    -0.530 OA
ENDBRANCH  13  17
ENDBRANCH  12  13
ENDBRANCH   1  12
TORSDOF 4
ENDMDL
MODEL       81
REMARK  Name = ZINC000000139199
REMARK                            x       y       z     vdW  Elec       q    Type
REMARK                         _______ _______ _______ _____ _____    ______ ____
ROOT
ATOM      1  N   LIG    1        1.508  -3.851   2.445  0.00  0.00    -0.690 N 
ATOM      2  H   LIG    1        1.421  -4.292   1.585  0.00  0.00    +0.420 HD
ENDROOT
BRANCH   1   3
ATOM      3  C   LIG    1        1.616  -4.610   3.610  0.00  0.00    +0.280 A 
ATOM      4  N   LIG    1        1.729  -4.026   4.775  0.00  0.00    -0.320 NA
ATOM      5  N   LIG    1        1.835  -4.803   5.935  0.00  0.00    -0.570 N 
ATOM      6  H   LIG    1        1.919  -4.365   6.797  0.00  0.00    +0.410 HD
ATOM      7  C   LIG    1        1.824  -6.146   5.872  0.00  0.00    +0.640 A 
ATOM      8  N   LIG    1        1.709  -6.786   4.694  0.00  0.00    -0.680 NA
ATOM      9  O   LIG    1        1.918  -6.793   6.898  0.00  0.00    -0.610 OA
ATOM     10  C   LIG    1        1.598  -6.081   3.549  0.00  0.00    +0.500 A 
ATOM     11  O   LIG    1        1.493  -6.653   2.480  0.00  0.00    -0.570 OA
ENDBRANCH   1   3
BRANCH   1  12
ATOM     12  C   LIG    1        1.527  -2.388   2.519  0.00  0.00    +0.290 C 
ATOM     13  C   LIG    1        2.976  -1.897   2.530  0.00  0.00    +0.050 C 
BRANCH  12  14
ATOM     14  C   LIG    1        0.812  -1.815   1.323  0.00  0.00    +0.460 C 
ATOM     15  O   LIG    1        0.335  -2.553   0.493  0.00  0.00    -0.500 OA
BRANCH  14  16
ATOM     16  O   LIG    1        0.704  -0.485   1.178  0.00  0.00    -0.350 OA
BRANCH  16  18
ATOM     17  C   LIG    1       -0.019   1.526   0.010  0.00  0.00    +0.070 C 
ATOM     18  C   LIG    1        0.002  -0.004   0.002  0.00  0.00    +0.200 C 
ENDBRANCH  16  18
ENDBRANCH  14  16
ENDBRANCH  12  14
ENDBRANCH   1  12
TORSDOF 5
ENDMDL
MODEL       82
REMARK  Name = ZINC000262600245
REMARK                            x       y       z     vdW  Elec       q    Type
REMARK                         _______ _______ _______ _____ _____    ______ ____
ROOT
ATOM      1  C   LIG    1       -1.293  -0.775   0.010  0.00  0.00    +0.150 C 
ATOM      2  C   LIG    1       -2.031  -0.522   1.329  0.00  0.00    +0.270 C 
ATOM      3  N   LIG    1       -3.191  -1.425   1.393  0.00  0.00    -0.630 N 
ATOM      4  C   LIG    1       -2.968  -2.857   1.136  0.00  0.00    +0.250 C 
ATOM      5  C   LIG    1       -2.184  -2.996  -0.174  0.00  0.00    +0.220 C 
ATOM      6  C   LIG    1       -4.422  -0.955   1.678  0.00  0.00    +0.530 C 
ATOM      7  O   LIG    1       -4.585   0.229   1.887  0.00  0.00    -0.460 OA
ATOM      8  O   LIG    1       -1.017  -2.172  -0.115  0.00  0.00    -0.350 OA
ENDROOT
BRANCH   1  12
ATOM      9  N   LIG    1       -0.016   1.344   0.009  0.00  0.00    -0.850 N 
ATOM     10  H   LIG    1       -0.863   1.817   0.016  0.00  0.00    +0.410 HD
ATOM     11  H   LIG    1        0.817   1.840   0.004  0.00  0.00    +0.410 HD
ATOM     12  C   LIG    1        0.002  -0.004   0.002  0.00  0.00    +0.530 C 
ATOM     13  O   LIG    1        1.060  -0.596  -0.011  0.00  0.00    -0.520 OA
ENDBRANCH   1  12
BRANCH   6  14
ATOM     14  C   LIG    1       -5.594  -1.899   1.737  0.00  0.00    -0.080 C 
ATOM     15  C   LIG    1       -6.228  -2.154   3.106  0.00  0.00    +0.040 C 
ATOM     16  C   LIG    1       -6.965  -1.305   2.068  0.00  0.00    -0.070 C 
BRANCH  16  17
ATOM     17  C   LIG    1       -7.039   0.181   2.310  0.00  0.00    +0.530 C 
ATOM     18  O   LIG    1       -6.705   0.959   1.433  0.00  0.00    -0.670 OA
ATOM     19  O   LIG    1       -7.434   0.604   3.383  0.00  0.00    -0.700 OA
ENDBRANCH  16  17
ENDBRANCH   6  14
TORSDOF 3
ENDMDL
MODEL       83
REMARK  Name = ZINC000262600216
REMARK                            x       y       z     vdW  Elec       q    Type
REMARK                         _______ _______ _______ _____ _____    ______ ____
ROOT
ATOM      1  C   LIG    1       -1.293  -0.775   0.010  0.00  0.00    +0.150 C 
ATOM      2  C   LIG    1       -2.031  -0.522   1.329  0.00  0.00    +0.280 C 
ATOM      3  N   LIG    1       -3.191  -1.425   1.393  0.00  0.00    -0.620 N 
ATOM      4  C   LIG    1       -2.968  -2.857   1.136  0.00  0.00    +0.260 C 
ATOM      5  C   LIG    1       -2.184  -2.996  -0.174  0.00  0.00    +0.230 C 
ATOM      6  C   LIG    1       -4.422  -0.955   1.678  0.00  0.00    +0.550 C 
ATOM      7  O   LIG    1       -4.585   0.229   1.887  0.00  0.00    -0.540 OA
ATOM      8  O   LIG    1       -1.017  -2.172  -0.115  0.00  0.00    -0.350 OA
ENDROOT
BRANCH   1  12
ATOM      9  N   LIG    1       -0.016   1.344   0.009  0.00  0.00    -0.850 N 
ATOM     10  H   LIG    1       -0.863   1.817   0.016  0.00  0.00    +0.400 HD
ATOM     11  H   LIG    1        0.817   1.840   0.004  0.00  0.00    +0.410 HD
ATOM     12  C   LIG    1        0.002  -0.004   0.002  0.00  0.00    +0.530 C 
ATOM     13  O   LIG    1        1.060  -0.596  -0.011  0.00  0.00    -0.520 OA
ENDBRANCH   1  12
BRANCH   6  14
ATOM     14  C   LIG    1       -5.594  -1.899   1.737  0.00  0.00    -0.060 C 
ATOM     15  C   LIG    1       -6.228  -2.154   3.106  0.00  0.00    +0.060 C 
ATOM     16  C   LIG    1       -6.965  -1.305   2.068  0.00  0.00    -0.060 C 
BRANCH  16  17
ATOM     17  C   LIG    1       -8.169  -1.915   1.397  0.00  0.00    +0.520 C 
ATOM     18  O   LIG    1       -8.029  -2.847   0.624  0.00  0.00    -0.690 OA
ATOM     19  O   LIG    1       -9.283  -1.476   1.628  0.00  0.00    -0.690 OA
ENDBRANCH  16  17
ENDBRANCH   6  14
TORSDOF 3
ENDMDL
MODEL       84
REMARK  Name = ZINC000262600241
REMARK                            x       y       z     vdW  Elec       q    Type
REMARK                         _______ _______ _______ _____ _____    ______ ____
ROOT
ATOM      1  C   LIG    1       -1.293  -0.775   0.010  0.00  0.00    +0.150 C 
ATOM      2  C   LIG    1       -2.031  -0.522   1.329  0.00  0.00    +0.280 C 
ATOM      3  N   LIG    1       -3.191  -1.425   1.393  0.00  0.00    -0.620 N 
ATOM      4  C   LIG    1       -2.968  -2.857   1.136  0.00  0.00    +0.260 C 
ATOM      5  C   LIG    1       -2.184  -2.996  -0.174  0.00  0.00    +0.230 C 
ATOM      6  C   LIG    1       -4.422  -0.955   1.678  0.00  0.00    +0.560 C 
ATOM      7  O   LIG    1       -4.585   0.229   1.887  0.00  0.00    -0.540 OA
ATOM      8  O   LIG    1       -1.017  -2.172  -0.115  0.00  0.00    -0.350 OA
ENDROOT
BRANCH   1  12
ATOM      9  N   LIG    1       -0.016   1.344   0.009  0.00  0.00    -0.850 N 
ATOM     10  H   LIG    1       -0.863   1.817   0.016  0.00  0.00    +0.400 HD
ATOM     11  H   LIG    1        0.817   1.840   0.004  0.00  0.00    +0.410 HD
ATOM     12  C   LIG    1        0.002  -0.004   0.002  0.00  0.00    +0.530 C 
ATOM     13  O   LIG    1        1.060  -0.596  -0.011  0.00  0.00    -0.520 OA
ENDBRANCH   1  12
BRANCH   6  14
ATOM     14  C   LIG    1       -5.594  -1.899   1.737  0.00  0.00    -0.070 C 
ATOM     15  C   LIG    1       -6.655  -1.778   0.641  0.00  0.00    +0.050 C 
ATOM     16  C   LIG    1       -6.965  -1.304   2.064  0.00  0.00    -0.050 C 
BRANCH  16  17
ATOM     17  C   LIG    1       -7.911  -2.142   2.886  0.00  0.00    +0.520 C 
ATOM     18  O   LIG    1       -7.591  -2.499   4.007  0.00  0.00    -0.690 OA
ATOM     19  O   LIG    1       -8.995  -2.462   2.430  0.00  0.00    -0.690 OA
ENDBRANCH  16  17
ENDBRANCH   6  14
TORSDOF 3
ENDMDL
MODEL       85
REMARK  Name = ZINC000262600244
REMARK                            x       y       z     vdW  Elec       q    Type
REMARK                         _______ _______ _______ _____ _____    ______ ____
ROOT
ATOM      1  C   LIG    1       -3.915  -8.108   3.700  0.00  0.00    +0.150 C 
ATOM      2  C   LIG    1       -3.485  -6.647   3.876  0.00  0.00    +0.270 C 
ATOM      3  N   LIG    1       -4.609  -5.782   3.483  0.00  0.00    -0.600 N 
ATOM      4  C   LIG    1       -5.931  -6.057   4.069  0.00  0.00    +0.270 C 
ATOM      5  C   LIG    1       -6.242  -7.546   3.884  0.00  0.00    +0.210 C 
ATOM      6  C   LIG    1       -4.433  -4.768   2.613  0.00  0.00    +0.570 C 
ATOM      7  O   LIG    1       -3.336  -4.557   2.141  0.00  0.00    -0.540 OA
ATOM      8  O   LIG    1       -5.151  -8.322   4.387  0.00  0.00    -0.350 OA
ENDROOT
BRANCH   1  12
ATOM      9  N   LIG    1       -1.632  -9.060   3.713  0.00  0.00    -0.850 N 
ATOM     10  H   LIG    1       -1.432  -8.509   2.939  0.00  0.00    +0.400 HD
ATOM     11  H   LIG    1       -0.951  -9.644   4.081  0.00  0.00    +0.410 HD
ATOM     12  C   LIG    1       -2.857  -9.016   4.272  0.00  0.00    +0.530 C 
ATOM     13  O   LIG    1       -3.109  -9.708   5.236  0.00  0.00    -0.520 OA
ENDBRANCH   1  12
BRANCH   6  14
ATOM     14  C   LIG    1       -5.600  -3.896   2.226  0.00  0.00    -0.070 C 
ATOM     15  C   LIG    1       -5.288  -2.520   1.634  0.00  0.00    +0.060 C 
ATOM     16  C   LIG    1       -5.844  -2.634   3.056  0.00  0.00    -0.080 C 
BRANCH  16  17
ATOM     17  C   LIG    1       -4.899  -2.357   4.197  0.00  0.00    +0.510 C 
ATOM     18  O   LIG    1       -4.034  -1.506   4.079  0.00  0.00    -0.680 OA
ATOM     19  O   LIG    1       -5.000  -2.984   5.238  0.00  0.00    -0.690 OA
ENDBRANCH  16  17
ENDBRANCH   6  14
TORSDOF 3
ENDMDL
MODEL       86
REMARK  Name = ZINC000004955570
REMARK                            x       y       z     vdW  Elec       q    Type
REMARK                         _______ _______ _______ _____ _____    ______ ____
ROOT
ATOM      1  S   LIG    1        1.304  -4.095   2.822  0.00  0.00    +2.750 S 
ATOM      2  O   LIG    1       -0.076  -4.436   2.823  0.00  0.00    -1.040 OA
ATOM      3  O   LIG    1        2.126  -4.181   3.977  0.00  0.00    -1.030 OA
ENDROOT
BRANCH   1   4
ATOM      4  N   LIG    1        1.398  -2.528   2.296  0.00  0.00    -1.110 NA
ATOM      5  H   LIG    1        1.930  -1.883   2.788  0.00  0.00    +0.410 HD
BRANCH   4   6
ATOM      6  C   LIG    1        0.679  -2.115   1.088  0.00  0.00    +0.370 C 
BRANCH   6   7
ATOM      7  C   LIG    1        0.618  -0.611   1.029  0.00  0.00    +0.460 C 
ATOM      8  O   LIG    1        1.124   0.049   1.905  0.00  0.00    -0.510 OA
BRANCH   7  10
ATOM      9  C   LIG    1       -0.018   1.448   0.010  0.00  0.00    +0.260 C 
ATOM     10  O   LIG    1        0.002  -0.004   0.002  0.00  0.00    -0.360 OA
ENDBRANCH   7  10
ENDBRANCH   6   7
ENDBRANCH   4   6
ENDBRANCH   1   4
BRANCH   1  11
ATOM     11  N   LIG    1        2.018  -5.043   1.667  0.00  0.00    -1.070 NA
BRANCH  11  12
ATOM     12  C   LIG    1        2.085  -6.415   1.842  0.00  0.00    +0.600 A 
ATOM     13  N   LIG    1        1.567  -6.953   2.936  0.00  0.00    -0.620 NA
ATOM     14  C   LIG    1        1.614  -8.260   3.134  0.00  0.00    +0.330 A 
ATOM     15  C   LIG    1        2.213  -9.067   2.180  0.00  0.00    -0.230 A 
ATOM     16  C   LIG    1        2.745  -8.471   1.047  0.00  0.00    +0.330 A 
ATOM     17  N   LIG    1        2.660  -7.158   0.908  0.00  0.00    -0.550 NA
ENDBRANCH  11  12
ENDBRANCH   1  11
TORSDOF 6
ENDMDL
MODEL       87
REMARK  Name = ZINC000000392599
REMARK                            x       y       z     vdW  Elec       q    Type
REMARK                         _______ _______ _______ _____ _____    ______ ____
ROOT
ATOM      1  C   LIG    1       -0.018   1.461   0.010  0.00  0.00    +0.350 C 
ATOM      2  N   LIG    1        0.002  -0.004   0.002  0.00  0.00    -0.410 N 
ATOM      3  C   LIG    1        0.009  -0.800  -1.085  0.00  0.00    +0.360 A 
ATOM      4  N   LIG    1        0.028  -2.054  -0.714  0.00  0.00    -0.500 NA
ATOM      5  C   LIG    1        0.034  -2.132   0.619  0.00  0.00    +0.320 A 
ATOM      6  N   LIG    1        0.053  -3.184   1.520  0.00  0.00    -0.510 N 
ATOM      7  C   LIG    1        0.063  -4.565   1.032  0.00  0.00    +0.350 C 
ATOM      8  C   LIG    1        0.052  -2.939   2.844  0.00  0.00    +0.710 A 
ATOM      9  O   LIG    1        0.064  -3.876   3.620  0.00  0.00    -0.550 OA
ATOM     10  N   LIG    1        0.042  -1.686   3.330  0.00  0.00    -0.650 N 
ATOM     11  H   LIG    1        0.045  -1.546   4.290  0.00  0.00    +0.430 HD
ATOM     12  C   LIG    1        0.028  -0.620   2.503  0.00  0.00    +0.600 A 
ATOM     13  O   LIG    1        0.019   0.510   2.955  0.00  0.00    -0.530 OA
ATOM     14  C   LIG    1        0.024  -0.831   1.107  0.00  0.00    -0.180 A 
ENDROOT
BRANCH   3  15
ATOM     15  C   LIG    1       -0.004  -0.317  -2.513  0.00  0.00    +0.070 C 
BRANCH  15  16
ATOM     16  C   LIG    1        1.413  -0.138  -2.994  0.00  0.00    +0.500 C 
ATOM     17  O   LIG    1        1.627   0.249  -4.131  0.00  0.00    -0.690 OA
ATOM     18  O   LIG    1        2.346  -0.379  -2.247  0.00  0.00    -0.680 OA
ENDBRANCH  15  16
ENDBRANCH   3  15
TORSDOF 2
ENDMDL
MODEL       88
REMARK  Name = ZINC000042278892
REMARK                            x       y       z     vdW  Elec       q    Type
REMARK                         _______ _______ _______ _____ _____    ______ ____
ROOT
ATOM      1  C   LIG    1        1.714  -2.052  -2.991  0.00  0.00    +0.320 C 
ENDROOT
BRANCH   1   2
ATOM      2  N   LIG    1        1.797  -3.510  -3.111  0.00  0.00    -0.470 N 
ATOM      3  C   LIG    1        2.860  -4.168  -2.580  0.00  0.00    +0.320 A 
ATOM      4  C   LIG    1        2.958  -5.514  -2.679  0.00  0.00    -0.110 A 
ATOM      5  C   LIG    1        1.956  -6.243  -3.333  0.00  0.00    +0.110 A 
ATOM      6  C   LIG    1        0.889  -5.581  -3.865  0.00  0.00    -0.110 A 
ATOM      7  C   LIG    1        0.815  -4.183  -3.741  0.00  0.00    +0.520 A 
ATOM      8  O   LIG    1       -0.134  -3.578  -4.212  0.00  0.00    -0.550 OA
ENDBRANCH   1   2
BRANCH   1  10
ATOM      9  N   LIG    1        0.796  -0.399  -1.397  0.00  0.00    -1.130 NA
ATOM     10  C   LIG    1        0.991  -1.693  -1.718  0.00  0.00    +0.520 C 
ATOM     11  O   LIG    1        0.586  -2.568  -0.984  0.00  0.00    -0.620 OA
BRANCH   9  13
ATOM     12  C   LIG    1       -0.022   1.810   0.012  0.00  0.00    -0.300 C 
ATOM     13  S   LIG    1        0.002  -0.004   0.002  0.00  0.00    +2.560 S 
ATOM     14  O   LIG    1       -1.309  -0.519  -0.182  0.00  0.00    -1.010 OA
ATOM     15  O   LIG    1        0.845  -0.497   1.035  0.00  0.00    -1.020 OA
ENDBRANCH   9  13
ENDBRANCH   1  10
TORSDOF 3
ENDMDL
MODEL       89
REMARK  Name = ZINC000026421513
REMARK                            x       y       z     vdW  Elec       q    Type
REMARK                         _______ _______ _______ _____ _____    ______ ____
ROOT
ATOM      1  C   LIG    1       -0.018   1.503   0.010  0.00  0.00    +0.090 C 
ATOM      2  C   LIG    1        0.002  -0.004   0.002  0.00  0.00    +0.530 C 
ATOM      3  N   LIG    1       -1.156  -0.694   0.009  0.00  0.00    -0.580 N 
ATOM      4  C   LIG    1       -2.475  -0.032   0.019  0.00  0.00    -0.080 C 
ATOM      5  S   LIG    1       -3.564  -1.296   0.793  0.00  0.00    +2.370 S 
ATOM      6  C   LIG    1       -2.643  -2.704   0.045  0.00  0.00    -0.240 C 
ATOM      7  O   LIG    1       -4.869  -1.219   0.236  0.00  0.00    -0.930 OA
ATOM      8  O   LIG    1       -3.384  -1.294   2.203  0.00  0.00    -0.930 OA
ATOM      9  C   LIG    1       -1.202  -2.148   0.002  0.00  0.00    +0.140 C 
ATOM     10  O   LIG    1        1.060  -0.596  -0.011  0.00  0.00    -0.520 OA
ENDROOT
BRANCH   9  11
ATOM     11  C   LIG    1       -0.523  -2.655  -1.245  0.00  0.00    +0.500 C 
ATOM     12  O   LIG    1       -0.227  -3.834  -1.342  0.00  0.00    -0.690 OA
ATOM     13  O   LIG    1       -0.270  -1.886  -2.156  0.00  0.00    -0.670 OA
ENDBRANCH   9  11
TORSDOF 1
ENDMDL
MODEL       90
REMARK  Name = ZINC000000182880
REMARK                            x       y       z     vdW  Elec       q    Type
REMARK                         _______ _______ _______ _____ _____    ______ ____
ROOT
ATOM      1  N   SER A  1       -2.421   1.003  -0.221  0.00  0.00    -0.680 N 
ATOM      2  H   SER A  1       -2.898   0.613   0.528  0.00  0.00    +0.400 HD
ATOM      3  C   UNK A  0       -2.763   0.674  -1.482  0.00  0.00    +0.560 C 
ATOM      4  O   UNK A  0       -2.165   1.163  -2.421  0.00  0.00    -0.540 OA
ENDROOT
BRANCH   3   5
ATOM      5  C   UNK A  0       -3.864  -0.282  -1.724  0.00  0.00    -0.150 A 
ATOM      6  C   UNK A  0       -4.561  -0.846  -0.655  0.00  0.00    +0.280 A 
ATOM      7  N   UNK A  0       -5.543  -1.697  -0.867  0.00  0.00    -0.470 NA
ATOM      8  C   UNK A  0       -5.908  -2.052  -2.084  0.00  0.00    +0.250 A 
ATOM      9  C   UNK A  0       -5.266  -1.538  -3.202  0.00  0.00    +0.050 A 
ATOM     10  C   UNK A  0       -4.228  -0.632  -3.030  0.00  0.00    +0.100 A 
BRANCH   9  11
ATOM     11  O   UNK A  0       -5.652  -1.912  -4.450  0.00  0.00    -0.490 OA
ATOM     12  H   UNK A  0       -6.339  -1.351  -4.834  0.00  0.00    +0.390 HD
ENDBRANCH   9  11
ENDBRANCH   3   5
BRANCH   1  13
ATOM     13  CA  SER A  1       -1.330   1.951   0.019  0.00  0.00    +0.170 C 
BRANCH  13  15
ATOM     14  O   SER A  1        0.002  -0.004   0.002  0.00  0.00    -0.680 OA
ATOM     15  C   SER A  1       -0.015   1.215   0.009  0.00  0.00    +0.500 C 
ATOM     16  OXT SER A  1        1.033   1.839   0.002  0.00  0.00    -0.700 OA
ENDBRANCH  13  15
BRANCH  13  17
ATOM     17  CB  SER A  1       -1.527   2.623   1.379  0.00  0.00    +0.190 C 
BRANCH  17  18
ATOM     18  OG  SER A  1       -1.413   1.645   2.415  0.00  0.00    -0.560 OA
ATOM     19  H   SER A  1       -1.528   2.001   3.306  0.00  0.00    +0.370 HD
ENDBRANCH  17  18
ENDBRANCH  13  17
ENDBRANCH   1  13
TORSDOF 6
ENDMDL
MODEL       91
REMARK  Name = ZINC000035287475
REMARK                            x       y       z     vdW  Elec       q    Type
REMARK                         _______ _______ _______ _____ _____    ______ ____
ROOT
ATOM      1  N   LIG    1       -0.818  -2.566  -1.020  0.00  0.00    -0.960 NA
ENDROOT
BRANCH   1   2
ATOM      2  S   LIG    1       -1.553  -2.713   0.457  0.00  0.00    +2.620 S 
ATOM      3  O   LIG    1       -0.475  -2.817   1.376  0.00  0.00    -0.960 OA
ATOM      4  O   LIG    1       -2.475  -3.780   0.284  0.00  0.00    -0.950 OA
ATOM      5  C   LIG    1       -2.433  -1.143   0.682  0.00  0.00    -0.310 C 
ENDBRANCH   1   2
BRANCH   1   6
ATOM      6  C   LIG    1        0.583  -2.144  -1.102  0.00  0.00    +0.330 C 
BRANCH   6   7
ATOM      7  C   LIG    1        0.647  -0.640  -1.375  0.00  0.00    +0.160 C 
BRANCH   7   9
ATOM      8  C   LIG    1        0.150   1.492  -0.399  0.00  0.00    +0.190 C 
ATOM      9  O   LIG    1        0.135   0.071  -0.246  0.00  0.00    -0.400 OA
ENDBRANCH   7   9
ENDBRANCH   6   7
ENDBRANCH   1   6
BRANCH   1  10
ATOM     10  C   LIG    1       -1.567  -2.859  -2.244  0.00  0.00    +0.200 C 
BRANCH  10  11
ATOM     11  C   LIG    1       -1.313  -4.284  -2.661  0.00  0.00    +0.480 C 
ATOM     12  O   LIG    1       -1.846  -4.731  -3.662  0.00  0.00    -0.710 OA
ATOM     13  O   LIG    1       -0.573  -4.991  -1.997  0.00  0.00    -0.680 OA
ENDBRANCH  10  11
ENDBRANCH   1  10
TORSDOF 6
ENDMDL
MODEL       92
REMARK  Name = ZINC000071790447
REMARK                            x       y       z     vdW  Elec       q    Type
REMARK                         _______ _______ _______ _____ _____    ______ ____
ROOT
ATOM      1  C   LIG    1       -1.258  -0.755   0.010  0.00  0.00    -0.080 A 
ATOM      2  C   LIG    1       -1.389  -2.127   0.009  0.00  0.00    +0.160 A 
ATOM      3  C   LIG    1       -2.759  -2.409   0.019  0.00  0.00    -0.750 A 
ATOM      4  C   LIG    1       -3.426  -1.230   0.025  0.00  0.00    +0.340 A 
ATOM      5  N   LIG    1       -2.525  -0.217   0.025  0.00  0.00    -0.530 N 
ATOM      6  H   LIG    1       -2.738   0.729   0.030  0.00  0.00    +0.420 HD
ENDROOT
BRANCH   1  10
ATOM      7  N   LIG    1       -0.016   1.344   0.009  0.00  0.00    -0.860 N 
ATOM      8  H   LIG    1       -0.863   1.817   0.016  0.00  0.00    +0.400 HD
ATOM      9  H   LIG    1        0.817   1.840   0.004  0.00  0.00    +0.410 HD
ATOM     10  C   LIG    1        0.002  -0.004   0.002  0.00  0.00    +0.600 C 
ATOM     11  O   LIG    1        1.064  -0.598  -0.011  0.00  0.00    -0.530 OA
ENDBRANCH   1  10
BRANCH   3  12
ATOM     12  S   LIG    1       -3.488  -4.013   0.023  0.00  0.00    +2.720 S 
ATOM     13  O   LIG    1       -2.520  -4.895  -0.529  0.00  0.00    -0.970 OA
ATOM     14  O   LIG    1       -4.795  -3.861  -0.511  0.00  0.00    -0.970 OA
BRANCH  12  15
ATOM     15  N   LIG    1       -3.679  -4.461   1.606  0.00  0.00    -1.090 NA
ATOM     16  H   LIG    1       -3.183  -5.215   1.960  0.00  0.00    +0.420 HD
BRANCH  15  17
ATOM     17  C   LIG    1       -4.597  -3.717   2.472  0.00  0.00    +0.190 C 
BRANCH  17  18
ATOM     18  C   LIG    1       -4.872  -4.518   3.719  0.00  0.00    +0.490 C 
ATOM     19  O   LIG    1       -5.617  -4.075   4.576  0.00  0.00    -0.690 OA
ATOM     20  O   LIG    1       -4.350  -5.609   3.870  0.00  0.00    -0.680 OA
ENDBRANCH  17  18
ENDBRANCH  15  17
ENDBRANCH  12  15
ENDBRANCH   3  12
TORSDOF 5
ENDMDL
MODEL       93
REMARK  Name = ZINC000578132595
REMARK                            x       y       z     vdW  Elec       q    Type
REMARK                         _______ _______ _______ _____ _____    ______ ____
ROOT
ATOM      1  N   LIG    1       -2.430   0.984   0.019  0.00  0.00    -0.690 N 
ATOM      2  H   LIG    1       -2.240   0.033   0.013  0.00  0.00    +0.410 HD
ATOM      3  C   LIG    1       -3.707   1.416   0.027  0.00  0.00    +0.490 C 
ATOM      4  O   LIG    1       -3.945   2.605   0.035  0.00  0.00    -0.550 OA
ENDROOT
BRANCH   1   5
ATOM      5  C   LIG    1       -1.330   1.951   0.019  0.00  0.00    +0.190 C 
BRANCH   5   7
ATOM      6  O   LIG    1        0.002  -0.004   0.002  0.00  0.00    -0.690 OA
ATOM      7  C   LIG    1       -0.015   1.215   0.009  0.00  0.00    +0.490 C 
ATOM      8  O   LIG    1        1.033   1.839   0.002  0.00  0.00    -0.690 OA
ENDBRANCH   5   7
ENDBRANCH   1   5
BRANCH   3   9
ATOM      9  C   LIG    1       -4.839   0.421   0.027  0.00  0.00    +0.370 C 
BRANCH   9  10
ATOM     10  N   LIG    1       -6.117   1.136   0.037  0.00  0.00    -0.420 N 
ATOM     11  N   LIG    1       -6.741   1.488   1.215  0.00  0.00    -0.210 NA
ATOM     12  C   LIG    1       -7.865   2.116   1.125  0.00  0.00    +0.310 A 
ATOM     13  S   LIG    1       -8.182   2.289  -0.609  0.00  0.00    -0.030 S 
ATOM     14  C   LIG    1       -6.739   1.487  -1.102  0.00  0.00    +0.480 A 
ATOM     15  O   LIG    1       -6.364   1.276  -2.242  0.00  0.00    -0.460 OA
ENDBRANCH   9  10
ENDBRANCH   3   9
TORSDOF 4
ENDMDL
MODEL       94
REMARK  Name = ZINC000002472023
REMARK                            x       y       z     vdW  Elec       q    Type
REMARK                         _______ _______ _______ _____ _____    ______ ____
ROOT
ATOM      1  N   LIG    1       -4.059  -4.551   0.016  0.00  0.00    -0.700 N 
ATOM      2  H   LIG    1       -4.771  -3.893   0.027  0.00  0.00    +0.420 HD
ENDROOT
BRANCH   1   3
ATOM      3  C   LIG    1       -4.367  -5.912   0.012  0.00  0.00    +0.270 A 
ATOM      4  N   LIG    1       -3.415  -6.809   0.004  0.00  0.00    -0.320 NA
ATOM      5  N   LIG    1       -3.741  -8.170  -0.000  0.00  0.00    -0.570 N 
ATOM      6  H   LIG    1       -3.031  -8.831  -0.007  0.00  0.00    +0.410 HD
ATOM      7  C   LIG    1       -5.023  -8.574   0.005  0.00  0.00    +0.640 A 
ATOM      8  N   LIG    1       -6.033  -7.685   0.014  0.00  0.00    -0.680 NA
ATOM      9  O   LIG    1       -5.274  -9.764   0.001  0.00  0.00    -0.610 OA
ATOM     10  C   LIG    1       -5.769  -6.362   0.023  0.00  0.00    +0.500 A 
ATOM     11  O   LIG    1       -6.676  -5.551   0.032  0.00  0.00    -0.570 OA
ENDBRANCH   1   3
BRANCH   1  12
ATOM     12  C   LIG    1       -2.660  -4.117   0.005  0.00  0.00    +0.340 C 
BRANCH  12  13
ATOM     13  C   LIG    1       -2.601  -2.611   0.013  0.00  0.00    +0.460 C 
ATOM     14  O   LIG    1       -3.623  -1.967   0.026  0.00  0.00    -0.500 OA
BRANCH  13  15
ATOM     15  O   LIG    1       -1.414  -1.986   0.005  0.00  0.00    -0.360 OA
BRANCH  15  16
ATOM     16  C   LIG    1       -1.433  -0.534   0.013  0.00  0.00    +0.200 C 
BRANCH  16  18
ATOM     17  C   LIG    1       -0.019   1.526   0.010  0.00  0.00    +0.030 C 
ATOM     18  C   LIG    1        0.002  -0.004   0.002  0.00  0.00    +0.020 C 
ENDBRANCH  16  18
ENDBRANCH  15  16
ENDBRANCH  13  15
ENDBRANCH  12  13
ENDBRANCH   1  12
TORSDOF 6
ENDMDL
MODEL       95
REMARK  Name = ZINC000019790612
REMARK                            x       y       z     vdW  Elec       q    Type
REMARK                         _______ _______ _______ _____ _____    ______ ____
ROOT
ATOM      1  C   LIG    1        2.179  -4.498   3.562  0.00  0.00    -0.020 A 
ATOM      2  N   LIG    1        2.646  -3.606   4.390  0.00  0.00    -0.160 NA
ATOM      3  N   LIG    1        3.332  -4.014   5.541  0.00  0.00    -0.580 N 
ATOM      4  H   LIG    1        3.678  -3.347   6.154  0.00  0.00    +0.410 HD
ATOM      5  C   LIG    1        3.517  -5.319   5.807  0.00  0.00    +0.630 A 
ATOM      6  N   LIG    1        3.050  -6.270   4.976  0.00  0.00    -0.690 NA
ATOM      7  O   LIG    1        4.116  -5.646   6.814  0.00  0.00    -0.610 OA
ATOM      8  C   LIG    1        2.378  -5.920   3.860  0.00  0.00    +0.500 A 
ATOM      9  O   LIG    1        1.952  -6.773   3.104  0.00  0.00    -0.580 OA
ENDROOT
BRANCH   1  10
ATOM     10  C   LIG    1        1.438  -4.074   2.320  0.00  0.00    +0.220 C 
BRANCH  10  11
ATOM     11  C   LIG    1        1.378  -2.570   2.260  0.00  0.00    +0.450 C 
ATOM     12  O   LIG    1        1.884  -1.909   3.137  0.00  0.00    -0.470 OA
BRANCH  11  13
ATOM     13  O   LIG    1        0.762  -1.963   1.234  0.00  0.00    -0.370 OA
BRANCH  13  14
ATOM     14  C   LIG    1        0.742  -0.511   1.242  0.00  0.00    +0.210 C 
BRANCH  14  16
ATOM     15  C   LIG    1       -0.019   1.526   0.010  0.00  0.00    +0.030 C 
ATOM     16  C   LIG    1        0.002  -0.004   0.002  0.00  0.00    +0.020 C 
ENDBRANCH  14  16
ENDBRANCH  13  14
ENDBRANCH  11  13
ENDBRANCH  10  11
ENDBRANCH   1  10
TORSDOF 5
ENDMDL
MODEL       96
REMARK  Name = ZINC000035651612
REMARK                            x       y       z     vdW  Elec       q    Type
REMARK                         _______ _______ _______ _____ _____    ______ ____
ROOT
ATOM      1  C   LIG    1        1.692  -0.503  -0.017  0.00  0.00    -0.830 A 
ATOM      2  C   LIG    1        2.447  -0.717  -1.119  0.00  0.00    +0.350 A 
ATOM      3  N   LIG    1        3.679  -1.084  -0.710  0.00  0.00    -0.300 N 
ATOM      4  N   LIG    1        3.682  -1.095   0.691  0.00  0.00    -0.250 NA
ATOM      5  C   LIG    1        2.492  -0.741   1.105  0.00  0.00    +0.290 A 
ENDROOT
BRANCH   1   6
ATOM      6  S   LIG    1        0.002  -0.004   0.002  0.00  0.00    +2.740 S 
ATOM      7  O   LIG    1       -0.549  -0.406  -1.245  0.00  0.00    -0.980 OA
ATOM      8  O   LIG    1       -0.525  -0.419   1.255  0.00  0.00    -0.980 OA
BRANCH   6   9
ATOM      9  N   LIG    1       -0.020   1.652   0.011  0.00  0.00    -1.250 NA
ATOM     10  H   LIG    1       -0.867   2.125   0.018  0.00  0.00    +0.410 HD
ATOM     11  H   LIG    1        0.813   2.148   0.006  0.00  0.00    +0.420 HD
ENDBRANCH   6   9
ENDBRANCH   1   6
BRANCH   3  12
ATOM     12  C   LIG    1        4.814  -1.411  -1.576  0.00  0.00    +0.230 C 
BRANCH  12  13
ATOM     13  C   LIG    1        5.993  -0.549  -1.208  0.00  0.00    +0.490 C 
ATOM     14  O   LIG    1        7.045  -0.664  -1.813  0.00  0.00    -0.690 OA
ATOM     15  O   LIG    1        5.895   0.264  -0.304  0.00  0.00    -0.660 OA
ENDBRANCH  12  13
ENDBRANCH   3  12
TORSDOF 4
ENDMDL
MODEL       97
REMARK  Name = ZINC000142577822
REMARK                            x       y       z     vdW  Elec       q    Type
REMARK                         _______ _______ _______ _____ _____    ______ ____
ROOT
ATOM      1  CA  ASP A  1       -2.479   0.941   0.019  0.00  0.00    +0.260 C 
ATOM      2  N   ASP A  1       -2.451   0.173   1.263  0.00  0.00    -0.690 N 
ATOM      3  H   ASP A  1       -1.607   0.062   1.727  0.00  0.00    +0.420 HD
ATOM      4  C   PRO A  2       -3.559  -0.383   1.784  0.00  0.00    +0.510 C 
ATOM      5  CA  PRO A  2       -4.897  -0.207   1.110  0.00  0.00    +0.220 C 
ATOM      6  CB  PRO A  2       -6.003  -0.127   2.177  0.00  0.00    +0.070 C 
ATOM      7  CG  PRO A  2       -6.907   1.045   1.749  0.00  0.00    +0.030 C 
ATOM      8  CD  PRO A  2       -6.276   1.602   0.459  0.00  0.00    +0.260 C 
ATOM      9  N   PRO A  2       -4.892   1.099   0.422  0.00  0.00    -0.620 N 
ATOM     10  O   PRO A  2       -3.481  -1.033   2.805  0.00  0.00    -0.550 OA
ATOM     11  C   ASP A  1       -3.794   1.676  -0.098  0.00  0.00    +0.530 C 
ATOM     12  O   ASP A  1       -3.856   2.761  -0.637  0.00  0.00    -0.520 OA
ENDROOT
BRANCH   1  13
ATOM     13  CB  ASP A  1       -1.330   1.951   0.019  0.00  0.00    -0.030 C 
BRANCH  13  15
ATOM     14  OD1 ASP A  1        0.002  -0.004   0.002  0.00  0.00    -0.690 OA
ATOM     15  CG  ASP A  1       -0.015   1.215   0.009  0.00  0.00    +0.490 C 
ATOM     16  OD2 ASP A  1        1.033   1.839   0.002  0.00  0.00    -0.690 OA
ENDBRANCH  13  15
ENDBRANCH   1  13
TORSDOF 2
ENDMDL
MODEL       98
REMARK  Name = ZINC000020283657
REMARK                            x       y       z     vdW  Elec       q    Type
REMARK                         _______ _______ _______ _____ _____    ______ ____
ROOT
ATOM      1  C   LIG    1       -1.256  -0.757   0.121  0.00  0.00    -0.370 A 
ATOM      2  C   LIG    1       -1.252  -2.134   0.225  0.00  0.00    +0.480 A 
ATOM      3  N   LIG    1       -2.434  -2.796   0.333  0.00  0.00    -0.480 N 
ATOM      4  C   LIG    1       -3.606  -2.142   0.343  0.00  0.00    +0.700 A 
ATOM      5  N   LIG    1       -3.678  -0.803   0.246  0.00  0.00    -0.650 N 
ATOM      6  H   LIG    1       -4.543  -0.365   0.257  0.00  0.00    +0.430 HD
ATOM      7  O   LIG    1       -4.635  -2.780   0.443  0.00  0.00    -0.530 OA
ATOM      8  C   LIG    1       -2.554  -0.064   0.140  0.00  0.00    +0.570 A 
ATOM      9  O   LIG    1       -2.613   1.149   0.052  0.00  0.00    -0.530 OA
ENDROOT
BRANCH   1  13
ATOM     10  N   LIG    1       -0.015   1.343   0.016  0.00  0.00    -0.850 N 
ATOM     11  H   LIG    1       -0.861   1.818   0.026  0.00  0.00    +0.410 HD
ATOM     12  H   LIG    1        0.819   1.839   0.013  0.00  0.00    +0.400 HD
ATOM     13  C   LIG    1        0.002  -0.004   0.002  0.00  0.00    +0.610 C 
ATOM     14  O   LIG    1        1.058  -0.598  -0.109  0.00  0.00    -0.560 OA
ENDBRANCH   1  13
BRANCH   3  15
ATOM     15  C   LIG    1       -2.429  -4.257   0.443  0.00  0.00    +0.230 C 
BRANCH  15  16
ATOM     16  C   LIG    1       -2.356  -4.651   1.896  0.00  0.00    +0.490 C 
ATOM     17  O   LIG    1       -2.341  -5.830   2.207  0.00  0.00    -0.680 OA
ATOM     18  O   LIG    1       -2.313  -3.792   2.759  0.00  0.00    -0.680 OA
ENDBRANCH  15  16
ENDBRANCH   3  15
TORSDOF 3
ENDMDL
MODEL       99
REMARK  Name = ZINC000001907383
REMARK                            x       y       z     vdW  Elec       q    Type
REMARK                         _______ _______ _______ _____ _____    ______ ____
ROOT
ATOM      1  O   LIG    1        0.002  -0.004   0.002  0.00  0.00    -0.600 OA
ATOM      2  C   LIG    1       -0.014   1.212   0.009  0.00  0.00    +0.640 A 
ATOM      3  N   LIG    1       -1.196   1.857   0.029  0.00  0.00    -0.680 NA
ATOM      4  C   LIG    1       -1.229   3.206   0.037  0.00  0.00    +0.510 A 
ATOM      5  C   LIG    1        0.039   3.954   0.022  0.00  0.00    +0.000 A 
ATOM      6  N   LIG    1        1.166   3.288   0.003  0.00  0.00    -0.240 NA
ATOM      7  O   LIG    1       -2.293   3.796   0.055  0.00  0.00    -0.560 OA
ATOM      8  N   LIG    1        1.147   1.889   0.001  0.00  0.00    -0.580 N 
ATOM      9  H   LIG    1        1.985   1.400  -0.013  0.00  0.00    +0.410 HD
ENDROOT
BRANCH   5  10
ATOM     10  S   LIG    1        0.040   5.716   0.032  0.00  0.00    +0.000 S 
BRANCH  10  11
ATOM     11  C   LIG    1        1.808   6.123   0.009  0.00  0.00    +0.060 C 
BRANCH  11  12
ATOM     12  C   LIG    1        1.981   7.643   0.015  0.00  0.00    +0.060 C 
BRANCH  12  13
ATOM     13  C   LIG    1        3.472   7.987  -0.004  0.00  0.00    +0.180 C 
BRANCH  13  14
ATOM     14  O   LIG    1        3.634   9.407   0.001  0.00  0.00    -0.580 OA
ATOM     15  H   LIG    1        4.556   9.697  -0.011  0.00  0.00    +0.380 HD
ENDBRANCH  13  14
ENDBRANCH  12  13
ENDBRANCH  11  12
ENDBRANCH  10  11
ENDBRANCH   5  10
TORSDOF 5
ENDMDL
MODEL      100
REMARK  Name = ZINC000012363420
REMARK                            x       y       z     vdW  Elec       q    Type
REMARK                         _______ _______ _______ _____ _____    ______ ____
ROOT
ATOM      1  N   LIG    1       -3.757   1.656   0.029  0.00  0.00    -0.280 N 
ATOM      2  N   LIG    1       -4.419   2.029   1.072  0.00  0.00    -0.090 NA
ATOM      3  N   LIG    1       -5.492   2.629   0.691  0.00  0.00    -0.090 NA
ATOM      4  N   LIG    1       -5.536   2.650  -0.597  0.00  0.00    -0.310 NA
ATOM      5  C   LIG    1       -4.460   2.052  -1.048  0.00  0.00    +0.170 A 
ENDROOT
BRANCH   1   6
ATOM      6  C   LIG    1       -2.479   0.941   0.019  0.00  0.00    +0.350 C 
BRANCH   6   7
ATOM      7  C   LIG    1       -1.330   1.951   0.019  0.00  0.00    -0.050 C 
BRANCH   7   9
ATOM      8  O   LIG    1        0.002  -0.004   0.002  0.00  0.00    -0.700 OA
ATOM      9  C   LIG    1       -0.015   1.215   0.009  0.00  0.00    +0.500 C 
ATOM     10  O   LIG    1        1.033   1.839   0.002  0.00  0.00    -0.690 OA
ENDBRANCH   7   9
ENDBRANCH   6   7
ENDBRANCH   1   6
BRANCH   5  11
ATOM     11  C   LIG    1       -4.088   1.841  -2.493  0.00  0.00    +0.330 C 
BRANCH  11  12
ATOM     12  N   LIG    1       -3.296   2.984  -2.967  0.00  0.00    -0.530 NA
ATOM     13  C   LIG    1       -3.913   4.256  -2.563  0.00  0.00    +0.150 C 
ATOM     14  C   LIG    1       -3.027   5.416  -3.024  0.00  0.00    +0.220 C 
ATOM     15  O   LIG    1       -2.837   5.332  -4.439  0.00  0.00    -0.390 OA
ATOM     16  C   LIG    1       -2.236   4.106  -4.867  0.00  0.00    +0.230 C 
ATOM     17  C   LIG    1       -3.115   2.932  -4.425  0.00  0.00    +0.160 C 
ENDBRANCH  11  12
ENDBRANCH   5  11
TORSDOF 5
ENDMDL
MODEL      101
REMARK  Name = ZINC000012363418
REMARK                            x       y       z     vdW  Elec       q    Type
REMARK                         _______ _______ _______ _____ _____    ______ ____
ROOT
ATOM      1  N   LIG    1       -2.430   0.984   0.019  0.00  0.00    -0.240 N 
ATOM      2  N   LIG    1       -3.007   0.479  -1.019  0.00  0.00    -0.090 NA
ATOM      3  N   LIG    1       -3.928  -0.332  -0.629  0.00  0.00    -0.100 NA
ATOM      4  N   LIG    1       -3.956  -0.360   0.659  0.00  0.00    -0.310 NA
ATOM      5  C   LIG    1       -3.026   0.450   1.102  0.00  0.00    +0.180 A 
ENDROOT
BRANCH   1   6
ATOM      6  C   LIG    1       -1.330   1.951   0.019  0.00  0.00    +0.250 C 
BRANCH   6   8
ATOM      7  O   LIG    1        0.002  -0.004   0.002  0.00  0.00    -0.660 OA
ATOM      8  C   LIG    1       -0.015   1.215   0.009  0.00  0.00    +0.500 C 
ATOM      9  O   LIG    1        1.033   1.839   0.002  0.00  0.00    -0.680 OA
ENDBRANCH   6   8
ENDBRANCH   1   6
BRANCH   5  10
ATOM     10  C   LIG    1       -2.693   0.736   2.544  0.00  0.00    +0.320 C 
BRANCH  10  11
ATOM     11  N   LIG    1       -1.676  -0.216   3.009  0.00  0.00    -0.520 NA
ATOM     12  C   LIG    1       -2.017  -1.589   2.610  0.00  0.00    +0.160 C 
ATOM     13  C   LIG    1       -0.903  -2.538   3.062  0.00  0.00    +0.240 C 
ATOM     14  O   LIG    1       -0.723  -2.414   4.476  0.00  0.00    -0.390 OA
ATOM     15  C   LIG    1       -0.389  -1.089   4.900  0.00  0.00    +0.220 C 
ATOM     16  C   LIG    1       -1.498  -0.126   4.466  0.00  0.00    +0.150 C 
ENDBRANCH  10  11
ENDBRANCH   5  10
TORSDOF 4
ENDMDL
MODEL      102
REMARK  Name = ZINC000033434936
REMARK                            x       y       z     vdW  Elec       q    Type
REMARK                         _______ _______ _______ _____ _____    ______ ____
ROOT
ATOM      1  N   LIG    1       -0.776  -2.556  -1.119  0.00  0.00    -0.610 N 
ATOM      2  C   LIG    1       -1.656  -2.731   0.042  0.00  0.00    +0.300 C 
ATOM      3  C   LIG    1       -2.821  -3.617  -0.454  0.00  0.00    +0.000 C 
ATOM      4  C   LIG    1       -2.824  -3.314  -1.970  0.00  0.00    +0.080 C 
ATOM      5  C   LIG    1       -1.409  -2.865  -2.263  0.00  0.00    +0.520 C 
ATOM      6  O   LIG    1       -0.916  -2.801  -3.369  0.00  0.00    -0.540 OA
ENDROOT
BRANCH   3   7
ATOM      7  C   LIG    1       -4.122  -3.203   0.183  0.00  0.00    +0.510 C 
ATOM      8  N   LIG    1       -5.260  -3.858  -0.122  0.00  0.00    -0.690 N 
ATOM      9  H   LIG    1       -5.241  -4.596  -0.752  0.00  0.00    +0.410 HD
ATOM     10  O   LIG    1       -4.146  -2.281   0.970  0.00  0.00    -0.550 OA
BRANCH   8  11
ATOM     11  C   LIG    1       -6.526  -3.456   0.496  0.00  0.00    +0.190 C 
BRANCH  11  12
ATOM     12  C   LIG    1       -7.636  -4.340  -0.010  0.00  0.00    +0.490 C 
ATOM     13  O   LIG    1       -8.777  -4.171   0.384  0.00  0.00    -0.690 OA
ATOM     14  O   LIG    1       -7.393  -5.224  -0.813  0.00  0.00    -0.690 OA
ENDBRANCH  11  12
ENDBRANCH   8  11
ENDBRANCH   3   7
BRANCH   1  15
ATOM     15  C   LIG    1        0.613  -2.097  -1.041  0.00  0.00    +0.320 C 
BRANCH  15  16
ATOM     16  C   LIG    1        0.652  -0.570  -1.138  0.00  0.00    +0.150 C 
BRANCH  16  18
ATOM     17  C   LIG    1       -0.017   1.425   0.010  0.00  0.00    +0.200 C 
ATOM     18  O   LIG    1        0.002  -0.004   0.002  0.00  0.00    -0.380 OA
ENDBRANCH  16  18
ENDBRANCH  15  16
ENDBRANCH   1  15
TORSDOF 6
ENDMDL
MODEL      103
REMARK  Name = ZINC000036378397
REMARK                            x       y       z     vdW  Elec       q    Type
REMARK                         _______ _______ _______ _____ _____    ______ ____
ROOT
ATOM      1  O   LIG    1        0.002  -0.004   0.002  0.00  0.00    -0.500 OA
ATOM      2  C   LIG    1       -0.014   1.209   0.009  0.00  0.00    +0.480 C 
ATOM      3  N   LIG    1       -1.100   2.012   0.029  0.00  0.00    -0.690 NA
ATOM      4  C   LIG    1       -0.693   3.292   0.031  0.00  0.00    +0.660 C 
ATOM      5  N   LIG    1        0.647   3.380   0.012  0.00  0.00    -0.600 N 
ATOM      6  O   LIG    1       -1.442   4.248   0.048  0.00  0.00    -0.560 OA
ATOM      7  C   LIG    1        1.167   2.134   0.002  0.00  0.00    +0.450 C 
ATOM      8  O   LIG    1        2.340   1.827  -0.014  0.00  0.00    -0.490 OA
ENDROOT
BRANCH   5   9
ATOM      9  C   LIG    1        1.419   4.625   0.007  0.00  0.00    +0.270 C 
ATOM     10  C   LIG    1        1.037   5.466  -1.223  0.00  0.00    +0.070 C 
ATOM     11  C   LIG    1        1.625   6.882  -0.992  0.00  0.00    -0.300 C 
ATOM     12  S   LIG    1        1.246   7.189   0.775  0.00  0.00    +2.400 S 
ATOM     13  O   LIG    1       -0.024   7.819   0.881  0.00  0.00    -0.930 OA
ATOM     14  O   LIG    1        2.379   7.769   1.406  0.00  0.00    -0.940 OA
ATOM     15  C   LIG    1        1.098   5.438   1.278  0.00  0.00    -0.320 C 
ENDBRANCH   5   9
TORSDOF 1
ENDMDL
MODEL      104
REMARK  Name = ZINC000036378396
REMARK                            x       y       z     vdW  Elec       q    Type
REMARK                         _______ _______ _______ _____ _____    ______ ____
ROOT
ATOM      1  O   LIG    1        0.002  -0.004   0.002  0.00  0.00    -0.500 OA
ATOM      2  C   LIG    1       -0.014   1.209   0.009  0.00  0.00    +0.480 C 
ATOM      3  N   LIG    1       -1.100   2.012   0.029  0.00  0.00    -0.690 NA
ATOM      4  C   LIG    1       -0.693   3.292   0.031  0.00  0.00    +0.660 C 
ATOM      5  N   LIG    1        0.647   3.380   0.012  0.00  0.00    -0.600 N 
ATOM      6  O   LIG    1       -1.442   4.248   0.048  0.00  0.00    -0.560 OA
ATOM      7  C   LIG    1        1.167   2.134   0.002  0.00  0.00    +0.450 C 
ATOM      8  O   LIG    1        2.340   1.827  -0.014  0.00  0.00    -0.480 OA
ENDROOT
BRANCH   5   9
ATOM      9  C   LIG    1        1.419   4.625   0.007  0.00  0.00    +0.270 C 
ATOM     10  C   LIG    1        1.062   5.471   1.242  0.00  0.00    +0.070 C 
ATOM     11  C   LIG    1        1.615   6.896   1.042  0.00  0.00    -0.300 C 
ATOM     12  S   LIG    1        1.648   7.144  -0.769  0.00  0.00    +2.400 S 
ATOM     13  O   LIG    1        2.993   7.300  -1.199  0.00  0.00    -0.940 OA
ATOM     14  O   LIG    1        0.673   8.113  -1.130  0.00  0.00    -0.940 OA
ATOM     15  C   LIG    1        1.049   5.475  -1.236  0.00  0.00    -0.300 C 
ENDBRANCH   5   9
TORSDOF 1
ENDMDL
MODEL      105
REMARK  Name = ZINC000033434937
REMARK                            x       y       z     vdW  Elec       q    Type
REMARK                         _______ _______ _______ _____ _____    ______ ____
ROOT
ATOM      1  N   LIG    1       -0.776  -2.556  -1.119  0.00  0.00    -0.610 N 
ATOM      2  C   LIG    1       -1.656  -2.731   0.042  0.00  0.00    +0.300 C 
ATOM      3  C   LIG    1       -3.089  -2.792  -0.532  0.00  0.00    +0.000 C 
ATOM      4  C   LIG    1       -2.830  -3.295  -1.972  0.00  0.00    +0.080 C 
ATOM      5  C   LIG    1       -1.409  -2.865  -2.263  0.00  0.00    +0.520 C 
ATOM      6  O   LIG    1       -0.912  -2.815  -3.368  0.00  0.00    -0.540 OA
ENDROOT
BRANCH   3   7
ATOM      7  C   LIG    1       -3.938  -3.771   0.237  0.00  0.00    +0.510 C 
ATOM      8  N   LIG    1       -5.225  -3.967  -0.112  0.00  0.00    -0.690 N 
ATOM      9  H   LIG    1       -5.604  -3.479  -0.859  0.00  0.00    +0.410 HD
ATOM     10  O   LIG    1       -3.463  -4.382   1.171  0.00  0.00    -0.550 OA
BRANCH   8  11
ATOM     11  C   LIG    1       -6.050  -4.919   0.636  0.00  0.00    +0.190 C 
BRANCH  11  12
ATOM     12  C   LIG    1       -7.437  -4.951   0.049  0.00  0.00    +0.490 C 
ATOM     13  O   LIG    1       -8.285  -5.684   0.529  0.00  0.00    -0.690 OA
ATOM     14  O   LIG    1       -7.711  -4.245  -0.906  0.00  0.00    -0.690 OA
ENDBRANCH  11  12
ENDBRANCH   8  11
ENDBRANCH   3   7
BRANCH   1  15
ATOM     15  C   LIG    1        0.613  -2.097  -1.041  0.00  0.00    +0.320 C 
BRANCH  15  16
ATOM     16  C   LIG    1        0.652  -0.570  -1.138  0.00  0.00    +0.150 C 
BRANCH  16  18
ATOM     17  C   LIG    1       -0.017   1.425   0.010  0.00  0.00    +0.200 C 
ATOM     18  O   LIG    1        0.002  -0.004   0.002  0.00  0.00    -0.390 OA
ENDBRANCH  16  18
ENDBRANCH  15  16
ENDBRANCH   1  15
TORSDOF 6
ENDMDL
MODEL      106
REMARK  Name = ZINC000000182882
REMARK                            x       y       z     vdW  Elec       q    Type
REMARK                         _______ _______ _______ _____ _____    ______ ____
ROOT
ATOM      1  N   SER A  1       -1.175   3.237  -0.665  0.00  0.00    -0.680 N 
ATOM      2  H   SER A  1       -0.987   4.039  -0.154  0.00  0.00    +0.400 HD
ATOM      3  C   UNK A  0       -1.295   3.305  -2.006  0.00  0.00    +0.550 C 
ATOM      4  O   UNK A  0       -1.531   2.300  -2.647  0.00  0.00    -0.540 OA
ENDROOT
BRANCH   3   5
ATOM      5  C   UNK A  0       -1.139   4.603  -2.697  0.00  0.00    -0.150 A 
ATOM      6  C   UNK A  0       -0.862   5.763  -1.972  0.00  0.00    +0.280 A 
ATOM      7  N   UNK A  0       -0.722   6.921  -2.584  0.00  0.00    -0.470 NA
ATOM      8  C   UNK A  0       -0.835   7.036  -3.893  0.00  0.00    +0.250 A 
ATOM      9  C   UNK A  0       -1.110   5.931  -4.687  0.00  0.00    +0.050 A 
ATOM     10  C   UNK A  0       -1.261   4.687  -4.088  0.00  0.00    +0.100 A 
BRANCH   9  11
ATOM     11  O   UNK A  0       -1.225   6.064  -6.035  0.00  0.00    -0.490 OA
ATOM     12  H   UNK A  0       -0.392   5.950  -6.514  0.00  0.00    +0.390 HD
ENDBRANCH   9  11
ENDBRANCH   3   5
BRANCH   1  13
ATOM     13  CA  SER A  1       -1.330   1.951   0.019  0.00  0.00    +0.170 C 
BRANCH  13  15
ATOM     14  O   SER A  1        0.002  -0.004   0.002  0.00  0.00    -0.700 OA
ATOM     15  C   SER A  1       -0.015   1.215   0.009  0.00  0.00    +0.500 C 
ATOM     16  OXT SER A  1        1.033   1.839   0.002  0.00  0.00    -0.680 OA
ENDBRANCH  13  15
BRANCH  13  17
ATOM     17  CB  SER A  1       -1.768   2.192   1.465  0.00  0.00    +0.190 C 
BRANCH  17  18
ATOM     18  OG  SER A  1       -0.729   2.873   2.170  0.00  0.00    -0.550 OA
ATOM     19  H   SER A  1       -0.938   3.059   3.096  0.00  0.00    +0.370 HD
ENDBRANCH  17  18
ENDBRANCH  13  17
ENDBRANCH   1  13
TORSDOF 6
ENDMDL
MODEL      107
REMARK  Name = ZINC000077010906
REMARK                            x       y       z     vdW  Elec       q    Type
REMARK                         _______ _______ _______ _____ _____    ______ ____
ROOT
ATOM      1  N   LIG    1       -1.698  -1.478  -1.454  0.00  0.00    -0.990 NA
ATOM      2  C   LIG    1       -2.431  -0.663  -2.435  0.00  0.00    +0.240 C 
ATOM      3  C   LIG    1       -3.392  -1.579  -3.202  0.00  0.00    +0.200 C 
ATOM      4  O   LIG    1       -2.665  -2.695  -3.720  0.00  0.00    -0.390 OA
ATOM      5  C   LIG    1       -2.076  -3.527  -2.718  0.00  0.00    +0.240 C 
ATOM      6  C   LIG    1       -1.043  -2.708  -1.927  0.00  0.00    +0.120 C 
ENDROOT
BRANCH   1   7
ATOM      7  S   LIG    1       -1.605  -1.021   0.135  0.00  0.00    +2.760 S 
ATOM      8  O   LIG    1       -2.737  -0.198   0.382  0.00  0.00    -1.000 OA
ATOM      9  O   LIG    1       -1.326  -2.200   0.877  0.00  0.00    -0.900 OA
BRANCH   7  11
ATOM     10  C   LIG    1       -0.415   1.407   0.168  0.00  0.00    +0.280 C 
ATOM     11  N   LIG    1       -0.276  -0.046   0.289  0.00  0.00    -1.010 NA
ATOM     12  C   LIG    1        1.040  -0.637   0.545  0.00  0.00    +0.290 C 
ENDBRANCH   7  11
ENDBRANCH   1   7
BRANCH   6  13
ATOM     13  C   LIG    1       -0.556  -3.509  -0.747  0.00  0.00    +0.500 C 
ATOM     14  O   LIG    1       -1.344  -4.168  -0.090  0.00  0.00    -0.640 OA
ATOM     15  O   LIG    1        0.626  -3.498  -0.449  0.00  0.00    -0.680 OA
ENDBRANCH   6  13
TORSDOF 3
ENDMDL
MODEL      108
REMARK  Name = ZINC000077010886
REMARK                            x       y       z     vdW  Elec       q    Type
REMARK                         _______ _______ _______ _____ _____    ______ ____
ROOT
ATOM      1  N   LIG    1        0.824  -0.750  -1.383  0.00  0.00    -0.990 NA
ATOM      2  C   LIG    1        0.137  -1.096  -2.638  0.00  0.00    +0.250 C 
ATOM      3  C   LIG    1        0.928  -2.210  -3.332  0.00  0.00    +0.200 C 
ATOM      4  O   LIG    1        2.297  -1.813  -3.446  0.00  0.00    -0.390 OA
ATOM      5  C   LIG    1        2.955  -1.611  -2.193  0.00  0.00    +0.230 C 
ATOM      6  C   LIG    1        2.266  -0.461  -1.442  0.00  0.00    +0.130 C 
ENDROOT
BRANCH   1   8
ATOM      7  C   LIG    1        0.142  -2.355   0.736  0.00  0.00    -0.280 C 
ATOM      8  S   LIG    1       -0.002  -0.682   0.050  0.00  0.00    +2.620 S 
ATOM      9  O   LIG    1        0.736   0.244   0.836  0.00  0.00    -0.920 OA
ATOM     10  O   LIG    1       -1.344  -0.413  -0.331  0.00  0.00    -0.990 OA
ENDBRANCH   1   8
BRANCH   6  11
ATOM     11  C   LIG    1        2.820  -0.365  -0.043  0.00  0.00    +0.510 C 
ATOM     12  O   LIG    1        2.570  -1.236   0.773  0.00  0.00    -0.690 OA
ATOM     13  O   LIG    1        3.517   0.584   0.272  0.00  0.00    -0.660 OA
ENDBRANCH   6  11
TORSDOF 2
ENDMDL
MODEL      109
REMARK  Name = ZINC000077010911
REMARK                            x       y       z     vdW  Elec       q    Type
REMARK                         _______ _______ _______ _____ _____    ______ ____
ROOT
ATOM      1  N   LIG    1       -2.455  -1.743  -1.420  0.00  0.00    -0.990 NA
ATOM      2  C   LIG    1       -3.514  -0.823  -1.865  0.00  0.00    +0.240 C 
ATOM      3  C   LIG    1       -2.855   0.472  -2.353  0.00  0.00    +0.200 C 
ATOM      4  O   LIG    1       -1.845   0.154  -3.314  0.00  0.00    -0.390 OA
ATOM      5  C   LIG    1       -0.774  -0.639  -2.796  0.00  0.00    +0.240 C 
ATOM      6  C   LIG    1       -1.323  -1.987  -2.328  0.00  0.00    +0.120 C 
ENDROOT
BRANCH   1   7
ATOM      7  S   LIG    1       -2.532  -2.477   0.063  0.00  0.00    +2.770 S 
ATOM      8  O   LIG    1       -1.303  -2.191   0.716  0.00  0.00    -0.920 OA
ATOM      9  O   LIG    1       -3.800  -2.142   0.611  0.00  0.00    -1.010 OA
BRANCH   7  11
ATOM     10  C   LIG    1       -1.406  -4.932   0.198  0.00  0.00    +0.300 C 
ATOM     11  N   LIG    1       -2.552  -4.112  -0.200  0.00  0.00    -1.000 NA
ATOM     12  C   LIG    1       -3.717  -4.738  -0.830  0.00  0.00    +0.270 C 
ENDBRANCH   7  11
ENDBRANCH   1   7
BRANCH   6  13
ATOM     13  C   LIG    1       -0.244  -2.752  -1.605  0.00  0.00    +0.460 C 
ATOM     14  O   LIG    1       -0.006  -3.907  -1.913  0.00  0.00    -0.670 OA
ATOM     15  O   LIG    1        0.390  -2.215  -0.714  0.00  0.00    -0.620 OA
ENDBRANCH   6  13
TORSDOF 3
ENDMDL
MODEL      110
REMARK  Name = ZINC000662877495
REMARK                            x       y       z     vdW  Elec       q    Type
REMARK                         _______ _______ _______ _____ _____    ______ ____
ROOT
ATOM      1  C   LIG    1       -0.093   1.421  -0.373  0.00  0.00    +0.330 C 
ATOM      2  N   LIG    1       -0.034  -0.031  -0.186  0.00  0.00    -0.560 N 
ATOM      3  C   LIG    1        0.013  -0.842  -1.262  0.00  0.00    +0.560 A 
ATOM      4  C   LIG    1        0.070  -2.233  -1.080  0.00  0.00    -0.240 A 
ATOM      5  C   LIG    1        0.076  -2.736   0.191  0.00  0.00    +0.470 A 
ATOM      6  N   LIG    1        0.027  -1.873   1.259  0.00  0.00    -0.550 N 
ATOM      7  C   LIG    1        0.034  -2.403   2.625  0.00  0.00    +0.340 C 
ATOM      8  O   LIG    1        0.006  -0.370  -2.386  0.00  0.00    -0.540 OA
ATOM      9  C   LIG    1       -0.021  -0.543   1.058  0.00  0.00    +0.710 A 
ATOM     10  O   LIG    1       -0.064   0.206   2.014  0.00  0.00    -0.550 OA
ENDROOT
BRANCH   5  11
ATOM     11  N   LIG    1        0.131  -4.091   0.399  0.00  0.00    -0.710 N 
ATOM     12  H   LIG    1        0.221  -4.440   1.299  0.00  0.00    +0.400 HD
BRANCH  11  13
ATOM     13  C   LIG    1        0.055  -5.010  -0.740  0.00  0.00    +0.300 C 
BRANCH  13  14
ATOM     14  C   LIG    1        0.015  -6.452  -0.230  0.00  0.00    -0.060 C 
BRANCH  14  15
ATOM     15  C   LIG    1       -0.064  -7.397  -1.401  0.00  0.00    +0.500 C 
ATOM     16  O   LIG    1       -0.105  -8.600  -1.211  0.00  0.00    -0.700 OA
ATOM     17  O   LIG    1       -0.085  -6.958  -2.538  0.00  0.00    -0.690 OA
ENDBRANCH  14  15
ENDBRANCH  13  14
ENDBRANCH  11  13
ENDBRANCH   5  11
TORSDOF 4
ENDMDL
MODEL      111
REMARK  Name = ZINC000006506349
REMARK                            x       y       z     vdW  Elec       q    Type
REMARK                         _______ _______ _______ _____ _____    ______ ____
ROOT
ATOM      1  C   LIG    1       -0.018   1.503   0.010  0.00  0.00    +0.180 C 
ATOM      2  C   LIG    1        0.002  -0.004   0.002  0.00  0.00    +0.020 A 
ATOM      3  N   LIG    1        0.006  -0.662  -1.126  0.00  0.00    -0.190 NA
ATOM      4  N   LIG    1        0.025  -2.063  -1.104  0.00  0.00    -0.520 N 
ATOM      5  H   LIG    1        0.027  -2.557  -1.939  0.00  0.00    +0.460 HD
ATOM      6  C   LIG    1        0.039  -2.735   0.074  0.00  0.00    +0.660 A 
ATOM      7  N   LIG    1        0.036  -2.095   1.225  0.00  0.00    -0.590 NA
ATOM      8  C   LIG    1        0.024  -0.756   1.259  0.00  0.00    +0.500 A 
ATOM      9  O   LIG    1        0.021  -0.167   2.329  0.00  0.00    -0.510 OA
ENDROOT
BRANCH   6  10
ATOM     10  N   LIG    1        0.059  -4.110   0.067  0.00  0.00    -0.340 N 
ATOM     11  N   LIG    1        0.068  -4.793  -1.153  0.00  0.00    -0.510 NA
ATOM     12  C   LIG    1        0.087  -6.139  -1.193  0.00  0.00    +0.460 A 
ATOM     13  C   LIG    1        0.098  -6.914   0.065  0.00  0.00    +0.000 A 
ATOM     14  C   LIG    1        0.089  -6.257   1.239  0.00  0.00    -0.020 A 
ATOM     15  O   LIG    1        0.096  -6.715  -2.263  0.00  0.00    -0.600 OA
ATOM     16  C   LIG    1        0.073  -4.780   1.234  0.00  0.00    +0.500 A 
ATOM     17  O   LIG    1        0.064  -4.169   2.285  0.00  0.00    -0.480 OA
ENDBRANCH   6  10
TORSDOF 1
ENDMDL
MODEL      112
REMARK  Name = ZINC000037393652
REMARK                            x       y       z     vdW  Elec       q    Type
REMARK                         _______ _______ _______ _____ _____    ______ ____
ROOT
ATOM      1  C   LIG    1        1.419   4.625   0.007  0.00  0.00    +0.290 C 
ENDROOT
BRANCH   1   6
ATOM      2  O   LIG    1        0.002  -0.004   0.002  0.00  0.00    -0.510 OA
ATOM      3  C   LIG    1       -0.014   1.209   0.009  0.00  0.00    +0.470 C 
ATOM      4  N   LIG    1       -1.100   2.012   0.029  0.00  0.00    -0.690 NA
ATOM      5  C   LIG    1       -0.693   3.292   0.031  0.00  0.00    +0.660 C 
ATOM      6  N   LIG    1        0.647   3.380   0.012  0.00  0.00    -0.610 N 
ATOM      7  O   LIG    1       -1.442   4.248   0.048  0.00  0.00    -0.570 OA
ATOM      8  C   LIG    1        1.167   2.134   0.002  0.00  0.00    +0.450 C 
ATOM      9  O   LIG    1        2.340   1.827  -0.014  0.00  0.00    -0.490 OA
ENDBRANCH   1   6
BRANCH   1  10
ATOM     10  C   LIG    1        1.708   5.051   1.448  0.00  0.00    +0.000 C 
BRANCH  10  11
ATOM     11  C   LIG    1        2.514   6.351   1.444  0.00  0.00    +0.180 C 
BRANCH  11  12
ATOM     12  N   LIG    1        2.792   6.759   2.827  0.00  0.00    -0.540 NA
ATOM     13  C   LIG    1        1.582   6.669   3.657  0.00  0.00    +0.140 C 
ATOM     14  C   LIG    1        1.929   7.045   5.100  0.00  0.00    +0.220 C 
ATOM     15  O   LIG    1        2.503   8.355   5.121  0.00  0.00    -0.390 OA
ATOM     16  C   LIG    1        3.684   8.479   4.324  0.00  0.00    +0.220 C 
ATOM     17  C   LIG    1        3.354   8.117   2.873  0.00  0.00    +0.150 C 
ENDBRANCH  11  12
ENDBRANCH  10  11
ENDBRANCH   1  10
TORSDOF 4
ENDMDL
MODEL      113
REMARK  Name = ZINC000257345585
REMARK                            x       y       z     vdW  Elec       q    Type
REMARK                         _______ _______ _______ _____ _____    ______ ____
ROOT
ATOM      1  C   LIG    1       -2.479   0.941   0.019  0.00  0.00    +0.210 C 
ATOM      2  O   LIG    1       -2.467   0.205  -1.206  0.00  0.00    -0.370 OA
ATOM      3  C   LIG    1       -3.490  -0.788  -1.300  0.00  0.00    +0.300 C 
ATOM      4  C   LIG    1       -4.862  -0.115  -1.218  0.00  0.00    +0.130 C 
ATOM      5  C   LIG    1       -4.959   0.671   0.093  0.00  0.00    +0.150 C 
ATOM      6  C   LIG    1       -3.811   1.683   0.154  0.00  0.00    +0.160 C 
ENDROOT
BRANCH   5   7
ATOM      7  O   LIG    1       -4.865  -0.229   1.198  0.00  0.00    -0.540 OA
ATOM      8  H   LIG    1       -5.559  -0.902   1.218  0.00  0.00    +0.370 HD
ENDBRANCH   5   7
BRANCH   4   9
ATOM      9  O   LIG    1       -5.025   0.775  -2.324  0.00  0.00    -0.550 OA
ATOM     10  H   LIG    1       -4.970   0.344  -3.188  0.00  0.00    +0.390 HD
ENDBRANCH   4   9
BRANCH   3  11
ATOM     11  O   LIG    1       -3.371  -1.478  -2.546  0.00  0.00    -0.560 OA
ATOM     12  H   LIG    1       -2.524  -1.928  -2.667  0.00  0.00    +0.400 HD
ENDBRANCH   3  11
BRANCH   6  13
ATOM     13  O   LIG    1       -3.849   2.373   1.405  0.00  0.00    -0.540 OA
ATOM     14  H   LIG    1       -4.669   2.863   1.559  0.00  0.00    +0.370 HD
ENDBRANCH   6  13
BRANCH   1  15
ATOM     15  C   LIG    1       -1.330   1.951   0.019  0.00  0.00    -0.040 C 
BRANCH  15  17
ATOM     16  O   LIG    1        0.002  -0.004   0.002  0.00  0.00    -0.690 OA
ATOM     17  C   LIG    1       -0.015   1.215   0.009  0.00  0.00    +0.500 C 
ATOM     18  O   LIG    1        1.033   1.839   0.002  0.00  0.00    -0.710 OA
ENDBRANCH  15  17
ENDBRANCH   1  15
TORSDOF 6
ENDMDL
MODEL      114
REMARK  Name = ZINC000003768462
REMARK                            x       y       z     vdW  Elec       q    Type
REMARK                         _______ _______ _______ _____ _____    ______ ____
ROOT
ATOM      1  C   LIG    1        0.019  -2.080  -1.177  0.00  0.00    -0.170 C 
ATOM      2  C   LIG    1        0.017  -2.755  -2.360  0.00  0.00    +0.140 A 
ATOM      3  N   LIG    1        0.029  -4.112  -2.523  0.00  0.00    -0.650 N 
ATOM      4  H   LIG    1        0.040  -4.701  -1.752  0.00  0.00    +0.410 HD
ATOM      5  C   LIG    1        0.025  -4.609  -3.749  0.00  0.00    +0.550 A 
ATOM      6  C   LIG    1        0.008  -3.596  -4.832  0.00  0.00    -0.280 A 
ATOM      7  C   LIG    1       -0.000  -3.812  -6.175  0.00  0.00    +0.120 C 
ATOM      8  O   LIG    1        0.034  -5.803  -3.970  0.00  0.00    -0.500 OA
ATOM      9  S   LIG    1       -0.009  -2.040  -3.981  0.00  0.00    +0.250 S 
ENDROOT
BRANCH   1  12
ATOM     10  C   LIG    1       -0.018   1.461   0.010  0.00  0.00    +0.280 C 
ATOM     11  N   LIG    1        0.002  -0.004   0.002  0.00  0.00    -0.630 N 
ATOM     12  C   LIG    1        0.000  -0.672  -1.169  0.00  0.00    +0.560 C 
ATOM     13  O   LIG    1       -0.018  -0.057  -2.221  0.00  0.00    -0.530 OA
ATOM     14  C   LIG    1        0.024  -0.743   1.267  0.00  0.00    +0.270 C 
ENDBRANCH   1  12
BRANCH   7  15
ATOM     15  C   LIG    1       -0.017  -2.714  -7.069  0.00  0.00    +0.490 C 
ATOM     16  O   LIG    1       -0.024  -2.908  -8.278  0.00  0.00    -0.670 OA
ATOM     17  O   LIG    1       -0.024  -1.569  -6.633  0.00  0.00    -0.650 OA
ENDBRANCH   7  15
TORSDOF 2
ENDMDL
MODEL      115
REMARK  Name = ZINC000002567986
REMARK                            x       y       z     vdW  Elec       q    Type
REMARK                         _______ _______ _______ _____ _____    ______ ____
ROOT
ATOM      1  C   GLY A  1        0.030   0.979   2.437  0.00  0.00    +0.490 C 
ATOM      2  N   GLU A  2       -0.423   1.292   3.667  0.00  0.00    -0.650 N 
ATOM      3  H   GLU A  2       -1.219   1.839   3.767  0.00  0.00    +0.400 HD
ATOM      4  O   GLY A  1        1.024   0.296   2.313  0.00  0.00    -0.550 OA
ENDROOT
BRANCH   1   5
ATOM      5  CA  GLY A  1       -0.699   1.479   1.216  0.00  0.00    +0.290 C 
BRANCH   5   6
ATOM      6  N   GLY A  1       -0.012   1.005   0.008  0.00  0.00    -0.620 N 
ATOM      7  H1  GLY A  1       -0.500   1.339  -0.810  0.00  0.00    +0.430 HD
ATOM      8  H2  GLY A  1        0.935   1.354   0.000  0.00  0.00    +0.440 HD
ATOM      9  H3  GLY A  1        0.002  -0.004   0.002  0.00  0.00    +0.440 HD
ENDBRANCH   5   6
ENDBRANCH   1   5
BRANCH   2  10
ATOM     10  CA  GLU A  2        0.285   0.807   4.854  0.00  0.00    +0.160 C 
BRANCH  10  11
ATOM     11  C   GLU A  2       -0.191  -0.583   5.190  0.00  0.00    +0.500 C 
ATOM     12  OXT GLU A  2        0.276  -1.172   6.150  0.00  0.00    -0.680 OA
ATOM     13  O   GLU A  2       -1.043  -1.119   4.502  0.00  0.00    -0.700 OA
ENDBRANCH  10  11
BRANCH  10  14
ATOM     14  CB  GLU A  2        0.004   1.741   6.033  0.00  0.00    +0.060 C 
BRANCH  14  15
ATOM     15  CG  GLU A  2        0.598   3.121   5.743  0.00  0.00    -0.080 C 
BRANCH  15  16
ATOM     16  CD  GLU A  2        0.322   4.040   6.904  0.00  0.00    +0.490 C 
ATOM     17  OE2 GLU A  2        0.713   5.195   6.875  0.00  0.00    -0.710 OA
ATOM     18  OE1 GLU A  2       -0.293   3.630   7.874  0.00  0.00    -0.690 OA
ENDBRANCH  15  16
ENDBRANCH  14  15
ENDBRANCH  10  14
ENDBRANCH   2  10
TORSDOF 7
ENDMDL
MODEL      116
REMARK  Name = ZINC000000349179
REMARK                            x       y       z     vdW  Elec       q    Type
REMARK                         _______ _______ _______ _____ _____    ______ ____
ROOT
ATOM      1  N   LIG    1        0.034  -4.146  -2.630  0.00  0.00    -0.710 N 
ATOM      2  H   LIG    1        0.048  -4.635  -1.793  0.00  0.00    +0.410 HD
ENDROOT
BRANCH   1   3
ATOM      3  C   LIG    1        0.031  -4.837  -3.842  0.00  0.00    +0.270 A 
ATOM      4  N   LIG    1        0.017  -4.187  -4.977  0.00  0.00    -0.320 NA
ATOM      5  N   LIG    1        0.016  -4.896  -6.185  0.00  0.00    -0.580 N 
ATOM      6  H   LIG    1        0.005  -4.409  -7.024  0.00  0.00    +0.410 HD
ATOM      7  C   LIG    1        0.029  -6.240  -6.198  0.00  0.00    +0.640 A 
ATOM      8  N   LIG    1        0.044  -6.947  -5.053  0.00  0.00    -0.690 NA
ATOM      9  O   LIG    1        0.027  -6.827  -7.263  0.00  0.00    -0.610 OA
ATOM     10  C   LIG    1        0.051  -6.308  -3.864  0.00  0.00    +0.500 A 
ATOM     11  O   LIG    1        0.065  -6.941  -2.824  0.00  0.00    -0.580 OA
ENDBRANCH   1   3
BRANCH   1  12
ATOM     12  C   LIG    1        0.014  -2.681  -2.622  0.00  0.00    +0.290 C 
BRANCH  12  13
ATOM     13  C   LIG    1        0.021  -2.178  -1.177  0.00  0.00    +0.050 C 
BRANCH  13  16
ATOM     14  C   LIG    1       -0.018   1.461   0.010  0.00  0.00    +0.290 C 
ATOM     15  N   LIG    1        0.002  -0.004   0.002  0.00  0.00    -0.630 N 
ATOM     16  C   LIG    1        0.000  -0.672  -1.169  0.00  0.00    +0.520 C 
ATOM     17  O   LIG    1       -0.018  -0.060  -2.216  0.00  0.00    -0.530 OA
ATOM     18  C   LIG    1        0.024  -0.743   1.267  0.00  0.00    +0.290 C 
ENDBRANCH  13  16
ENDBRANCH  12  13
ENDBRANCH   1  12
TORSDOF 4
ENDMDL
MODEL      117
REMARK  Name = ZINC000032107182
REMARK                            x       y       z     vdW  Elec       q    Type
REMARK                         _______ _______ _______ _____ _____    ______ ____
ROOT
ATOM      1  C   LIG    1       -1.295  -0.603   0.011  0.00  0.00    +0.400 C 
ATOM      2  O   LIG    1       -1.927  -0.349  -1.228  0.00  0.00    -0.350 OA
ATOM      3  C   LIG    1       -1.457  -1.047  -2.363  0.00  0.00    +0.140 C 
ATOM      4  C   LIG    1       -1.681  -2.545  -2.256  0.00  0.00    +0.200 C 
ATOM      5  C   LIG    1       -1.286  -3.068  -0.879  0.00  0.00    -0.020 C 
ATOM      6  C   LIG    1       -2.370  -3.000   0.207  0.00  0.00    -0.080 C 
ATOM      7  C   LIG    1       -1.151  -2.091   0.281  0.00  0.00    -0.050 C 
ENDROOT
BRANCH   6   8
ATOM      8  C   LIG    1       -3.688  -2.368  -0.161  0.00  0.00    +0.530 C 
ATOM      9  O   LIG    1       -4.361  -2.843  -1.060  0.00  0.00    -0.690 OA
ATOM     10  O   LIG    1       -4.081  -1.383   0.440  0.00  0.00    -0.680 OA
ENDBRANCH   6   8
BRANCH   1  12
ATOM     11  C   LIG    1       -0.017   1.425   0.010  0.00  0.00    +0.210 C 
ATOM     12  O   LIG    1        0.002  -0.004   0.002  0.00  0.00    -0.410 OA
ENDBRANCH   1  12
BRANCH   4  13
ATOM     13  O   LIG    1       -0.896  -3.207  -3.250  0.00  0.00    -0.560 OA
ATOM     14  H   LIG    1       -1.108  -2.947  -4.157  0.00  0.00    +0.370 HD
ENDBRANCH   4  13
BRANCH   3  15
ATOM     15  C   LIG    1       -2.187  -0.526  -3.603  0.00  0.00    +0.190 C 
BRANCH  15  16
ATOM     16  O   LIG    1       -1.839   0.843  -3.821  0.00  0.00    -0.560 OA
ATOM     17  H   LIG    1       -2.267   1.239  -4.592  0.00  0.00    +0.370 HD
ENDBRANCH  15  16
ENDBRANCH   3  15
TORSDOF 5
ENDMDL
MODEL      118
REMARK  Name = ZINC000038590366
REMARK                            x       y       z     vdW  Elec       q    Type
REMARK                         _______ _______ _______ _____ _____    ______ ____
ROOT
ATOM      1  C   LIG    1       -1.330   1.957   0.023  0.00  0.00    +0.210 C 
ATOM      2  C   LIG    1       -1.371   2.921   1.212  0.00  0.00    +0.030 C 
ATOM      3  C   LIG    1       -2.736   3.617   1.248  0.00  0.00    +0.140 C 
ATOM      4  C   LIG    1       -3.836   2.554   1.323  0.00  0.00    +0.170 C 
ATOM      5  C   LIG    1       -3.700   1.605   0.130  0.00  0.00    +0.170 C 
ATOM      6  O   LIG    1       -2.399   1.015   0.138  0.00  0.00    -0.340 OA
ENDROOT
BRANCH   1   8
ATOM      7  O   LIG    1        0.007   0.006   0.007  0.00  0.00    -0.660 OA
ATOM      8  C   LIG    1       -0.013   1.225   0.015  0.00  0.00    +0.500 C 
ATOM      9  O   LIG    1        1.033   1.852   0.010  0.00  0.00    -0.670 OA
ENDBRANCH   1   8
BRANCH   4  10
ATOM     10  O   LIG    1       -3.706   1.816   2.540  0.00  0.00    -0.550 OA
ATOM     11  H   LIG    1       -3.778   2.357   3.338  0.00  0.00    +0.380 HD
ENDBRANCH   4  10
BRANCH   3  12
ATOM     12  O   LIG    1       -2.809   4.465   2.396  0.00  0.00    -0.570 OA
ATOM     13  H   LIG    1       -2.135   5.158   2.416  0.00  0.00    +0.380 HD
ENDBRANCH   3  12
BRANCH   1  14
ATOM     14  O   LIG    1       -1.474   2.694  -1.193  0.00  0.00    -0.560 OA
ATOM     15  H   LIG    1       -1.457   2.146  -1.989  0.00  0.00    +0.380 HD
ENDBRANCH   1  14
BRANCH   5  16
ATOM     16  C   LIG    1       -3.898   2.387  -1.170  0.00  0.00    +0.210 C 
BRANCH  16  17
ATOM     17  O   LIG    1       -5.237   2.884  -1.228  0.00  0.00    -0.550 OA
ATOM     18  H   LIG    1       -5.913   2.193  -1.205  0.00  0.00    +0.360 HD
ENDBRANCH  16  17
BRANCH  16  19
ATOM     19  C   LIG    1       -3.644   1.465  -2.364  0.00  0.00    +0.170 C 
BRANCH  19  20
ATOM     20  O   LIG    1       -3.714   2.222  -3.574  0.00  0.00    -0.560 OA
ATOM     21  H   LIG    1       -3.562   1.700  -4.374  0.00  0.00    +0.380 HD
ENDBRANCH  19  20
ENDBRANCH  16  19
ENDBRANCH   5  16
TORSDOF 8
ENDMDL
MODEL      119
REMARK  Name = ZINC000095549036
REMARK                            x       y       z     vdW  Elec       q    Type
REMARK                         _______ _______ _______ _____ _____    ______ ____
ROOT
ATOM      1  C   LIG    1       -0.066   1.500  -0.053  0.00  0.00    +0.130 C 
ATOM      2  C   LIG    1        0.002  -0.004   0.002  0.00  0.00    +0.310 C 
ATOM      3  C   LIG    1       -0.123  -0.744  -1.159  0.00  0.00    -0.440 C 
ATOM      4  C   LIG    1       -0.218  -2.215  -1.127  0.00  0.00    +0.550 C 
ATOM      5  N   LIG    1       -0.339  -2.871  -2.299  0.00  0.00    -0.720 NA
ATOM      6  C   LIG    1       -0.371  -2.217  -3.469  0.00  0.00    +0.660 C 
ATOM      7  N   LIG    1       -0.290  -0.883  -3.572  0.00  0.00    -0.700 N 
ATOM      8  H   LIG    1       -0.321  -0.473  -4.451  0.00  0.00    +0.390 HD
ATOM      9  O   LIG    1       -0.481  -2.868  -4.489  0.00  0.00    -0.610 OA
ATOM     10  O   LIG    1       -0.190  -2.820  -0.072  0.00  0.00    -0.600 OA
ATOM     11  C   LIG    1       -0.172  -0.097  -2.482  0.00  0.00    +0.580 C 
ATOM     12  O   LIG    1       -0.100   1.113  -2.589  0.00  0.00    -0.570 OA
ENDROOT
BRANCH   2  13
ATOM     13  N   LIG    1        0.185  -0.628   1.183  0.00  0.00    -0.680 N 
ATOM     14  H   LIG    1        0.312  -1.589   1.209  0.00  0.00    +0.430 HD
BRANCH  13  15
ATOM     15  C   LIG    1        0.190   0.145   2.427  0.00  0.00    +0.250 C 
BRANCH  15  16
ATOM     16  C   LIG    1        0.414  -0.796   3.612  0.00  0.00    +0.020 C 
BRANCH  16  17
ATOM     17  C   LIG    1        0.420   0.012   4.911  0.00  0.00    +0.180 C 
BRANCH  17  18
ATOM     18  O   LIG    1        0.629  -0.868   6.018  0.00  0.00    -0.570 OA
ATOM     19  H   LIG    1        0.644  -0.423   6.877  0.00  0.00    +0.380 HD
ENDBRANCH  17  18
ENDBRANCH  16  17
ENDBRANCH  15  16
ENDBRANCH  13  15
ENDBRANCH   2  13
TORSDOF 5
ENDMDL
MODEL      120
REMARK  Name = ZINC000101135571
REMARK                            x       y       z     vdW  Elec       q    Type
REMARK                         _______ _______ _______ _____ _____    ______ ____
ROOT
ATOM      1  C   LIG    1       -2.479   0.941   0.019  0.00  0.00    +0.210 C 
ATOM      2  O   LIG    1       -2.467   0.205  -1.206  0.00  0.00    -0.360 OA
ATOM      3  C   LIG    1       -3.490  -0.788  -1.300  0.00  0.00    +0.290 C 
ATOM      4  C   LIG    1       -4.862  -0.115  -1.218  0.00  0.00    +0.130 C 
ATOM      5  C   LIG    1       -4.959   0.671   0.093  0.00  0.00    +0.160 C 
ATOM      6  C   LIG    1       -3.811   1.683   0.154  0.00  0.00    +0.150 C 
ENDROOT
BRANCH   5   7
ATOM      7  O   LIG    1       -6.210   1.361   0.146  0.00  0.00    -0.550 OA
ATOM      8  H   LIG    1       -6.981   0.779   0.105  0.00  0.00    +0.380 HD
ENDBRANCH   5   7
BRANCH   4   9
ATOM      9  O   LIG    1       -5.025   0.775  -2.324  0.00  0.00    -0.530 OA
ATOM     10  H   LIG    1       -4.970   0.344  -3.188  0.00  0.00    +0.380 HD
ENDBRANCH   4   9
BRANCH   3  11
ATOM     11  O   LIG    1       -3.371  -1.478  -2.546  0.00  0.00    -0.550 OA
ATOM     12  H   LIG    1       -2.524  -1.928  -2.667  0.00  0.00    +0.390 HD
ENDBRANCH   3  11
BRANCH   6  13
ATOM     13  O   LIG    1       -3.945   2.623  -0.913  0.00  0.00    -0.520 OA
ATOM     14  H   LIG    1       -4.771   3.127  -0.892  0.00  0.00    +0.370 HD
ENDBRANCH   6  13
BRANCH   1  15
ATOM     15  C   LIG    1       -1.330   1.951   0.019  0.00  0.00    -0.020 C 
BRANCH  15  17
ATOM     16  O   LIG    1        0.002  -0.004   0.002  0.00  0.00    -0.690 OA
ATOM     17  C   LIG    1       -0.015   1.215   0.009  0.00  0.00    +0.490 C 
ATOM     18  O   LIG    1        1.033   1.839   0.002  0.00  0.00    -0.710 OA
ENDBRANCH  15  17
ENDBRANCH   1  15
TORSDOF 6
ENDMDL
MODEL      121
REMARK  Name = ZINC000101190950
REMARK                            x       y       z     vdW  Elec       q    Type
REMARK                         _______ _______ _______ _____ _____    ______ ____
ROOT
ATOM      1  C   LIG    1       -1.439   1.250  -0.300  0.00  0.00    +0.220 C 
ATOM      2  C   LIG    1       -1.100   2.100   0.927  0.00  0.00    +0.030 C 
ATOM      3  C   LIG    1       -2.241   3.088   1.186  0.00  0.00    +0.140 C 
ATOM      4  C   LIG    1       -3.547   2.307   1.363  0.00  0.00    +0.150 C 
ATOM      5  C   LIG    1       -3.792   1.450   0.118  0.00  0.00    +0.170 C 
ATOM      6  O   LIG    1       -2.680   0.576  -0.083  0.00  0.00    -0.330 OA
ENDROOT
BRANCH   1   8
ATOM      7  O   LIG    1       -0.623  -0.950  -0.595  0.00  0.00    -0.660 OA
ATOM      8  C   LIG    1       -0.348   0.236  -0.527  0.00  0.00    +0.500 C 
ATOM      9  O   LIG    1        0.809   0.601  -0.647  0.00  0.00    -0.670 OA
ENDBRANCH   1   8
BRANCH   4  10
ATOM     10  O   LIG    1       -3.449   1.465   2.513  0.00  0.00    -0.540 OA
ATOM     11  H   LIG    1       -3.289   1.943   3.338  0.00  0.00    +0.380 HD
ENDBRANCH   4  10
BRANCH   3  12
ATOM     12  O   LIG    1       -1.966   3.836   2.372  0.00  0.00    -0.570 OA
ATOM     13  H   LIG    1       -1.148   4.350   2.332  0.00  0.00    +0.380 HD
ENDBRANCH   3  12
BRANCH   1  14
ATOM     14  O   LIG    1       -1.551   2.095  -1.448  0.00  0.00    -0.560 OA
ATOM     15  H   LIG    1       -1.686   1.615  -2.277  0.00  0.00    +0.380 HD
ENDBRANCH   1  14
BRANCH   5  16
ATOM     16  C   LIG    1       -3.955   2.358  -1.103  0.00  0.00    +0.220 C 
BRANCH  16  17
ATOM     17  O   LIG    1       -4.028   1.558  -2.285  0.00  0.00    -0.530 OA
ATOM     18  H   LIG    1       -4.808   0.988  -2.327  0.00  0.00    +0.370 HD
ENDBRANCH  16  17
BRANCH  16  19
ATOM     19  C   LIG    1       -5.240   3.177  -0.961  0.00  0.00    +0.140 C 
BRANCH  19  20
ATOM     20  O   LIG    1       -5.342   4.094  -2.053  0.00  0.00    -0.560 OA
ATOM     21  H   LIG    1       -6.135   4.647  -2.028  0.00  0.00    +0.370 HD
ENDBRANCH  19  20
ENDBRANCH  16  19
ENDBRANCH   5  16
TORSDOF 8
ENDMDL
MODEL      122
REMARK  Name = ZINC000001919729
REMARK                            x       y       z     vdW  Elec       q    Type
REMARK                         _______ _______ _______ _____ _____    ______ ____
ROOT
ATOM      1  C   LIG    1       -3.745   1.973   0.030  0.00  0.00    +0.550 C 
ATOM      2  N   LIG    1       -4.903   1.284   0.032  0.00  0.00    -0.720 N 
ATOM      3  H   LIG    1       -4.890   0.314   0.027  0.00  0.00    +0.410 HD
ATOM      4  O   LIG    1       -3.762   3.188   0.037  0.00  0.00    -0.550 OA
ENDROOT
BRANCH   2   5
ATOM      5  C   LIG    1       -6.182   1.999   0.042  0.00  0.00    +0.260 C 
ATOM      6  C   LIG    1       -6.599   2.312   1.490  0.00  0.00    +0.060 C 
ATOM      7  C   LIG    1       -8.078   2.748   1.495  0.00  0.00    -0.310 C 
ATOM      8  S   LIG    1       -8.826   1.908   0.052  0.00  0.00    +2.400 S 
ATOM      9  O   LIG    1       -9.255   2.883  -0.889  0.00  0.00    -0.930 OA
ATOM     10  O   LIG    1       -9.735   0.914   0.504  0.00  0.00    -0.940 OA
ATOM     11  C   LIG    1       -7.296   1.103  -0.557  0.00  0.00    -0.310 C 
ENDBRANCH   2   5
BRANCH   1  13
ATOM     12  C   LIG    1       -1.301   1.938   0.019  0.00  0.00    +0.020 C 
ATOM     13  C   LIG    1       -2.455   1.251   0.021  0.00  0.00    -0.090 C 
BRANCH  12  15
ATOM     14  O   LIG    1        0.002  -0.004   0.002  0.00  0.00    -0.680 OA
ATOM     15  C   LIG    1       -0.015   1.219   0.009  0.00  0.00    +0.500 C 
ATOM     16  O   LIG    1        1.036   1.844   0.002  0.00  0.00    -0.680 OA
ENDBRANCH  12  15
ENDBRANCH   1  13
TORSDOF 3
ENDMDL
MODEL      123
REMARK  Name = ZINC000002738766
REMARK                            x       y       z     vdW  Elec       q    Type
REMARK                         _______ _______ _______ _____ _____    ______ ____
ROOT
ATOM      1  C   LIG    1       -4.616   0.447  -0.985  0.00  0.00    +0.570 C 
ATOM      2  N   LIG    1       -4.903   1.284   0.032  0.00  0.00    -0.590 N 
ATOM      3  H   LIG    1       -4.298   1.355   0.787  0.00  0.00    +0.380 HD
ATOM      4  O   LIG    1       -5.416   0.290  -1.886  0.00  0.00    -0.530 OA
ENDROOT
BRANCH   2   5
ATOM      5  N   LIG    1       -6.046   2.031   0.000  0.00  0.00    -0.290 NA
ATOM      6  C   LIG    1       -5.737   3.460  -0.155  0.00  0.00    +0.140 C 
ATOM      7  C   LIG    1       -7.044   4.253  -0.246  0.00  0.00    +0.240 C 
ATOM      8  O   LIG    1       -7.835   3.993   0.917  0.00  0.00    -0.390 OA
ATOM      9  C   LIG    1       -8.155   2.611   1.098  0.00  0.00    +0.240 C 
ATOM     10  C   LIG    1       -6.860   1.802   1.203  0.00  0.00    +0.140 C 
ENDBRANCH   2   5
BRANCH   1  12
ATOM     11  C   LIG    1       -3.042  -1.112  -2.018  0.00  0.00    +0.020 C 
ATOM     12  C   LIG    1       -3.328  -0.279  -1.004  0.00  0.00    -0.080 C 
BRANCH  11  14
ATOM     13  O   LIG    1       -0.953  -1.677  -1.131  0.00  0.00    -0.680 OA
ATOM     14  C   LIG    1       -1.758  -1.835  -2.037  0.00  0.00    +0.500 C 
ATOM     15  O   LIG    1       -1.499  -2.598  -2.958  0.00  0.00    -0.680 OA
ENDBRANCH  11  14
ENDBRANCH   1  12
TORSDOF 3
ENDMDL
MODEL      124
REMARK  Name = ZINC000169318147
REMARK                            x       y       z     vdW  Elec       q    Type
REMARK                         _______ _______ _______ _____ _____    ______ ____
ROOT
ATOM      1  C   LIG    1       -0.018   1.461   0.010  0.00  0.00    +0.340 C 
ATOM      2  N   LIG    1        0.002  -0.004   0.002  0.00  0.00    -0.410 N 
ATOM      3  C   LIG    1        0.009  -0.800  -1.085  0.00  0.00    +0.480 A 
ATOM      4  N   LIG    1        0.028  -2.054  -0.714  0.00  0.00    -0.500 NA
ATOM      5  C   LIG    1        0.034  -2.132   0.619  0.00  0.00    +0.310 A 
ATOM      6  N   LIG    1        0.053  -3.184   1.520  0.00  0.00    -0.520 N 
ATOM      7  C   LIG    1        0.063  -4.565   1.032  0.00  0.00    +0.330 C 
ATOM      8  C   LIG    1        0.052  -2.939   2.844  0.00  0.00    +0.710 A 
ATOM      9  O   LIG    1        0.064  -3.876   3.620  0.00  0.00    -0.540 OA
ATOM     10  N   LIG    1        0.042  -1.686   3.330  0.00  0.00    -0.510 N 
ATOM     11  C   LIG    1        0.028  -0.620   2.503  0.00  0.00    +0.600 A 
ATOM     12  O   LIG    1        0.019   0.510   2.955  0.00  0.00    -0.520 OA
ATOM     13  C   LIG    1        0.024  -0.831   1.107  0.00  0.00    -0.140 A 
ENDROOT
BRANCH  10  14
ATOM     14  C   LIG    1        0.046  -1.474   4.780  0.00  0.00    +0.240 C 
BRANCH  14  15
ATOM     15  C   LIG    1       -1.373  -1.416   5.283  0.00  0.00    +0.490 C 
ATOM     16  O   LIG    1       -1.593  -1.245   6.470  0.00  0.00    -0.690 OA
ATOM     17  O   LIG    1       -2.302  -1.540   4.503  0.00  0.00    -0.680 OA
ENDBRANCH  14  15
ENDBRANCH  10  14
TORSDOF 2
ENDMDL
MODEL      125
REMARK  Name = ZINC000003995565
REMARK                            x       y       z     vdW  Elec       q    Type
REMARK                         _______ _______ _______ _____ _____    ______ ____
ROOT
ATOM      1  C   LIG    1       -2.135   0.949   1.227  0.00  0.00    +0.090 C 
ENDROOT
BRANCH   1   2
ATOM      2  CA  LIG    1       -0.699   1.479   1.216  0.00  0.00    +0.080 C 
BRANCH   2   3
ATOM      3  N   LIG    1       -0.012   1.005   0.008  0.00  0.00    -0.620 N 
ATOM      4  H1  LIG    1       -0.500   1.339  -0.810  0.00  0.00    +0.430 HD
ATOM      5  H2  LIG    1        0.935   1.354   0.000  0.00  0.00    +0.430 HD
ATOM      6  H3  LIG    1        0.002  -0.004   0.002  0.00  0.00    +0.410 HD
ENDBRANCH   2   3
BRANCH   2   7
ATOM      7  C   LIG    1       -0.720   2.985   1.224  0.00  0.00    +0.490 C 
ATOM      8  OXT LIG    1       -0.718   3.589   2.284  0.00  0.00    -0.640 OA
ATOM      9  O   LIG    1       -0.738   3.601   0.172  0.00  0.00    -0.670 OA
ENDBRANCH   2   7
ENDBRANCH   1   2
BRANCH   1  10
ATOM     10  C   LIG    1       -2.115  -0.576   1.344  0.00  0.00    +0.030 C 
BRANCH  10  11
ATOM     11  C   LIG    1       -3.528  -1.098   1.355  0.00  0.00    +0.500 C 
ATOM     12  N   LIG    1       -3.757  -2.423   1.452  0.00  0.00    -0.700 N 
ATOM     13  H   LIG    1       -3.012  -3.040   1.515  0.00  0.00    +0.410 HD
ATOM     14  O   LIG    1       -4.460  -0.326   1.277  0.00  0.00    -0.550 OA
BRANCH  12  15
ATOM     15  C   LIG    1       -5.132  -2.930   1.462  0.00  0.00    +0.190 C 
BRANCH  15  16
ATOM     16  C   LIG    1       -5.112  -4.432   1.578  0.00  0.00    +0.490 C 
ATOM     17  O   LIG    1       -6.159  -5.055   1.604  0.00  0.00    -0.690 OA
ATOM     18  O   LIG    1       -4.048  -5.024   1.645  0.00  0.00    -0.690 OA
ENDBRANCH  15  16
ENDBRANCH  12  15
ENDBRANCH  10  11
ENDBRANCH   1  10
TORSDOF 7
ENDMDL
MODEL      126
REMARK  Name = ZINC000005187731
REMARK                            x       y       z     vdW  Elec       q    Type
REMARK                         _______ _______ _______ _____ _____    ______ ____
ROOT
ATOM      1  CA  LIG    1        0.033  -0.070  -0.027  0.00  0.00    +0.200 C 
ATOM      2  C   LIG    1        0.213  -0.666  -1.412  0.00  0.00    +0.500 C 
ATOM      3  N   LIG    1       -1.092  -0.977  -1.484  0.00  0.00    -0.560 N 
ATOM      4  CA  LIG    1       -2.044  -1.296  -2.467  0.00  0.00    +0.070 C 
ATOM      5  C   LIG    1       -3.319  -0.977  -2.283  0.00  0.00    -0.170 C 
ATOM      6  C   LIG    1       -3.949  -0.331  -1.094  0.00  0.00    +0.190 C 
ATOM      7  S   LIG    1       -2.735   0.543  -0.060  0.00  0.00    -0.220 S 
ATOM      8  O   LIG    1        1.160  -0.807  -2.158  0.00  0.00    -0.460 OA
ATOM      9  C   LIG    1       -1.370  -0.667  -0.042  0.00  0.00    +0.270 C 
ENDROOT
BRANCH   1  10
ATOM     10  N   LIG    1        0.048   1.399  -0.011  0.00  0.00    -0.800 NA
ATOM     11  H1  LIG    1       -0.492   1.774  -0.776  0.00  0.00    +0.360 HD
ATOM     12  H2  LIG    1        0.993   1.751  -0.028  0.00  0.00    +0.350 HD
ENDBRANCH   1  10
BRANCH   4  13
ATOM     13  C   LIG    1       -1.628  -1.983  -3.700  0.00  0.00    +0.520 C 
ATOM     14  OXT LIG    1       -0.440  -2.183  -3.918  0.00  0.00    -0.650 OA
ATOM     15  O   LIG    1       -2.469  -2.356  -4.507  0.00  0.00    -0.670 OA
ENDBRANCH   4  13
BRANCH   5  16
ATOM     16  C   LIG    1       -4.250  -1.310  -3.421  0.00  0.00    +0.280 C 
BRANCH  16  17
ATOM     17  O   LIG    1       -5.556  -0.810  -3.129  0.00  0.00    -0.600 OA
ATOM     18  H   LIG    1       -6.226  -1.054  -3.782  0.00  0.00    +0.370 HD
ENDBRANCH  16  17
ENDBRANCH   5  16
TORSDOF 4
ENDMDL
MODEL      127
REMARK  Name = ZINC000126726281
REMARK                            x       y       z     vdW  Elec       q    Type
REMARK                         _______ _______ _______ _____ _____    ______ ____
ROOT
ATOM      1  C   LIG    1       -1.370  -0.799   0.063  0.00  0.00    +0.100 C 
ATOM      2  C   LIG    1       -2.240  -0.340  -1.109  0.00  0.00    +0.250 C 
ATOM      3  O   LIG    1       -3.391  -1.184  -1.202  0.00  0.00    -0.380 OA
ATOM      4  C   LIG    1       -3.076  -2.567  -1.385  0.00  0.00    +0.220 C 
ATOM      5  C   LIG    1       -2.214  -3.049  -0.215  0.00  0.00    +0.150 C 
ATOM      6  N   LIG    1       -1.009  -2.212  -0.123  0.00  0.00    -0.520 NA
ENDROOT
BRANCH   1  10
ATOM      7  N   LIG    1       -0.107   1.192   0.812  0.00  0.00    -0.860 N 
ATOM      8  H   LIG    1       -0.908   1.488   1.274  0.00  0.00    +0.400 HD
ATOM      9  H   LIG    1        0.699   1.730   0.847  0.00  0.00    +0.400 HD
ATOM     10  C   LIG    1       -0.117   0.037   0.118  0.00  0.00    +0.530 C 
ATOM     11  O   LIG    1        0.882  -0.329  -0.464  0.00  0.00    -0.520 OA
ENDBRANCH   1  10
BRANCH   6  12
ATOM     12  C   LIG    1       -0.126  -2.678   0.954  0.00  0.00    +0.240 C 
BRANCH  12  13
ATOM     13  C   LIG    1       -0.826  -2.495   2.303  0.00  0.00    -0.110 C 
BRANCH  13  14
ATOM     14  C   LIG    1        0.081  -2.973   3.408  0.00  0.00    +0.490 C 
ATOM     15  O   LIG    1       -0.290  -2.914   4.568  0.00  0.00    -0.710 OA
ATOM     16  O   LIG    1        1.184  -3.418   3.142  0.00  0.00    -0.690 OA
ENDBRANCH  13  14
ENDBRANCH  12  13
ENDBRANCH   6  12
TORSDOF 4
ENDMDL
MODEL      128
REMARK  Name = ZINC000126726606
REMARK                            x       y       z     vdW  Elec       q    Type
REMARK                         _______ _______ _______ _____ _____    ______ ____
ROOT
ATOM      1  C   LIG    1       -0.996  -0.776   0.194  0.00  0.00    +0.100 C 
ATOM      2  C   LIG    1       -1.745  -0.537   1.507  0.00  0.00    +0.250 C 
ATOM      3  O   LIG    1       -3.074  -1.054   1.393  0.00  0.00    -0.380 OA
ATOM      4  C   LIG    1       -3.124  -2.450   1.091  0.00  0.00    +0.220 C 
ATOM      5  C   LIG    1       -2.389  -2.709  -0.227  0.00  0.00    +0.150 C 
ATOM      6  N   LIG    1       -1.009  -2.212  -0.119  0.00  0.00    -0.520 NA
ENDROOT
BRANCH   1  10
ATOM      7  N   LIG    1        0.745   0.977   0.062  0.00  0.00    -0.860 N 
ATOM      8  H   LIG    1        0.056   1.595  -0.228  0.00  0.00    +0.400 HD
ATOM      9  H   LIG    1        1.662   1.280   0.153  0.00  0.00    +0.400 HD
ATOM     10  C   LIG    1        0.429  -0.304   0.335  0.00  0.00    +0.520 C 
ATOM     11  O   LIG    1        1.291  -1.079   0.693  0.00  0.00    -0.510 OA
ENDBRANCH   1  10
BRANCH   6  12
ATOM     12  C   LIG    1       -0.251  -2.492  -1.346  0.00  0.00    +0.190 C 
BRANCH  12  13
ATOM     13  C   LIG    1        0.125  -3.975  -1.385  0.00  0.00    -0.050 C 
BRANCH  13  14
ATOM     14  C   LIG    1        0.903  -4.262  -2.644  0.00  0.00    +0.490 C 
ATOM     15  O   LIG    1        1.301  -5.392  -2.870  0.00  0.00    -0.700 OA
ATOM     16  O   LIG    1        1.135  -3.364  -3.435  0.00  0.00    -0.700 OA
ENDBRANCH  13  14
ENDBRANCH  12  13
ENDBRANCH   6  12
TORSDOF 4
ENDMDL
MODEL      129
REMARK  Name = ZINC000077010890
REMARK                            x       y       z     vdW  Elec       q    Type
REMARK                         _______ _______ _______ _____ _____    ______ ____
ROOT
ATOM      1  N   LIG    1        0.900  -0.954  -1.200  0.00  0.00    -0.990 NA
ATOM      2  C   LIG    1        0.087  -1.336  -2.365  0.00  0.00    +0.250 C 
ATOM      3  C   LIG    1        0.132  -0.191  -3.383  0.00  0.00    +0.200 C 
ATOM      4  O   LIG    1        1.495   0.151  -3.646  0.00  0.00    -0.390 OA
ATOM      5  C   LIG    1        2.207   0.636  -2.504  0.00  0.00    +0.230 C 
ATOM      6  C   LIG    1        2.266  -0.461  -1.442  0.00  0.00    +0.130 C 
ENDROOT
BRANCH   1   8
ATOM      7  C   LIG    1       -0.458   0.551   0.649  0.00  0.00    -0.280 C 
ATOM      8  S   LIG    1        0.295  -1.069   0.337  0.00  0.00    +2.620 S 
ATOM      9  O   LIG    1       -0.705  -2.074   0.246  0.00  0.00    -0.990 OA
ATOM     10  O   LIG    1        1.444  -1.250   1.154  0.00  0.00    -0.920 OA
ENDBRANCH   1   8
BRANCH   6  11
ATOM     11  C   LIG    1        2.840   0.098  -0.165  0.00  0.00    +0.510 C 
ATOM     12  O   LIG    1        3.950  -0.243   0.205  0.00  0.00    -0.660 OA
ATOM     13  O   LIG    1        2.193   0.892   0.497  0.00  0.00    -0.690 OA
ENDBRANCH   6  11
TORSDOF 2
ENDMDL
MODEL      130
REMARK  Name = ZINC000006090930
REMARK                            x       y       z     vdW  Elec       q    Type
REMARK                         _______ _______ _______ _____ _____    ______ ____
ROOT
ATOM      1  C   LIG    1        0.002  -0.004   0.002  0.00  0.00    +0.650 A 
ATOM      2  N   LIG    1       -1.141  -0.643   0.004  0.00  0.00    -0.560 NA
ATOM      3  C   LIG    1       -1.202  -1.988  -0.003  0.00  0.00    +0.340 A 
ATOM      4  N   LIG    1       -2.368  -2.630  -0.002  0.00  0.00    -0.400 NA
ATOM      5  CA  LIG    1       -2.386  -3.957  -0.010  0.00  0.00    +0.110 A 
ATOM      6  C   LIG    1       -1.190  -4.683  -0.020  0.00  0.00    +0.240 A 
ATOM      7  N   LIG    1       -0.030  -4.057  -0.022  0.00  0.00    -0.380 NA
ATOM      8  C   LIG    1        0.002  -2.733  -0.014  0.00  0.00    -0.080 A 
ATOM      9  C   LIG    1        1.277  -1.988  -0.016  0.00  0.00    +0.590 A 
ATOM     10  O   LIG    1        2.346  -2.567  -0.025  0.00  0.00    -0.490 OA
ATOM     11  N   LIG    1        1.210  -0.636  -0.013  0.00  0.00    -0.670 N 
ATOM     12  H   LIG    1        2.027  -0.114  -0.015  0.00  0.00    +0.410 HD
ENDROOT
BRANCH   1  13
ATOM     13  N   LIG    1       -0.017   1.366   0.010  0.00  0.00    -0.820 N 
ATOM     14  H   LIG    1       -0.863   1.840   0.016  0.00  0.00    +0.430 HD
ATOM     15  H   LIG    1        0.817   1.863   0.004  0.00  0.00    +0.410 HD
ENDBRANCH   1  13
BRANCH   5  16
ATOM     16  C   LIG    1       -3.683  -4.675  -0.008  0.00  0.00    +0.540 C 
ATOM     17  OXT LIG    1       -3.705  -5.896  -0.015  0.00  0.00    -0.660 OA
ATOM     18  O   LIG    1       -4.730  -4.045   0.001  0.00  0.00    -0.640 OA
ENDBRANCH   5  16
TORSDOF 2
ENDMDL
MODEL      131
REMARK  Name = ZINC000009420343
REMARK                            x       y       z     vdW  Elec       q    Type
REMARK                         _______ _______ _______ _____ _____    ______ ____
ROOT
ATOM      1  C   LIG    1       -2.518  -0.354   0.013  0.00  0.00    +0.140 C 
ATOM      2  C   LIG    1       -3.147  -0.750  -1.310  0.00  0.00    +0.500 C 
ATOM      3  N   LIG    1       -4.231  -1.553  -1.270  0.00  0.00    -0.710 NA
ATOM      4  C   LIG    1       -4.745  -1.993  -0.115  0.00  0.00    +0.670 C 
ATOM      5  N   LIG    1       -4.261  -1.698   1.097  0.00  0.00    -0.690 N 
ATOM      6  H   LIG    1       -4.700  -2.063   1.880  0.00  0.00    +0.390 HD
ATOM      7  O   LIG    1       -5.722  -2.712  -0.172  0.00  0.00    -0.590 OA
ATOM      8  O   LIG    1       -2.692  -0.360  -2.364  0.00  0.00    -0.540 OA
ATOM      9  C   LIG    1       -3.179  -0.907   1.261  0.00  0.00    +0.520 C 
ATOM     10  O   LIG    1       -2.752  -0.648   2.366  0.00  0.00    -0.520 OA
ENDROOT
BRANCH   1  13
ATOM     11  C   LIG    1       -0.018   1.503   0.010  0.00  0.00    +0.180 C 
ATOM     12  C   LIG    1        0.002  -0.004   0.002  0.00  0.00    +0.220 A 
ATOM     13  C   LIG    1       -1.081  -0.807   0.003  0.00  0.00    -0.290 A 
ATOM     14  C   LIG    1       -0.633  -2.149  -0.008  0.00  0.00    +0.540 A 
ATOM     15  N   LIG    1        0.716  -2.129  -0.014  0.00  0.00    -0.530 N 
ATOM     16  H   LIG    1        1.300  -2.903  -0.021  0.00  0.00    +0.430 HD
ATOM     17  O   LIG    1       -1.337  -3.142  -0.011  0.00  0.00    -0.530 OA
ATOM     18  N   LIG    1        1.121  -0.787  -0.013  0.00  0.00    -0.500 N 
ATOM     19  H   LIG    1        2.038  -0.470  -0.018  0.00  0.00    +0.440 HD
ENDBRANCH   1  13
BRANCH   1  20
ATOM     20  O   LIG    1       -2.531   1.072   0.097  0.00  0.00    -0.530 OA
ATOM     21  H   LIG    1       -3.418   1.458   0.110  0.00  0.00    +0.380 HD
ENDBRANCH   1  20
TORSDOF 2
ENDMDL
MODEL      132
REMARK  Name = ZINC000000356303
REMARK                            x       y       z     vdW  Elec       q    Type
REMARK                         _______ _______ _______ _____ _____    ______ ____
ROOT
ATOM      1  N   LIG    1       -4.915   0.721   0.029  0.00  0.00    -0.620 N 
ATOM      2  C   LIG    1       -5.498   0.211  -1.063  0.00  0.00    +0.700 C 
ATOM      3  N   LIG    1       -6.483  -0.656  -0.799  0.00  0.00    -0.740 N 
ATOM      4  H   LIG    1       -7.015  -1.120  -1.464  0.00  0.00    +0.430 HD
ATOM      5  C   LIG    1       -6.635  -0.792   0.656  0.00  0.00    +0.470 C 
ATOM      6  N   LIG    1       -7.907  -0.190   1.080  0.00  0.00    -0.740 N 
ATOM      7  H   LIG    1       -8.788  -0.546   0.885  0.00  0.00    +0.430 HD
ATOM      8  C   LIG    1       -7.659   0.926   1.776  0.00  0.00    +0.710 C 
ATOM      9  N   LIG    1       -6.356   1.206   1.908  0.00  0.00    -0.740 N 
ATOM     10  H   LIG    1       -5.992   1.972   2.379  0.00  0.00    +0.430 HD
ATOM     11  O   LIG    1       -8.537   1.623   2.247  0.00  0.00    -0.580 OA
ATOM     12  O   LIG    1       -5.162   0.508  -2.193  0.00  0.00    -0.570 OA
ATOM     13  C   LIG    1       -5.547   0.153   1.228  0.00  0.00    +0.480 C 
ENDROOT
BRANCH   1  14
ATOM     14  C   LIG    1       -3.814   1.688   0.029  0.00  0.00    +0.300 C 
BRANCH  14  15
ATOM     15  C   LIG    1       -2.479   0.941   0.019  0.00  0.00    +0.020 C 
BRANCH  15  16
ATOM     16  C   LIG    1       -1.330   1.951   0.019  0.00  0.00    -0.060 C 
BRANCH  16  18
ATOM     17  O   LIG    1        0.002  -0.004   0.002  0.00  0.00    -0.700 OA
ATOM     18  C   LIG    1       -0.015   1.215   0.009  0.00  0.00    +0.490 C 
ATOM     19  O   LIG    1        1.033   1.839   0.002  0.00  0.00    -0.710 OA
ENDBRANCH  16  18
ENDBRANCH  15  16
ENDBRANCH  14  15
ENDBRANCH   1  14
TORSDOF 4
ENDMDL
MODEL      133
REMARK  Name = ZINC000042542507
REMARK                            x       y       z     vdW  Elec       q    Type
REMARK                         _______ _______ _______ _____ _____    ______ ____
ROOT
ATOM      1  O   LIG    1        0.002  -0.004   0.002  0.00  0.00    -0.500 OA
ATOM      2  C   LIG    1       -0.014   1.209   0.009  0.00  0.00    +0.480 C 
ATOM      3  N   LIG    1       -1.100   2.012   0.029  0.00  0.00    -0.690 NA
ATOM      4  C   LIG    1       -0.693   3.292   0.031  0.00  0.00    +0.660 C 
ATOM      5  N   LIG    1        0.647   3.380   0.012  0.00  0.00    -0.610 N 
ATOM      6  O   LIG    1       -1.442   4.248   0.048  0.00  0.00    -0.560 OA
ATOM      7  C   LIG    1        1.167   2.134   0.002  0.00  0.00    +0.450 C 
ATOM      8  O   LIG    1        2.340   1.827  -0.014  0.00  0.00    -0.490 OA
ENDROOT
BRANCH   5   9
ATOM      9  C   LIG    1        1.419   4.625   0.007  0.00  0.00    +0.280 C 
BRANCH   9  10
ATOM     10  C   LIG    1        1.708   5.051   1.448  0.00  0.00    +0.280 C 
BRANCH  10  11
ATOM     11  N   LIG    1        2.480   6.296   1.444  0.00  0.00    -0.450 N 
ATOM     12  C   LIG    1        3.844   6.405   1.420  0.00  0.00    +0.110 A 
ATOM     13  C   LIG    1        4.130   7.722   1.424  0.00  0.00    +0.130 A 
ATOM     14  N   LIG    1        2.971   8.397   1.451  0.00  0.00    -0.500 NA
ATOM     15  C   LIG    1        1.979   7.550   1.458  0.00  0.00    +0.390 A 
ENDBRANCH  10  11
ENDBRANCH   9  10
ENDBRANCH   5   9
TORSDOF 3
ENDMDL
MODEL      134
REMARK  Name = ZINC000001066233
REMARK                            x       y       z     vdW  Elec       q    Type
REMARK                         _______ _______ _______ _____ _____    ______ ____
ROOT
ATOM      1  N   LIG    1       -3.757   1.656   0.029  0.00  0.00    -0.630 N 
ATOM      2  C   LIG    1       -4.471   2.059   1.122  0.00  0.00    +0.720 C 
ATOM      3  N   LIG    1       -5.763   2.400   0.796  0.00  0.00    -0.730 N 
ATOM      4  H   LIG    1       -6.396   2.917   1.319  0.00  0.00    +0.430 HD
ATOM      5  C   LIG    1       -5.953   1.825  -0.472  0.00  0.00    +0.370 C 
ATOM      6  N   LIG    1       -6.781   1.866  -1.602  0.00  0.00    -0.720 N 
ATOM      7  H   LIG    1       -7.679   2.229  -1.666  0.00  0.00    +0.430 HD
ATOM      8  C   LIG    1       -6.040   1.280  -2.597  0.00  0.00    +0.730 C 
ATOM      9  N   LIG    1       -4.724   1.157  -2.252  0.00  0.00    -0.740 N 
ATOM     10  H   LIG    1       -4.059   0.588  -2.671  0.00  0.00    +0.440 HD
ATOM     11  O   LIG    1       -6.500   0.915  -3.661  0.00  0.00    -0.550 OA
ATOM     12  O   LIG    1       -4.018   2.110   2.249  0.00  0.00    -0.530 OA
ATOM     13  C   LIG    1       -4.536   2.095  -1.131  0.00  0.00    +0.430 C 
ENDROOT
BRANCH   1  14
ATOM     14  C   LIG    1       -2.479   0.941   0.019  0.00  0.00    +0.340 C 
BRANCH  14  15
ATOM     15  C   LIG    1       -1.330   1.951   0.019  0.00  0.00    -0.070 C 
BRANCH  15  17
ATOM     16  O   LIG    1        0.002  -0.004   0.002  0.00  0.00    -0.700 OA
ATOM     17  C   LIG    1       -0.015   1.215   0.009  0.00  0.00    +0.500 C 
ATOM     18  O   LIG    1        1.033   1.839   0.002  0.00  0.00    -0.700 OA
ENDBRANCH  15  17
ENDBRANCH  14  15
ENDBRANCH   1  14
TORSDOF 3
ENDMDL
MODEL      135
REMARK  Name = ZINC000004945556
REMARK                            x       y       z     vdW  Elec       q    Type
REMARK                         _______ _______ _______ _____ _____    ______ ____
ROOT
ATOM      1  C   LIG    1       -0.648   1.515   0.154  0.00  0.00    +0.210 C 
ATOM      2  C   LIG    1       -0.361   0.038   0.084  0.00  0.00    +0.190 A 
ATOM      3  N   LIG    1       -0.230  -0.675  -1.001  0.00  0.00    -0.260 NA
ATOM      4  N   LIG    1        0.012  -1.901  -0.701  0.00  0.00    -0.310 NA
ATOM      5  C   LIG    1        0.050  -2.042   0.605  0.00  0.00    +0.420 A 
ATOM      6  N   LIG    1        0.269  -3.130   1.417  0.00  0.00    -0.560 N 
ATOM      7  H   LIG    1        0.435  -3.999   1.019  0.00  0.00    +0.450 HD
ATOM      8  CA  LIG    1        0.254  -3.003   2.784  0.00  0.00    +0.170 A 
ATOM      9  C   LIG    1        0.020  -1.787   3.348  0.00  0.00    -0.250 A 
ATOM     10  C   LIG    1       -0.211  -0.633   2.476  0.00  0.00    +0.550 A 
ATOM     11  O   LIG    1       -0.423   0.467   2.951  0.00  0.00    -0.490 OA
ATOM     12  N   LIG    1       -0.183  -0.805   1.143  0.00  0.00    -0.470 N 
ENDROOT
BRANCH   8  13
ATOM     13  C   LIG    1        0.491  -4.187   3.643  0.00  0.00    +0.530 C 
ATOM     14  OXT LIG    1        0.584  -5.297   3.141  0.00  0.00    -0.660 OA
ATOM     15  O   LIG    1        0.595  -4.053   4.853  0.00  0.00    -0.620 OA
ENDBRANCH   8  13
BRANCH   9  16
ATOM     16  C   LIG    1        0.001  -1.630   4.847  0.00  0.00    +0.140 C 
BRANCH  16  17
ATOM     17  C   LIG    1        1.406  -1.281   5.341  0.00  0.00    +0.180 C 
BRANCH  17  18
ATOM     18  O   LIG    1        1.388  -1.132   6.763  0.00  0.00    -0.570 OA
ATOM     19  H   LIG    1        2.247  -0.909   7.146  0.00  0.00    +0.370 HD
ENDBRANCH  17  18
ENDBRANCH  16  17
ENDBRANCH   9  16
TORSDOF 4
ENDMDL
MODEL      136
REMARK  Name = ZINC000020254812
REMARK                            x       y       z     vdW  Elec       q    Type
REMARK                         _______ _______ _______ _____ _____    ______ ____
ROOT
ATOM      1  S   LIG    1       -5.158   0.853  -0.340  0.00  0.00    +2.790 S 
ATOM      2  O   LIG    1       -4.904   0.134  -1.539  0.00  0.00    -0.970 OA
ATOM      3  O   LIG    1       -6.210   1.800  -0.210  0.00  0.00    -0.990 OA
ENDROOT
BRANCH   1   4
ATOM      4  N   LIG    1       -5.400  -0.280   0.843  0.00  0.00    -1.010 NA
ATOM      5  C   LIG    1       -4.847  -1.637   0.717  0.00  0.00    +0.270 C 
ATOM      6  C   LIG    1       -4.090  -1.973   2.007  0.00  0.00    +0.220 C 
ATOM      7  O   LIG    1       -4.945  -1.738   3.129  0.00  0.00    -0.380 OA
ATOM      8  C   LIG    1       -5.353  -0.376   3.278  0.00  0.00    +0.210 C 
ATOM      9  C   LIG    1       -6.170   0.043   2.055  0.00  0.00    +0.270 C 
ENDBRANCH   1   4
BRANCH   1  10
ATOM     10  N   LIG    1       -3.757   1.656   0.029  0.00  0.00    -1.130 NA
ATOM     11  H   LIG    1       -3.784   2.600   0.252  0.00  0.00    +0.410 HD
BRANCH  10  12
ATOM     12  C   LIG    1       -2.479   0.941   0.019  0.00  0.00    +0.280 C 
BRANCH  12  13
ATOM     13  C   LIG    1       -1.330   1.951   0.019  0.00  0.00    -0.060 C 
BRANCH  13  15
ATOM     14  O   LIG    1        0.002  -0.004   0.002  0.00  0.00    -0.700 OA
ATOM     15  C   LIG    1       -0.015   1.215   0.009  0.00  0.00    +0.490 C 
ATOM     16  O   LIG    1        1.033   1.839   0.002  0.00  0.00    -0.700 OA
ENDBRANCH  13  15
ENDBRANCH  12  13
ENDBRANCH  10  12
ENDBRANCH   1  10
TORSDOF 5
ENDMDL
MODEL      137
REMARK  Name = ZINC000004591809
REMARK                            x       y       z     vdW  Elec       q    Type
REMARK                         _______ _______ _______ _____ _____    ______ ____
ROOT
ATOM      1  N   LIG    1       -2.695   3.538   1.283  0.00  0.00    -0.520 N 
ATOM      2  C   LIG    1       -2.788   4.768   0.691  0.00  0.00    +0.370 A 
ATOM      3  C   LIG    1       -3.967   5.426   0.700  0.00  0.00    -0.150 A 
ATOM      4  C   LIG    1       -5.087   4.827   1.325  0.00  0.00    +0.550 A 
ATOM      5  N   LIG    1       -4.954   3.613   1.898  0.00  0.00    -0.660 N 
ATOM      6  H   LIG    1       -5.716   3.196   2.328  0.00  0.00    +0.430 HD
ATOM      7  O   LIG    1       -6.160   5.402   1.346  0.00  0.00    -0.530 OA
ATOM      8  C   LIG    1       -3.768   2.976   1.870  0.00  0.00    +0.700 A 
ATOM      9  O   LIG    1       -3.663   1.882   2.390  0.00  0.00    -0.530 OA
ENDROOT
BRANCH   1  10
ATOM     10  C   LIG    1       -1.417   2.822   1.273  0.00  0.00    +0.300 C 
BRANCH  10  11
ATOM     11  C   LIG    1       -1.330   1.951   0.019  0.00  0.00    +0.120 C 
BRANCH  11  13
ATOM     12  O   LIG    1        0.002  -0.004   0.002  0.00  0.00    -0.670 OA
ATOM     13  C   LIG    1       -0.015   1.215   0.009  0.00  0.00    +0.480 C 
ATOM     14  O   LIG    1        1.033   1.839   0.002  0.00  0.00    -0.690 OA
ENDBRANCH  11  13
BRANCH  11  15
ATOM     15  O   LIG    1       -2.403   1.007   0.019  0.00  0.00    -0.550 OA
ATOM     16  H   LIG    1       -2.403   0.412   0.781  0.00  0.00    +0.380 HD
ENDBRANCH  11  15
ENDBRANCH  10  11
ENDBRANCH   1  10
TORSDOF 4
ENDMDL
MODEL      138
REMARK  Name = ZINC000004591810
REMARK                            x       y       z     vdW  Elec       q    Type
REMARK                         _______ _______ _______ _____ _____    ______ ____
ROOT
ATOM      1  N   LIG    1       -2.704   3.547  -1.224  0.00  0.00    -0.520 N 
ATOM      2  C   LIG    1       -3.888   3.020  -1.662  0.00  0.00    +0.380 A 
ATOM      3  C   LIG    1       -5.013   3.765  -1.607  0.00  0.00    -0.150 A 
ATOM      4  C   LIG    1       -4.942   5.082  -1.094  0.00  0.00    +0.550 A 
ATOM      5  N   LIG    1       -3.756   5.565  -0.672  0.00  0.00    -0.660 N 
ATOM      6  H   LIG    1       -3.699   6.467  -0.319  0.00  0.00    +0.430 HD
ATOM      7  O   LIG    1       -5.943   5.773  -1.034  0.00  0.00    -0.530 OA
ATOM      8  C   LIG    1       -2.651   4.799  -0.734  0.00  0.00    +0.690 A 
ATOM      9  O   LIG    1       -1.588   5.247  -0.349  0.00  0.00    -0.530 OA
ENDROOT
BRANCH   1  10
ATOM     10  C   LIG    1       -1.483   2.739  -1.283  0.00  0.00    +0.310 C 
BRANCH  10  11
ATOM     11  C   LIG    1       -1.330   1.951   0.019  0.00  0.00    +0.120 C 
BRANCH  11  13
ATOM     12  O   LIG    1        0.002  -0.004   0.002  0.00  0.00    -0.680 OA
ATOM     13  C   LIG    1       -0.015   1.215   0.009  0.00  0.00    +0.480 C 
ATOM     14  O   LIG    1        1.033   1.839   0.002  0.00  0.00    -0.680 OA
ENDBRANCH  11  13
BRANCH  11  15
ATOM     15  O   LIG    1       -2.400   1.011   0.136  0.00  0.00    -0.560 OA
ATOM     16  H   LIG    1       -2.439   0.367  -0.584  0.00  0.00    +0.370 HD
ENDBRANCH  11  15
ENDBRANCH  10  11
ENDBRANCH   1  10
TORSDOF 4
ENDMDL
MODEL      139
REMARK  Name = ZINC000087440075
REMARK                            x       y       z     vdW  Elec       q    Type
REMARK                         _______ _______ _______ _____ _____    ______ ____
ROOT
ATOM      1  C   LIG    1       -1.330   1.951   0.019  0.00  0.00    +0.140 C 
ATOM      2  C   LIG    1       -1.556   2.641  -1.343  0.00  0.00    +0.040 C 
ATOM      3  C   LIG    1       -3.077   2.450  -1.581  0.00  0.00    +0.020 C 
ATOM      4  C   LIG    1       -3.314   1.048  -0.967  0.00  0.00    +0.260 C 
ATOM      5  N   LIG    1       -2.433   1.000   0.218  0.00  0.00    -0.570 N 
ATOM      6  C   LIG    1       -2.611   0.213   1.298  0.00  0.00    +0.620 C 
ATOM      7  O   LIG    1       -1.819   0.256   2.219  0.00  0.00    -0.500 OA
ENDROOT
BRANCH   6   8
ATOM      8  C   LIG    1       -3.771  -0.704   1.362  0.00  0.00    +0.160 A 
ATOM      9  N   LIG    1       -4.074  -1.524   2.351  0.00  0.00    -0.250 NA
ATOM     10  N   LIG    1       -5.154  -2.149   2.027  0.00  0.00    -0.230 N 
ATOM     11  H   LIG    1       -5.602  -2.814   2.573  0.00  0.00    +0.480 HD
ATOM     12  N   LIG    1       -5.545  -1.752   0.867  0.00  0.00    -0.060 NA
ATOM     13  N   LIG    1       -4.723  -0.860   0.429  0.00  0.00    -0.250 NA
ENDBRANCH   6   8
BRANCH   1  15
ATOM     14  O   LIG    1        0.002  -0.004   0.002  0.00  0.00    -0.680 OA
ATOM     15  C   LIG    1       -0.015   1.215   0.009  0.00  0.00    +0.500 C 
ATOM     16  O   LIG    1        1.033   1.839   0.002  0.00  0.00    -0.700 OA
ENDBRANCH   1  15
TORSDOF 2
ENDMDL
MODEL      140
REMARK  Name = ZINC000005009568
REMARK                            x       y       z     vdW  Elec       q    Type
REMARK                         _______ _______ _______ _____ _____    ______ ____
ROOT
ATOM      1  N   LIG    1        2.407   1.043  -0.015  0.00  0.00    -0.690 N 
ATOM      2  H   LIG    1        2.242   0.087  -0.019  0.00  0.00    +0.430 HD
ENDROOT
BRANCH   1   3
ATOM      3  C   LIG    1        3.716   1.526  -0.025  0.00  0.00    +0.290 A 
ATOM      4  N   LIG    1        3.949   2.813  -0.015  0.00  0.00    -0.330 NA
ATOM      5  N   LIG    1        5.268   3.281  -0.025  0.00  0.00    -0.510 N 
ATOM      6  H   LIG    1        5.437   4.236  -0.017  0.00  0.00    +0.430 HD
ATOM      7  C   LIG    1        6.306   2.426  -0.045  0.00  0.00    +0.520 A 
ATOM      8  N   LIG    1        6.110   1.094  -0.056  0.00  0.00    -0.610 NA
ATOM      9  S   LIG    1        7.903   3.041  -0.057  0.00  0.00    -0.720 S 
ATOM     10  C   LIG    1        4.856   0.595  -0.041  0.00  0.00    +0.490 A 
ATOM     11  O   LIG    1        4.671  -0.607  -0.050  0.00  0.00    -0.530 OA
ENDBRANCH   1   3
BRANCH   1  12
ATOM     12  C   LIG    1        1.280   1.980   0.001  0.00  0.00    +0.290 C 
BRANCH  12  14
ATOM     13  O   LIG    1        0.002  -0.004   0.002  0.00  0.00    -0.530 OA
ATOM     14  C   LIG    1       -0.014   1.209   0.009  0.00  0.00    +0.510 C 
ATOM     15  N   LIG    1       -1.191   1.867   0.018  0.00  0.00    -0.720 N 
ATOM     16  H   LIG    1       -1.204   2.837   0.023  0.00  0.00    +0.410 HD
BRANCH  15  17
ATOM     17  C   LIG    1       -2.449   1.117   0.020  0.00  0.00    +0.280 C 
BRANCH  17  18
ATOM     18  C   LIG    1       -3.626   2.095   0.031  0.00  0.00    +0.170 C 
BRANCH  18  19
ATOM     19  O   LIG    1       -3.633   2.844  -1.186  0.00  0.00    -0.570 OA
ATOM     20  H   LIG    1       -4.354   3.486  -1.249  0.00  0.00    +0.380 HD
ENDBRANCH  18  19
ENDBRANCH  17  18
ENDBRANCH  15  17
ENDBRANCH  12  14
ENDBRANCH   1  12
TORSDOF 6
ENDMDL
MODEL      141
REMARK  Name = ZINC000004008781
REMARK                            x       y       z     vdW  Elec       q    Type
REMARK                         _______ _______ _______ _____ _____    ______ ____
ROOT
ATOM      1  N   LIG    1       -2.430   0.984   0.019  0.00  0.00    -0.590 N 
ATOM      2  C   LIG    1       -3.013   0.474  -1.073  0.00  0.00    +0.710 C 
ATOM      3  N   LIG    1       -3.999  -0.393  -0.809  0.00  0.00    -0.740 N 
ATOM      4  H   LIG    1       -4.530  -0.857  -1.474  0.00  0.00    +0.430 HD
ATOM      5  C   LIG    1       -4.150  -0.529   0.646  0.00  0.00    +0.470 C 
ATOM      6  N   LIG    1       -5.422   0.073   1.070  0.00  0.00    -0.740 N 
ATOM      7  H   LIG    1       -6.303  -0.283   0.875  0.00  0.00    +0.430 HD
ATOM      8  C   LIG    1       -5.174   1.189   1.766  0.00  0.00    +0.710 C 
ATOM      9  N   LIG    1       -3.871   1.470   1.898  0.00  0.00    -0.740 N 
ATOM     10  H   LIG    1       -3.507   2.235   2.369  0.00  0.00    +0.430 HD
ATOM     11  O   LIG    1       -6.053   1.886   2.236  0.00  0.00    -0.590 OA
ATOM     12  O   LIG    1       -2.677   0.772  -2.204  0.00  0.00    -0.580 OA
ATOM     13  C   LIG    1       -3.063   0.416   1.218  0.00  0.00    +0.470 C 
ENDROOT
BRANCH   1  14
ATOM     14  C   LIG    1       -1.330   1.951   0.019  0.00  0.00    +0.240 C 
BRANCH  14  16
ATOM     15  O   LIG    1        0.002  -0.004   0.002  0.00  0.00    -0.680 OA
ATOM     16  C   LIG    1       -0.015   1.215   0.009  0.00  0.00    +0.480 C 
ATOM     17  O   LIG    1        1.033   1.839   0.002  0.00  0.00    -0.700 OA
ENDBRANCH  14  16
ENDBRANCH   1  14
TORSDOF 2
ENDMDL
MODEL      142
REMARK  Name = ZINC000004008782
REMARK                            x       y       z     vdW  Elec       q    Type
REMARK                         _______ _______ _______ _____ _____    ______ ____
ROOT
ATOM      1  N   LIG    1       -2.430   0.984   0.019  0.00  0.00    -0.600 N 
ATOM      2  C   LIG    1       -3.053   0.439  -1.069  0.00  0.00    +0.730 C 
ATOM      3  N   LIG    1       -3.803  -0.664  -0.734  0.00  0.00    -0.730 N 
ATOM      4  H   LIG    1       -4.504  -1.091  -1.251  0.00  0.00    +0.420 HD
ATOM      5  C   LIG    1       -3.318  -1.028   0.534  0.00  0.00    +0.390 C 
ATOM      6  N   LIG    1       -3.627  -1.789   1.669  0.00  0.00    -0.720 N 
ATOM      7  H   LIG    1       -4.268  -2.515   1.740  0.00  0.00    +0.420 HD
ATOM      8  C   LIG    1       -2.824  -1.280   2.659  0.00  0.00    +0.730 C 
ATOM      9  N   LIG    1       -2.271  -0.082   2.305  0.00  0.00    -0.720 N 
ATOM     10  H   LIG    1       -1.512   0.359   2.718  0.00  0.00    +0.430 HD
ATOM     11  O   LIG    1       -2.627  -1.831   3.724  0.00  0.00    -0.560 OA
ATOM     12  O   LIG    1       -2.955   0.877  -2.199  0.00  0.00    -0.550 OA
ATOM     13  C   LIG    1       -3.090   0.393   1.184  0.00  0.00    +0.420 C 
ENDROOT
BRANCH   1  14
ATOM     14  C   LIG    1       -1.330   1.951   0.019  0.00  0.00    +0.240 C 
BRANCH  14  16
ATOM     15  O   LIG    1        0.002  -0.004   0.002  0.00  0.00    -0.680 OA
ATOM     16  C   LIG    1       -0.015   1.215   0.009  0.00  0.00    +0.480 C 
ATOM     17  O   LIG    1        1.033   1.839   0.002  0.00  0.00    -0.700 OA
ENDBRANCH  14  16
ENDBRANCH   1  14
TORSDOF 2
ENDMDL
MODEL      143
REMARK  Name = ZINC000675063118
REMARK                            x       y       z     vdW  Elec       q    Type
REMARK                         _______ _______ _______ _____ _____    ______ ____
ROOT
ATOM      1  C   LIG    1       -2.115   1.628   1.731  0.00  0.00    +0.030 A 
ATOM      2  C   LIG    1       -2.524   0.576   2.461  0.00  0.00    +0.020 A 
ATOM      3  C   LIG    1       -3.880   0.223   2.582  0.00  0.00    +0.150 A 
ATOM      4  C   LIG    1       -4.862   0.913   1.975  0.00  0.00    +0.000 A 
ATOM      5  C   LIG    1       -4.533   2.091   1.145  0.00  0.00    +0.260 A 
ATOM      6  N   LIG    1       -5.358   2.871   0.489  0.00  0.00    -0.800 NA
ATOM      7  S   LIG    1       -4.388   4.010  -0.246  0.00  0.00    +2.540 S 
ATOM      8  N   LIG    1       -2.882   3.516   0.269  0.00  0.00    -0.750 NA
ATOM      9  O   LIG    1       -4.662   5.261   0.368  0.00  0.00    -0.940 OA
ATOM     10  O   LIG    1       -4.453   3.781  -1.647  0.00  0.00    -0.930 OA
ATOM     11  C   LIG    1       -3.105   2.467   1.023  0.00  0.00    +0.250 A 
ENDROOT
BRANCH   1  12
ATOM     12  C   LIG    1       -0.647   1.957   1.640  0.00  0.00    -0.290 C 
BRANCH  12  14
ATOM     13  O   LIG    1        0.002  -0.004   0.002  0.00  0.00    -0.990 OA
ATOM     14  S   LIG    1       -0.018   1.467   0.010  0.00  0.00    +1.460 S 
ATOM     15  O   LIG    1        1.411   1.818  -0.002  0.00  0.00    -0.990 OA
ENDBRANCH  12  14
ENDBRANCH   1  12
TORSDOF 2
ENDMDL
MODEL      144
REMARK  Name = ZINC000000373243
REMARK                            x       y       z     vdW  Elec       q    Type
REMARK                         _______ _______ _______ _____ _____    ______ ____
ROOT
ATOM      1  C   LIG    1       -4.819   0.438   0.027  0.00  0.00    +0.250 A 
ATOM      2  N   LIG    1       -6.104   0.743   0.030  0.00  0.00    -0.270 NA
ATOM      3  N   LIG    1       -6.810  -0.467   0.028  0.00  0.00    -0.330 N 
ATOM      4  C   LIG    1       -8.137  -0.771   0.030  0.00  0.00    +0.350 A 
ATOM      5  C   LIG    1       -8.514  -2.075   0.028  0.00  0.00    -0.040 A 
ATOM      6  C   LIG    1       -7.529  -3.073   0.025  0.00  0.00    +0.390 A 
ATOM      7  N   LIG    1       -6.257  -2.749   0.023  0.00  0.00    -0.450 NA
ATOM      8  C   LIG    1       -5.874  -1.465   0.025  0.00  0.00    +0.440 A 
ATOM      9  N   LIG    1       -4.680  -0.889   0.019  0.00  0.00    -0.490 NA
ENDROOT
BRANCH   1  12
ATOM     10  N   LIG    1       -2.430   0.984   0.019  0.00  0.00    -0.660 N 
ATOM     11  H   LIG    1       -2.240   0.033   0.013  0.00  0.00    +0.420 HD
ATOM     12  C   LIG    1       -3.707   1.416   0.027  0.00  0.00    +0.590 C 
ATOM     13  O   LIG    1       -3.945   2.607   0.035  0.00  0.00    -0.530 OA
BRANCH  10  14
ATOM     14  C   LIG    1       -1.330   1.951   0.019  0.00  0.00    +0.190 C 
BRANCH  14  16
ATOM     15  O   LIG    1        0.002  -0.004   0.002  0.00  0.00    -0.680 OA
ATOM     16  C   LIG    1       -0.015   1.215   0.009  0.00  0.00    +0.490 C 
ATOM     17  O   LIG    1        1.033   1.839   0.002  0.00  0.00    -0.690 OA
ENDBRANCH  14  16
ENDBRANCH  10  14
ENDBRANCH   1  12
TORSDOF 3
ENDMDL
MODEL      145
REMARK  Name = ZINC000004704332
REMARK                            x       y       z     vdW  Elec       q    Type
REMARK                         _______ _______ _______ _____ _____    ______ ____
ROOT
ATOM      1  C   LIG    1       -4.751   0.523   0.027  0.00  0.00    +0.520 C 
ATOM      2  N   LIG    1       -6.058   0.853   0.035  0.00  0.00    -0.630 N 
ATOM      3  C   LIG    1       -6.484   2.262   0.039  0.00  0.00    +0.250 C 
ATOM      4  C   LIG    1       -7.515   2.458  -1.078  0.00  0.00    +0.220 C 
ATOM      5  O   LIG    1       -8.550   1.481  -0.940  0.00  0.00    -0.380 OA
ATOM      6  C   LIG    1       -8.102   0.131  -1.077  0.00  0.00    +0.220 C 
ATOM      7  C   LIG    1       -7.101  -0.185   0.035  0.00  0.00    +0.250 C 
ATOM      8  O   LIG    1       -4.420  -0.643   0.019  0.00  0.00    -0.500 OA
ENDROOT
BRANCH   1   9
ATOM      9  C   LIG    1       -3.701   1.604   0.028  0.00  0.00    +0.180 C 
BRANCH   9  10
ATOM     10  O   LIG    1       -2.403   1.007   0.019  0.00  0.00    -0.330 OA
BRANCH  10  11
ATOM     11  C   LIG    1       -1.330   1.951   0.019  0.00  0.00    +0.100 C 
BRANCH  11  13
ATOM     12  O   LIG    1        0.002  -0.004   0.002  0.00  0.00    -0.670 OA
ATOM     13  C   LIG    1       -0.015   1.215   0.009  0.00  0.00    +0.500 C 
ATOM     14  O   LIG    1        1.033   1.839   0.002  0.00  0.00    -0.700 OA
ENDBRANCH  11  13
ENDBRANCH  10  11
ENDBRANCH   9  10
ENDBRANCH   1   9
TORSDOF 4
ENDMDL
MODEL      146
REMARK  Name = ZINC000000153338
REMARK                            x       y       z     vdW  Elec       q    Type
REMARK                         _______ _______ _______ _____ _____    ______ ____
ROOT
ATOM      1  C   LIG    1       -4.753   0.524   0.098  0.00  0.00    +0.510 C 
ATOM      2  N   LIG    1       -6.058   0.853   0.035  0.00  0.00    -0.730 N 
ATOM      3  H   LIG    1       -6.322   1.786  -0.009  0.00  0.00    +0.400 HD
ATOM      4  O   LIG    1       -4.423  -0.641   0.153  0.00  0.00    -0.490 OA
ENDROOT
BRANCH   2   5
ATOM      5  C   LIG    1       -7.079  -0.198   0.035  0.00  0.00    +0.260 C 
ATOM      6  C   LIG    1       -8.414   0.382  -0.440  0.00  0.00    +0.050 C 
ATOM      7  C   LIG    1       -8.574   1.816   0.031  0.00  0.00    +0.010 C 
ATOM      8  C   LIG    1       -8.711   1.956   1.536  0.00  0.00    +0.010 C 
ATOM      9  C   LIG    1       -7.410   1.563   2.240  0.00  0.00    +0.270 C 
ATOM     10  N   LIG    1       -7.417   0.108   2.463  0.00  0.00    -0.720 N 
ATOM     11  H   LIG    1       -7.536  -0.241   3.360  0.00  0.00    +0.400 HD
ATOM     12  C   LIG    1       -7.256  -0.736   1.439  0.00  0.00    +0.510 C 
ATOM     13  O   LIG    1       -7.258  -1.933   1.636  0.00  0.00    -0.540 OA
ENDBRANCH   2   5
BRANCH   1  14
ATOM     14  C   LIG    1       -3.703   1.605   0.099  0.00  0.00    +0.180 C 
BRANCH  14  15
ATOM     15  O   LIG    1       -2.406   1.010   0.171  0.00  0.00    -0.330 OA
BRANCH  15  16
ATOM     16  C   LIG    1       -1.332   1.953   0.177  0.00  0.00    +0.100 C 
BRANCH  16  18
ATOM     17  O   LIG    1       -0.003   0.001   0.300  0.00  0.00    -0.670 OA
ATOM     18  C   LIG    1       -0.019   1.219   0.255  0.00  0.00    +0.500 C 
ATOM     19  O   LIG    1        1.029   1.843   0.267  0.00  0.00    -0.700 OA
ENDBRANCH  16  18
ENDBRANCH  15  16
ENDBRANCH  14  15
ENDBRANCH   1  14
TORSDOF 5
ENDMDL
MODEL      147
REMARK  Name = ZINC000034017184
REMARK                            x       y       z     vdW  Elec       q    Type
REMARK                         _______ _______ _______ _____ _____    ______ ____
ROOT
ATOM      1  CA  ASP A  1       -2.479   0.941   0.019  0.00  0.00    +0.280 C 
ATOM      2  N   ASP A  1       -2.463   0.187  -1.234  0.00  0.00    -0.690 N 
ATOM      3  H   ASP A  1       -1.990  -0.659  -1.266  0.00  0.00    +0.420 HD
ATOM      4  C   PRO A  2       -3.084   0.628  -2.341  0.00  0.00    +0.510 C 
ATOM      5  CA  PRO A  2       -3.859   1.923  -2.323  0.00  0.00    +0.220 C 
ATOM      6  CB  PRO A  2       -5.078   1.804  -3.254  0.00  0.00    +0.070 C 
ATOM      7  CG  PRO A  2       -6.259   2.403  -2.466  0.00  0.00    +0.030 C 
ATOM      8  CD  PRO A  2       -5.673   2.830  -1.107  0.00  0.00    +0.260 C 
ATOM      9  N   PRO A  2       -4.395   2.114  -0.962  0.00  0.00    -0.620 N 
ATOM     10  O   PRO A  2       -3.021  -0.020  -3.364  0.00  0.00    -0.550 OA
ATOM     11  C   ASP A  1       -3.793   1.675   0.157  0.00  0.00    +0.540 C 
ATOM     12  O   ASP A  1       -4.296   1.851   1.246  0.00  0.00    -0.530 OA
ENDROOT
BRANCH   1  13
ATOM     13  CB  ASP A  1       -1.330   1.951   0.019  0.00  0.00    -0.060 C 
BRANCH  13  15
ATOM     14  OD1 ASP A  1        0.002  -0.004   0.002  0.00  0.00    -0.690 OA
ATOM     15  CG  ASP A  1       -0.015   1.215   0.009  0.00  0.00    +0.500 C 
ATOM     16  OD2 ASP A  1        1.033   1.839   0.002  0.00  0.00    -0.690 OA
ENDBRANCH  13  15
ENDBRANCH   1  13
TORSDOF 2
ENDMDL
MODEL      148
REMARK  Name = ZINC000034017185
REMARK                            x       y       z     vdW  Elec       q    Type
REMARK                         _______ _______ _______ _____ _____    ______ ____
ROOT
ATOM      1  CA  ASP A  1       -2.479   0.941   0.019  0.00  0.00    +0.260 C 
ATOM      2  N   ASP A  1       -2.463   0.187  -1.234  0.00  0.00    -0.690 N 
ATOM      3  H   ASP A  1       -1.625   0.084  -1.710  0.00  0.00    +0.420 HD
ATOM      4  C   PRO A  2       -3.577  -0.368  -1.744  0.00  0.00    +0.510 C 
ATOM      5  CA  PRO A  2       -4.904  -0.203  -1.047  0.00  0.00    +0.220 C 
ATOM      6  CB  PRO A  2       -6.026  -0.108  -2.099  0.00  0.00    +0.060 C 
ATOM      7  CG  PRO A  2       -7.041   0.878  -1.486  0.00  0.00    +0.030 C 
ATOM      8  CD  PRO A  2       -6.277   1.620  -0.376  0.00  0.00    +0.260 C 
ATOM      9  N   PRO A  2       -4.898   1.101  -0.355  0.00  0.00    -0.620 N 
ATOM     10  O   PRO A  2       -3.513  -1.006  -2.774  0.00  0.00    -0.550 OA
ATOM     11  C   ASP A  1       -3.792   1.675   0.157  0.00  0.00    +0.530 C 
ATOM     12  O   ASP A  1       -3.847   2.757   0.702  0.00  0.00    -0.520 OA
ENDROOT
BRANCH   1  13
ATOM     13  CB  ASP A  1       -1.330   1.951   0.019  0.00  0.00    -0.030 C 
BRANCH  13  15
ATOM     14  OD1 ASP A  1        0.002  -0.004   0.002  0.00  0.00    -0.690 OA
ATOM     15  CG  ASP A  1       -0.015   1.215   0.009  0.00  0.00    +0.490 C 
ATOM     16  OD2 ASP A  1        1.033   1.839   0.002  0.00  0.00    -0.690 OA
ENDBRANCH  13  15
ENDBRANCH   1  13
TORSDOF 2
ENDMDL
MODEL      149
REMARK  Name = ZINC000257345586
REMARK                            x       y       z     vdW  Elec       q    Type
REMARK                         _______ _______ _______ _____ _____    ______ ____
ROOT
ATOM      1  C   LIG    1       -2.479   0.941   0.019  0.00  0.00    +0.210 C 
ATOM      2  O   LIG    1       -2.467   0.205  -1.206  0.00  0.00    -0.360 OA
ATOM      3  C   LIG    1       -3.490  -0.788  -1.300  0.00  0.00    +0.300 C 
ATOM      4  C   LIG    1       -4.862  -0.115  -1.218  0.00  0.00    +0.130 C 
ATOM      5  C   LIG    1       -4.959   0.671   0.093  0.00  0.00    +0.160 C 
ATOM      6  C   LIG    1       -3.811   1.683   0.154  0.00  0.00    +0.170 C 
ENDROOT
BRANCH   5   7
ATOM      7  O   LIG    1       -6.210   1.361   0.146  0.00  0.00    -0.550 OA
ATOM      8  H   LIG    1       -6.981   0.779   0.105  0.00  0.00    +0.380 HD
ENDBRANCH   5   7
BRANCH   4   9
ATOM      9  O   LIG    1       -5.025   0.775  -2.324  0.00  0.00    -0.540 OA
ATOM     10  H   LIG    1       -4.970   0.344  -3.188  0.00  0.00    +0.380 HD
ENDBRANCH   4   9
BRANCH   3  11
ATOM     11  O   LIG    1       -3.371  -1.478  -2.546  0.00  0.00    -0.550 OA
ATOM     12  H   LIG    1       -2.524  -1.928  -2.667  0.00  0.00    +0.400 HD
ENDBRANCH   3  11
BRANCH   6  13
ATOM     13  O   LIG    1       -3.849   2.373   1.405  0.00  0.00    -0.550 OA
ATOM     14  H   LIG    1       -4.669   2.863   1.559  0.00  0.00    +0.380 HD
ENDBRANCH   6  13
BRANCH   1  15
ATOM     15  C   LIG    1       -1.330   1.951   0.019  0.00  0.00    -0.020 C 
BRANCH  15  17
ATOM     16  O   LIG    1        0.002  -0.004   0.002  0.00  0.00    -0.690 OA
ATOM     17  C   LIG    1       -0.015   1.215   0.009  0.00  0.00    +0.500 C 
ATOM     18  O   LIG    1        1.033   1.839   0.002  0.00  0.00    -0.710 OA
ENDBRANCH  15  17
ENDBRANCH   1  15
TORSDOF 6
ENDMDL
MODEL      150
REMARK  Name = ZINC000257345584
REMARK                            x       y       z     vdW  Elec       q    Type
REMARK                         _______ _______ _______ _____ _____    ______ ____
ROOT
ATOM      1  C   LIG    1       -2.479   0.941   0.019  0.00  0.00    +0.220 C 
ATOM      2  O   LIG    1       -2.467   0.205  -1.206  0.00  0.00    -0.360 OA
ATOM      3  C   LIG    1       -3.490  -0.788  -1.300  0.00  0.00    +0.290 C 
ATOM      4  C   LIG    1       -4.862  -0.115  -1.218  0.00  0.00    +0.130 C 
ATOM      5  C   LIG    1       -4.959   0.671   0.093  0.00  0.00    +0.150 C 
ATOM      6  C   LIG    1       -3.811   1.683   0.154  0.00  0.00    +0.150 C 
ENDROOT
BRANCH   5   7
ATOM      7  O   LIG    1       -4.865  -0.229   1.198  0.00  0.00    -0.550 OA
ATOM      8  H   LIG    1       -5.559  -0.902   1.218  0.00  0.00    +0.380 HD
ENDBRANCH   5   7
BRANCH   4   9
ATOM      9  O   LIG    1       -5.025   0.775  -2.324  0.00  0.00    -0.530 OA
ATOM     10  H   LIG    1       -4.970   0.344  -3.188  0.00  0.00    +0.380 HD
ENDBRANCH   4   9
BRANCH   3  11
ATOM     11  O   LIG    1       -3.371  -1.478  -2.546  0.00  0.00    -0.560 OA
ATOM     12  H   LIG    1       -2.524  -1.928  -2.667  0.00  0.00    +0.390 HD
ENDBRANCH   3  11
BRANCH   6  13
ATOM     13  O   LIG    1       -3.945   2.623  -0.913  0.00  0.00    -0.520 OA
ATOM     14  H   LIG    1       -4.771   3.127  -0.892  0.00  0.00    +0.360 HD
ENDBRANCH   6  13
BRANCH   1  15
ATOM     15  C   LIG    1       -1.330   1.951   0.019  0.00  0.00    -0.030 C 
BRANCH  15  17
ATOM     16  O   LIG    1        0.002  -0.004   0.002  0.00  0.00    -0.690 OA
ATOM     17  C   LIG    1       -0.015   1.215   0.009  0.00  0.00    +0.490 C 
ATOM     18  O   LIG    1        1.033   1.839   0.002  0.00  0.00    -0.710 OA
ENDBRANCH  15  17
ENDBRANCH   1  15
TORSDOF 6
ENDMDL
MODEL      151
REMARK  Name = ZINC000142578018
REMARK                            x       y       z     vdW  Elec       q    Type
REMARK                         _______ _______ _______ _____ _____    ______ ____
ROOT
ATOM      1  CA  ASP A  1       -2.479   0.941   0.019  0.00  0.00    +0.280 C 
ATOM      2  N   ASP A  1       -2.451   0.173   1.263  0.00  0.00    -0.690 N 
ATOM      3  H   ASP A  1       -1.982  -0.675   1.282  0.00  0.00    +0.420 HD
ATOM      4  C   PRO A  2       -3.058   0.609   2.381  0.00  0.00    +0.510 C 
ATOM      5  CA  PRO A  2       -3.823   1.909   2.381  0.00  0.00    +0.220 C 
ATOM      6  CB  PRO A  2       -5.039   1.786   3.320  0.00  0.00    +0.060 C 
ATOM      7  CG  PRO A  2       -6.134   2.632   2.639  0.00  0.00    +0.030 C 
ATOM      8  CD  PRO A  2       -5.667   2.816   1.184  0.00  0.00    +0.260 C 
ATOM      9  N   PRO A  2       -4.384   2.109   1.031  0.00  0.00    -0.620 N 
ATOM     10  O   PRO A  2       -2.989  -0.049   3.398  0.00  0.00    -0.550 OA
ATOM     11  C   ASP A  1       -3.794   1.676  -0.099  0.00  0.00    +0.530 C 
ATOM     12  O   ASP A  1       -4.309   1.858  -1.181  0.00  0.00    -0.530 OA
ENDROOT
BRANCH   1  13
ATOM     13  CB  ASP A  1       -1.330   1.951   0.019  0.00  0.00    -0.060 C 
BRANCH  13  15
ATOM     14  OD1 ASP A  1        0.002  -0.004   0.002  0.00  0.00    -0.690 OA
ATOM     15  CG  ASP A  1       -0.015   1.215   0.009  0.00  0.00    +0.500 C 
ATOM     16  OD2 ASP A  1        1.033   1.839   0.002  0.00  0.00    -0.690 OA
ENDBRANCH  13  15
ENDBRANCH   1  13
TORSDOF 2
ENDMDL
MODEL      152
REMARK  Name = ZINC000100165769
REMARK                            x       y       z     vdW  Elec       q    Type
REMARK                         _______ _______ _______ _____ _____    ______ ____
ROOT
ATOM      1  C   LIG    1        0.665  -2.070  -1.123  0.00  0.00    -0.040 C 
ATOM      2  C   LIG    1        1.298  -2.709  -2.143  0.00  0.00    +0.130 C 
ATOM      3  N   LIG    1        1.443  -4.083  -2.322  0.00  0.00    -0.690 N 
ATOM      4  H   LIG    1        1.106  -4.774  -1.730  0.00  0.00    +0.410 HD
ATOM      5  C   LIG    1        2.133  -4.283  -3.458  0.00  0.00    +0.650 C 
ATOM      6  N   LIG    1        2.453  -3.118  -4.042  0.00  0.00    -0.700 NA
ATOM      7  O   LIG    1        2.428  -5.376  -3.900  0.00  0.00    -0.580 OA
ATOM      8  C   LIG    1        1.975  -2.094  -3.305  0.00  0.00    +0.500 C 
ATOM      9  O   LIG    1        2.084  -0.907  -3.545  0.00  0.00    -0.480 OA
ENDROOT
BRANCH   1  10
ATOM     10  C   LIG    1        0.465  -0.611  -1.177  0.00  0.00    +0.470 C 
ATOM     11  O   LIG    1        0.947   0.034  -2.087  0.00  0.00    -0.450 OA
BRANCH  10  13
ATOM     12  C   LIG    1       -0.409   1.446  -0.336  0.00  0.00    +0.250 C 
ATOM     13  O   LIG    1       -0.253   0.007  -0.218  0.00  0.00    -0.370 OA
ENDBRANCH  10  13
ENDBRANCH   1  10
BRANCH   1  14
ATOM     14  O   LIG    1        0.218  -2.776  -0.055  0.00  0.00    -0.320 OA
ATOM     15  C   LIG    1        0.848  -2.520   1.202  0.00  0.00    +0.210 C 
ENDBRANCH   1  14
TORSDOF 3
ENDMDL
MODEL      153
REMARK  Name = ZINC000005426236
REMARK                            x       y       z     vdW  Elec       q    Type
REMARK                         _______ _______ _______ _____ _____    ______ ____
ROOT
ATOM      1  CA  LIG    1       -1.333   1.956   0.011  0.00  0.00    +0.150 C 
ATOM      2  C   LIG    1       -1.424   2.849   1.257  0.00  0.00    +0.050 C 
ATOM      3  C   LIG    1       -2.338   4.026   0.957  0.00  0.00    +0.000 C 
ATOM      4  C   LIG    1       -3.436   3.679  -0.028  0.00  0.00    +0.290 C 
ATOM      5  N   LIG    1       -4.189   2.513   0.438  0.00  0.00    -0.730 N 
ATOM      6  H   LIG    1       -5.059   2.636   0.849  0.00  0.00    +0.420 HD
ATOM      7  C   LIG    1       -3.685   1.271   0.304  0.00  0.00    +0.710 C 
ATOM      8  N   LIG    1       -4.529   0.236   0.483  0.00  0.00    -0.580 NA
ATOM      9  N   LIG    1       -2.426   0.986   0.013  0.00  0.00    -0.630 N 
ATOM     10  H   LIG    1       -2.214   0.069  -0.220  0.00  0.00    +0.430 HD
ENDROOT
BRANCH   1  12
ATOM     11  O   LIG    1        0.005   0.005   0.023  0.00  0.00    -0.680 OA
ATOM     12  C   LIG    1       -0.016   1.224   0.015  0.00  0.00    +0.500 C 
ATOM     13  OXT LIG    1        1.030   1.852   0.005  0.00  0.00    -0.670 OA
ENDBRANCH   1  12
BRANCH   8  14
ATOM     14  N   LIG    1       -5.740   0.452   0.873  0.00  0.00    +0.250 N 
ATOM     15  O   LIG    1       -5.988   0.557   2.061  0.00  0.00    -0.260 OA
ATOM     16  O   LIG    1       -6.635   0.550   0.053  0.00  0.00    -0.250 OA
ENDBRANCH   8  14
TORSDOF 2
ENDMDL
MODEL      154
REMARK  Name = ZINC000019203425
REMARK                            x       y       z     vdW  Elec       q    Type
REMARK                         _______ _______ _______ _____ _____    ______ ____
ROOT
ATOM      1  C   LIG    1        2.458  -1.886  -1.060  0.00  0.00    +0.300 C 
ENDROOT
BRANCH   1   2
ATOM      2  C   LIG    1        3.701  -2.226  -1.842  0.00  0.00    +0.500 C 
ATOM      3  N   LIG    1        4.658  -2.995  -1.286  0.00  0.00    -0.690 N 
ATOM      4  H   LIG    1        4.547  -3.330  -0.383  0.00  0.00    +0.410 HD
ATOM      5  O   LIG    1        3.839  -1.806  -2.971  0.00  0.00    -0.550 OA
BRANCH   3   6
ATOM      6  C   LIG    1        5.866  -3.325  -2.047  0.00  0.00    +0.190 C 
BRANCH   6   7
ATOM      7  C   LIG    1        6.768  -4.190  -1.206  0.00  0.00    +0.490 C 
ATOM      8  O   LIG    1        7.833  -4.577  -1.655  0.00  0.00    -0.690 OA
ATOM      9  O   LIG    1        6.434  -4.502  -0.076  0.00  0.00    -0.690 OA
ENDBRANCH   6   7
ENDBRANCH   3   6
ENDBRANCH   1   2
BRANCH   1  10
ATOM     10  N   LIG    1        1.581  -1.046  -1.877  0.00  0.00    -1.110 NA
ATOM     11  H   LIG    1        1.925  -0.618  -2.677  0.00  0.00    +0.430 HD
BRANCH  10  12
ATOM     12  S   LIG    1       -0.000  -0.824  -1.437  0.00  0.00    +2.790 S 
ATOM     13  O   LIG    1       -0.566   0.055  -2.399  0.00  0.00    -0.970 OA
ATOM     14  O   LIG    1       -0.525  -2.116  -1.161  0.00  0.00    -0.970 OA
BRANCH  12  16
ATOM     15  C   LIG    1       -0.018   1.461   0.010  0.00  0.00    +0.290 C 
ATOM     16  N   LIG    1        0.002  -0.004   0.002  0.00  0.00    -1.020 NA
ATOM     17  C   LIG    1        0.024  -0.743   1.267  0.00  0.00    +0.290 C 
ENDBRANCH  12  16
ENDBRANCH  10  12
ENDBRANCH   1  10
TORSDOF 6
ENDMDL
MODEL      155
REMARK  Name = ZINC000019366645
REMARK                            x       y       z     vdW  Elec       q    Type
REMARK                         _______ _______ _______ _____ _____    ______ ____
ROOT
ATOM      1  N   LIG    1       -2.367   0.914   0.095  0.00  0.00    -0.510 NA
ATOM      2  C   LIG    1       -2.070  -0.197  -0.821  0.00  0.00    +0.170 C 
ATOM      3  C   LIG    1       -3.140  -1.280  -0.669  0.00  0.00    +0.250 C 
ATOM      4  N   LIG    1       -4.459  -0.712  -0.974  0.00  0.00    -0.360 N 
ATOM      5  C   LIG    1       -4.753   0.380  -0.036  0.00  0.00    +0.270 C 
ATOM      6  H   LIG    1       -4.461  -0.353  -1.917  0.00  0.00    +0.420 HD
ATOM      7  C   LIG    1       -3.696   1.477  -0.183  0.00  0.00    +0.220 C 
ENDROOT
BRANCH   1   8
ATOM      8  C   LIG    1       -1.330   1.951   0.019  0.00  0.00    +0.110 C 
BRANCH   8  10
ATOM      9  O   LIG    1       -2.380   2.742   1.985  0.00  0.00    -0.680 OA
ATOM     10  C   LIG    1       -1.530   2.944   1.134  0.00  0.00    +0.490 C 
ATOM     11  O   LIG    1       -0.840   3.947   1.188  0.00  0.00    -0.700 OA
ENDBRANCH   8  10
ENDBRANCH   1   8
BRANCH   4  12
ATOM     12  C   LIG    1       -5.484  -1.756  -0.845  0.00  0.00    +0.160 C 
BRANCH  12  13
ATOM     13  C   LIG    1       -6.819  -1.206  -1.276  0.00  0.00    +0.490 C 
ATOM     14  O   LIG    1       -7.810  -1.916  -1.245  0.00  0.00    -0.650 OA
ATOM     15  O   LIG    1       -6.909  -0.051  -1.655  0.00  0.00    -0.670 OA
ENDBRANCH  12  13
ENDBRANCH   4  12
TORSDOF 4
ENDMDL
MODEL      156
REMARK  Name = ZINC000001269279
REMARK                            x       y       z     vdW  Elec       q    Type
REMARK                         _______ _______ _______ _____ _____    ______ ____
ROOT
ATOM      1  C   LIG    1        1.682  -1.060  -1.906  0.00  0.00    -0.570 A 
ATOM      2  N   LIG    1        2.210  -0.340  -2.856  0.00  0.00    -0.080 NA
ATOM      3  N   LIG    1        3.548  -0.538  -3.219  0.00  0.00    -0.570 N 
ATOM      4  H   LIG    1        3.936  -0.000  -3.927  0.00  0.00    +0.420 HD
ATOM      5  C   LIG    1        4.301  -1.463  -2.599  0.00  0.00    +0.630 A 
ATOM      6  N   LIG    1        3.792  -2.225  -1.613  0.00  0.00    -0.670 NA
ATOM      7  O   LIG    1        5.460  -1.614  -2.934  0.00  0.00    -0.590 OA
ATOM      8  C   LIG    1        2.509  -2.063  -1.229  0.00  0.00    +0.520 A 
ATOM      9  O   LIG    1        2.041  -2.748  -0.338  0.00  0.00    -0.550 OA
ENDROOT
BRANCH   1  10
ATOM     10  S   LIG    1       -0.000  -0.824  -1.437  0.00  0.00    +2.720 S 
ATOM     11  O   LIG    1       -0.566   0.055  -2.399  0.00  0.00    -0.950 OA
ATOM     12  O   LIG    1       -0.525  -2.116  -1.161  0.00  0.00    -0.930 OA
BRANCH  10  14
ATOM     13  C   LIG    1       -0.018   1.461   0.010  0.00  0.00    +0.290 C 
ATOM     14  N   LIG    1        0.002  -0.004   0.002  0.00  0.00    -1.000 NA
ATOM     15  C   LIG    1        0.024  -0.743   1.267  0.00  0.00    +0.320 C 
ENDBRANCH  10  14
ENDBRANCH   1  10
TORSDOF 2
ENDMDL
MODEL      157
REMARK  Name = ZINC000125978345
REMARK                            x       y       z     vdW  Elec       q    Type
REMARK                         _______ _______ _______ _____ _____    ______ ____
ROOT
ATOM      1  C   LIG    1       -0.018   1.461   0.010  0.00  0.00    +0.330 C 
ATOM      2  N   LIG    1        0.002  -0.004   0.002  0.00  0.00    -0.550 N 
ATOM      3  C   LIG    1        0.006  -0.675  -1.190  0.00  0.00    +0.350 A 
ATOM      4  C   LIG    1        0.024  -2.025  -1.198  0.00  0.00    -0.600 A 
ATOM      5  C   LIG    1        0.040  -2.721   0.035  0.00  0.00    +0.560 A 
ATOM      6  N   LIG    1        0.036  -2.022   1.189  0.00  0.00    -0.570 N 
ATOM      7  C   LIG    1        0.052  -2.731   2.471  0.00  0.00    +0.320 C 
ATOM      8  O   LIG    1        0.058  -3.938   0.054  0.00  0.00    -0.480 OA
ATOM      9  C   LIG    1        0.022  -0.677   1.167  0.00  0.00    +0.700 A 
ATOM     10  O   LIG    1        0.019  -0.060   2.215  0.00  0.00    -0.570 OA
ENDROOT
BRANCH   4  11
ATOM     11  S   LIG    1        0.030  -2.910  -2.722  0.00  0.00    +1.510 S 
ATOM     12  O   LIG    1       -1.084  -3.857  -2.558  0.00  0.00    -0.990 OA
ATOM     13  O   LIG    1        1.217  -3.771  -2.600  0.00  0.00    -0.990 OA
ENDBRANCH   4  11
TORSDOF 1
ENDMDL
MODEL      158
REMARK  Name = ZINC000006088314
REMARK                            x       y       z     vdW  Elec       q    Type
REMARK                         _______ _______ _______ _____ _____    ______ ____
ROOT
ATOM      1  C   LIG    1       -0.790  -0.443  -1.510  0.00  0.00    -0.650 A 
ATOM      2  C   LIG    1       -0.100  -1.135  -2.486  0.00  0.00    +0.310 A 
ATOM      3  N   LIG    1       -0.670  -1.424  -3.640  0.00  0.00    -0.480 NA
ATOM      4  C   LIG    1       -1.912  -1.070  -3.907  0.00  0.00    +0.290 A 
ATOM      5  C   LIG    1       -2.665  -0.375  -2.978  0.00  0.00    +0.060 A 
ATOM      6  C   LIG    1       -2.100  -0.058  -1.753  0.00  0.00    -0.520 A 
ENDROOT
BRANCH   6   7
ATOM      7  S   LIG    1       -3.021   0.825  -0.537  0.00  0.00    +2.660 S 
ATOM      8  O   LIG    1       -4.057   1.559  -1.248  0.00  0.00    -1.050 OA
ATOM      9  O   LIG    1       -2.085   1.714   0.134  0.00  0.00    -1.030 OA
ATOM     10  O   LIG    1       -3.579  -0.166   0.369  0.00  0.00    -1.020 OA
ENDBRANCH   6   7
BRANCH   1  11
ATOM     11  S   LIG    1       -0.019  -0.062   0.028  0.00  0.00    +2.690 S 
ATOM     12  O   LIG    1        0.430   1.282  -0.071  0.00  0.00    -0.910 OA
ATOM     13  O   LIG    1       -0.905  -0.513   1.044  0.00  0.00    -0.920 OA
BRANCH  11  14
ATOM     14  N   LIG    1        1.339  -1.002   0.141  0.00  0.00    -1.250 NA
ATOM     15  H   LIG    1        2.107  -0.815  -0.421  0.00  0.00    +0.410 HD
ATOM     16  H   LIG    1        1.366  -1.742   0.767  0.00  0.00    +0.420 HD
ENDBRANCH  11  14
ENDBRANCH   1  11
TORSDOF 3
ENDMDL
MODEL      159
REMARK  Name = ZINC000238833219
REMARK                            x       y       z     vdW  Elec       q    Type
REMARK                         _______ _______ _______ _____ _____    ______ ____
ROOT
ATOM      1  C   LIG    1       -0.018   1.461   0.010  0.00  0.00    +0.330 C 
ATOM      2  N   LIG    1        0.002  -0.004   0.002  0.00  0.00    -0.400 N 
ATOM      3  C   LIG    1        0.008  -0.784  -1.098  0.00  0.00    +0.300 A 
ATOM      4  C   LIG    1        0.027  -2.089  -0.718  0.00  0.00    -0.770 A 
ATOM      5  C   LIG    1        0.034  -2.131   0.674  0.00  0.00    +0.200 A 
ATOM      6  C   LIG    1        0.024  -0.814   1.118  0.00  0.00    -0.090 A 
ENDROOT
BRANCH   4   7
ATOM      7  S   LIG    1        0.043  -3.483  -1.796  0.00  0.00    +2.730 S 
ATOM      8  O   LIG    1       -0.512  -3.043  -3.028  0.00  0.00    -0.980 OA
ATOM      9  O   LIG    1       -0.484  -4.572  -1.052  0.00  0.00    -0.960 OA
BRANCH   7  10
ATOM     10  N   LIG    1        1.629  -3.849  -2.102  0.00  0.00    -1.250 NA
ATOM     11  H   LIG    1        1.851  -4.594  -2.682  0.00  0.00    +0.410 HD
ATOM     12  H   LIG    1        2.335  -3.318  -1.701  0.00  0.00    +0.420 HD
ENDBRANCH   7  10
ENDBRANCH   4   7
BRANCH   6  13
ATOM     13  C   LIG    1        0.026  -0.383   2.465  0.00  0.00    +0.350 C 
ATOM     14  O   LIG    1        0.017   0.805   2.724  0.00  0.00    -0.470 OA
BRANCH  13  15
ATOM     15  C   LIG    1        0.040  -1.387   3.568  0.00  0.00    +0.480 C 
ATOM     16  O   LIG    1        0.050  -2.580   3.309  0.00  0.00    -0.650 OA
ATOM     17  O   LIG    1        0.043  -1.016   4.731  0.00  0.00    -0.650 OA
ENDBRANCH  13  15
ENDBRANCH   6  13
TORSDOF 4
ENDMDL
MODEL      160
REMARK  Name = ZINC000022204271
REMARK                            x       y       z     vdW  Elec       q    Type
REMARK                         _______ _______ _______ _____ _____    ______ ____
ROOT
ATOM      1  C   LIG    1        2.525  -0.029   1.214  0.00  0.00    -0.010 A 
ATOM      2  N   LIG    1        2.828   0.661   0.144  0.00  0.00    -0.240 NA
ATOM      3  N   LIG    1        4.140   1.111  -0.045  0.00  0.00    -0.580 N 
ATOM      4  H   LIG    1        4.360   1.622  -0.840  0.00  0.00    +0.410 HD
ATOM      5  C   LIG    1        5.099   0.845   0.859  0.00  0.00    +0.640 A 
ATOM      6  N   LIG    1        4.830   0.139   1.972  0.00  0.00    -0.680 NA
ATOM      7  O   LIG    1        6.230   1.249   0.666  0.00  0.00    -0.610 OA
ATOM      8  C   LIG    1        3.579  -0.312   2.202  0.00  0.00    +0.510 A 
ATOM      9  O   LIG    1        3.328  -0.950   3.207  0.00  0.00    -0.560 OA
ENDROOT
BRANCH   1  10
ATOM     10  S   LIG    1        0.879  -0.605   1.472  0.00  0.00    +0.060 S 
BRANCH  10  12
ATOM     11  C   LIG    1       -0.019   1.526   0.010  0.00  0.00    +0.080 C 
ATOM     12  C   LIG    1        0.002  -0.004   0.002  0.00  0.00    -0.020 C 
BRANCH  12  13
ATOM     13  C   LIG    1       -1.412  -0.526   0.013  0.00  0.00    +0.540 C 
ATOM     14  O   LIG    1       -1.939  -0.827   1.062  0.00  0.00    -0.520 OA
ATOM     15  N   LIG    1       -2.090  -0.657  -1.144  0.00  0.00    -0.850 N 
ATOM     16  H   LIG    1       -3.000  -0.993  -1.137  0.00  0.00    +0.400 HD
ATOM     17  H   LIG    1       -1.669  -0.416  -1.984  0.00  0.00    +0.400 HD
ENDBRANCH  12  13
ENDBRANCH  10  12
ENDBRANCH   1  10
TORSDOF 3
ENDMDL
MODEL      161
REMARK  Name = ZINC000022204275
REMARK                            x       y       z     vdW  Elec       q    Type
REMARK                         _______ _______ _______ _____ _____    ______ ____
ROOT
ATOM      1  C   LIG    1       -2.338  -0.080  -1.532  0.00  0.00    -0.010 A 
ATOM      2  N   LIG    1       -1.586   0.605  -2.355  0.00  0.00    -0.240 NA
ATOM      3  N   LIG    1       -2.108   1.036  -3.580  0.00  0.00    -0.580 N 
ATOM      4  H   LIG    1       -1.547   1.544  -4.187  0.00  0.00    +0.410 HD
ATOM      5  C   LIG    1       -3.376   0.756  -3.928  0.00  0.00    +0.640 A 
ATOM      6  N   LIG    1       -4.183   0.054  -3.112  0.00  0.00    -0.680 NA
ATOM      7  O   LIG    1       -3.801   1.145  -5.000  0.00  0.00    -0.610 OA
ATOM      8  C   LIG    1       -3.723  -0.388  -1.923  0.00  0.00    +0.510 A 
ATOM      9  O   LIG    1       -4.447  -1.024  -1.179  0.00  0.00    -0.560 OA
ENDROOT
BRANCH   1  10
ATOM     10  S   LIG    1       -1.700  -0.632   0.015  0.00  0.00    +0.060 S 
BRANCH  10  12
ATOM     11  C   LIG    1       -0.019   1.526   0.010  0.00  0.00    +0.080 C 
ATOM     12  C   LIG    1        0.002  -0.004   0.002  0.00  0.00    -0.010 C 
BRANCH  12  13
ATOM     13  C   LIG    1        0.731  -0.503   1.223  0.00  0.00    +0.540 C 
ATOM     14  O   LIG    1        0.105  -0.891   2.187  0.00  0.00    -0.520 OA
ATOM     15  N   LIG    1        2.079  -0.519   1.244  0.00  0.00    -0.850 N 
ATOM     16  H   LIG    1        2.548  -0.840   2.030  0.00  0.00    +0.400 HD
ATOM     17  H   LIG    1        2.579  -0.208   0.473  0.00  0.00    +0.400 HD
ENDBRANCH  12  13
ENDBRANCH  10  12
ENDBRANCH   1  10
TORSDOF 3
ENDMDL
MODEL      162
REMARK  Name = ZINC000169458217
REMARK                            x       y       z     vdW  Elec       q    Type
REMARK                         _______ _______ _______ _____ _____    ______ ____
ROOT
ATOM      1  C   LIG    1       -0.018   1.461   0.010  0.00  0.00    +0.350 C 
ATOM      2  N   LIG    1        0.002  -0.004   0.002  0.00  0.00    -0.330 N 
ATOM      3  N   LIG    1        0.008  -0.815  -1.138  0.00  0.00    -0.280 NA
ATOM      4  C   LIG    1        0.027  -2.065  -0.769  0.00  0.00    +0.250 A 
ATOM      5  C   LIG    1        0.033  -2.103   0.645  0.00  0.00    -0.150 A 
ATOM      6  C   LIG    1        0.023  -0.793   1.087  0.00  0.00    -0.490 A 
ENDROOT
BRANCH   5   7
ATOM      7  C   LIG    1        0.053  -3.309   1.486  0.00  0.00    +0.520 C 
ATOM      8  O   LIG    1        0.057  -3.204   2.705  0.00  0.00    -0.630 OA
ATOM      9  O   LIG    1        0.066  -4.417   0.967  0.00  0.00    -0.690 OA
ENDBRANCH   5   7
BRANCH   6  10
ATOM     10  S   LIG    1        0.025  -0.258   2.765  0.00  0.00    +2.710 S 
ATOM     11  O   LIG    1        0.558   1.059   2.766  0.00  0.00    -0.980 OA
ATOM     12  O   LIG    1        0.582  -1.322   3.525  0.00  0.00    -0.870 OA
BRANCH  10  13
ATOM     13  N   LIG    1       -1.556  -0.123   3.239  0.00  0.00    -1.240 NA
ATOM     14  H   LIG    1       -2.239   0.104   2.589  0.00  0.00    +0.410 HD
ATOM     15  H   LIG    1       -1.799  -0.271   4.166  0.00  0.00    +0.420 HD
ENDBRANCH  10  13
ENDBRANCH   6  10
TORSDOF 3
ENDMDL
MODEL      163
REMARK  Name = ZINC000028538931
REMARK                            x       y       z     vdW  Elec       q    Type
REMARK                         _______ _______ _______ _____ _____    ______ ____
ROOT
ATOM      1  C   LIG    1       -0.018   1.461   0.010  0.00  0.00    +0.320 C 
ATOM      2  N   LIG    1        0.002  -0.004   0.002  0.00  0.00    -0.500 N 
ATOM      3  C   LIG    1        0.006  -0.683  -1.166  0.00  0.00    +0.500 A 
ATOM      4  CA  LIG    1        0.026  -2.150  -1.142  0.00  0.00    +0.020 A 
ATOM      5  N   LIG    1        0.040  -2.790   0.017  0.00  0.00    -0.320 NA
ATOM      6  C   LIG    1        0.036  -2.120   1.158  0.00  0.00    -0.150 A 
ATOM      7  C   LIG    1        0.052  -2.828   2.450  0.00  0.00    +0.580 A 
ATOM      8  O   LIG    1        0.063  -4.043   2.503  0.00  0.00    -0.480 OA
ATOM      9  N   LIG    1        0.040  -2.076   3.575  0.00  0.00    -0.660 N 
ATOM     10  H   LIG    1        0.045  -2.508   4.443  0.00  0.00    +0.420 HD
ATOM     11  C   LIG    1        0.027  -0.719   3.493  0.00  0.00    +0.670 A 
ATOM     12  N   LIG    1        0.019  -0.069   2.347  0.00  0.00    -0.610 NA
ATOM     13  O   LIG    1       -0.007  -0.084  -2.226  0.00  0.00    -0.470 OA
ATOM     14  C   LIG    1        0.023  -0.704   1.178  0.00  0.00    +0.420 A 
ENDROOT
BRANCH  11  15
ATOM     15  N   LIG    1        0.023   0.004   4.652  0.00  0.00    -0.810 N 
ATOM     16  H   LIG    1        0.029  -0.452   5.508  0.00  0.00    +0.420 HD
ATOM     17  H   LIG    1        0.013   0.973   4.619  0.00  0.00    +0.430 HD
ENDBRANCH  11  15
BRANCH   4  18
ATOM     18  C   LIG    1        0.031  -2.908  -2.401  0.00  0.00    +0.550 C 
ATOM     19  OXT LIG    1        0.018  -2.315  -3.472  0.00  0.00    -0.660 OA
ATOM     20  O   LIG    1        0.048  -4.131  -2.379  0.00  0.00    -0.660 OA
ENDBRANCH   4  18
TORSDOF 2
ENDMDL
MODEL      164
REMARK  Name = ZINC000006657841
REMARK                            x       y       z     vdW  Elec       q    Type
REMARK                         _______ _______ _______ _____ _____    ______ ____
ROOT
ATOM      1  O   LIG    1        0.002  -0.004   0.002  0.00  0.00    -0.600 OA
ATOM      2  C   LIG    1       -0.014   1.212   0.009  0.00  0.00    +0.640 A 
ATOM      3  N   LIG    1       -1.196   1.857   0.029  0.00  0.00    -0.670 NA
ATOM      4  C   LIG    1       -1.229   3.206   0.037  0.00  0.00    +0.520 A 
ATOM      5  C   LIG    1        0.039   3.954   0.022  0.00  0.00    -0.050 A 
ATOM      6  N   LIG    1        1.166   3.288   0.003  0.00  0.00    -0.180 NA
ATOM      7  O   LIG    1       -2.293   3.796   0.055  0.00  0.00    -0.560 OA
ATOM      8  N   LIG    1        1.147   1.889   0.001  0.00  0.00    -0.570 N 
ATOM      9  H   LIG    1        1.985   1.400  -0.013  0.00  0.00    +0.420 HD
ENDROOT
BRANCH   5  10
ATOM     10  S   LIG    1        0.040   5.716   0.032  0.00  0.00    +0.250 S 
BRANCH  10  11
ATOM     11  C   LIG    1        1.756   6.112   0.010  0.00  0.00    +0.170 A 
ATOM     12  N   LIG    1        2.741   5.244  -0.015  0.00  0.00    -0.260 NA
ATOM     13  N   LIG    1        3.934   5.985  -0.027  0.00  0.00    -0.490 N 
ATOM     14  H   LIG    1        4.837   5.631  -0.045  0.00  0.00    +0.440 HD
ATOM     15  C   LIG    1        3.578   7.280  -0.007  0.00  0.00    +0.480 A 
ATOM     16  N   LIG    1        2.271   7.346   0.009  0.00  0.00    -0.520 NA
ENDBRANCH  10  11
ENDBRANCH   5  10
TORSDOF 2
ENDMDL
MODEL      165
REMARK  Name = ZINC000088375807
REMARK                            x       y       z     vdW  Elec       q    Type
REMARK                         _______ _______ _______ _____ _____    ______ ____
ROOT
ATOM      1  C   LIG    1       -1.332   1.954   0.023  0.00  0.00    +0.110 C 
ATOM      2  C   LIG    1       -1.755   2.328  -1.402  0.00  0.00    +0.230 C 
ATOM      3  O   LIG    1       -3.078   2.867  -1.374  0.00  0.00    -0.390 OA
ATOM      4  C   LIG    1       -4.075   1.950  -0.916  0.00  0.00    +0.200 C 
ATOM      5  C   LIG    1       -3.771   1.557   0.534  0.00  0.00    +0.230 C 
ATOM      6  N   LIG    1       -2.375   1.097   0.608  0.00  0.00    -0.600 N 
ATOM      7  C   LIG    1       -2.062  -0.077   1.193  0.00  0.00    +0.500 C 
ATOM      8  O   LIG    1       -0.899  -0.393   1.334  0.00  0.00    -0.430 OA
ENDROOT
BRANCH   7   9
ATOM      9  C   LIG    1       -3.156  -0.996   1.672  0.00  0.00    +0.120 C 
ATOM     10  C   LIG    1       -3.870  -1.613   0.466  0.00  0.00    +0.220 C 
ATOM     11  O   LIG    1       -4.831  -2.567   0.928  0.00  0.00    -0.380 OA
ATOM     12  C   LIG    1       -4.264  -3.612   1.722  0.00  0.00    +0.180 C 
ATOM     13  C   LIG    1       -3.549  -2.996   2.928  0.00  0.00    +0.190 C 
ATOM     14  O   LIG    1       -2.588  -2.040   2.468  0.00  0.00    -0.350 OA
ENDBRANCH   7   9
BRANCH   1  16
ATOM     15  O   LIG    1        0.015   0.066  -0.441  0.00  0.00    -0.660 OA
ATOM     16  C   LIG    1       -0.023   1.207  -0.015  0.00  0.00    +0.510 C 
ATOM     17  O   LIG    1        0.998   1.747   0.377  0.00  0.00    -0.700 OA
ENDBRANCH   1  16
TORSDOF 2
ENDMDL
MODEL      166
REMARK  Name = ZINC000088375803
REMARK                            x       y       z     vdW  Elec       q    Type
REMARK                         _______ _______ _______ _____ _____    ______ ____
ROOT
ATOM      1  C   LIG    1       -1.331   1.944   0.007  0.00  0.00    +0.110 C 
ATOM      2  C   LIG    1       -1.745   2.301  -1.425  0.00  0.00    +0.230 C 
ATOM      3  O   LIG    1       -3.071   2.836  -1.413  0.00  0.00    -0.390 OA
ATOM      4  C   LIG    1       -4.067   1.920  -0.951  0.00  0.00    +0.200 C 
ATOM      5  C   LIG    1       -3.772   1.544   0.505  0.00  0.00    +0.220 C 
ATOM      6  N   LIG    1       -2.375   1.089   0.593  0.00  0.00    -0.600 N 
ATOM      7  C   LIG    1       -2.062  -0.077   1.193  0.00  0.00    +0.510 C 
ATOM      8  O   LIG    1       -0.899  -0.386   1.347  0.00  0.00    -0.440 OA
ENDROOT
BRANCH   7   9
ATOM      9  C   LIG    1       -3.156  -0.996   1.672  0.00  0.00    +0.130 C 
ATOM     10  C   LIG    1       -3.939  -0.315   2.798  0.00  0.00    +0.220 C 
ATOM     11  O   LIG    1       -4.902  -1.235   3.322  0.00  0.00    -0.380 OA
ATOM     12  C   LIG    1       -4.325  -2.447   3.817  0.00  0.00    +0.190 C 
ATOM     13  C   LIG    1       -3.542  -3.127   2.691  0.00  0.00    +0.190 C 
ATOM     14  O   LIG    1       -2.579  -2.208   2.166  0.00  0.00    -0.340 OA
ENDBRANCH   7   9
BRANCH   1  16
ATOM     15  O   LIG    1        0.060   0.120  -0.572  0.00  0.00    -0.670 OA
ATOM     16  C   LIG    1       -0.020   1.202  -0.014  0.00  0.00    +0.520 C 
ATOM     17  O   LIG    1        0.963   1.685   0.522  0.00  0.00    -0.690 OA
ENDBRANCH   1  16
TORSDOF 2
ENDMDL
MODEL      167
REMARK  Name = ZINC000521029851
REMARK                            x       y       z     vdW  Elec       q    Type
REMARK                         _______ _______ _______ _____ _____    ______ ____
ROOT
ATOM      1  C   LIG    1       -4.839   0.421   0.027  0.00  0.00    +0.410 C 
ENDROOT
BRANCH   1   2
ATOM      2  N   LIG    1       -6.117   1.136   0.037  0.00  0.00    -0.120 N 
ATOM      3  N   LIG    1       -6.761   1.500   1.091  0.00  0.00    -0.050 NA
ATOM      4  N   LIG    1       -7.842   2.103   0.729  0.00  0.00    -0.280 NA
ATOM      5  C   LIG    1       -7.865   2.111  -0.604  0.00  0.00    +0.190 A 
ATOM      6  N   LIG    1       -6.775   1.507  -1.008  0.00  0.00    -0.290 NA
BRANCH   5   7
ATOM      7  C   LIG    1       -8.937   2.708  -1.480  0.00  0.00    +0.060 C 
ATOM      8  C   LIG    1      -10.217   3.193  -0.798  0.00  0.00    +0.050 C 
ATOM      9  C   LIG    1       -9.209   4.207  -1.341  0.00  0.00    +0.050 C 
ENDBRANCH   5   7
ENDBRANCH   1   2
BRANCH   1  12
ATOM     10  N   LIG    1       -2.430   0.984   0.019  0.00  0.00    -0.690 N 
ATOM     11  H   LIG    1       -2.240   0.033   0.013  0.00  0.00    +0.410 HD
ATOM     12  C   LIG    1       -3.707   1.416   0.027  0.00  0.00    +0.490 C 
ATOM     13  O   LIG    1       -3.945   2.605   0.035  0.00  0.00    -0.540 OA
BRANCH  10  14
ATOM     14  C   LIG    1       -1.330   1.951   0.019  0.00  0.00    +0.190 C 
BRANCH  14  16
ATOM     15  O   LIG    1        0.002  -0.004   0.002  0.00  0.00    -0.690 OA
ATOM     16  C   LIG    1       -0.015   1.215   0.009  0.00  0.00    +0.490 C 
ATOM     17  O   LIG    1        1.033   1.839   0.002  0.00  0.00    -0.680 OA
ENDBRANCH  14  16
ENDBRANCH  10  14
ENDBRANCH   1  12
TORSDOF 5
ENDMDL
MODEL      168
REMARK  Name = ZINC000020135885
REMARK                            x       y       z     vdW  Elec       q    Type
REMARK                         _______ _______ _______ _____ _____    ______ ____
ROOT
ATOM      1  C   LIG    1       -2.479   0.941   0.019  0.00  0.00    +0.130 C 
ENDROOT
BRANCH   1   2
ATOM      2  N   LIG    1       -2.466   0.185  -1.240  0.00  0.00    -0.480 NA
ATOM      3  C   LIG    1       -2.538   1.088  -2.398  0.00  0.00    +0.210 C 
ATOM      4  C   LIG    1       -2.463   0.267  -3.687  0.00  0.00    +0.250 C 
ATOM      5  N   LIG    1       -3.575  -0.692  -3.723  0.00  0.00    -0.500 N 
ATOM      6  C   LIG    1       -3.475  -1.603  -2.575  0.00  0.00    +0.260 C 
ATOM      7  H   LIG    1       -3.531  -1.225  -4.579  0.00  0.00    +0.410 HD
ATOM      8  H   LIG    1       -4.450  -0.193  -3.682  0.00  0.00    +0.420 HD
ATOM      9  C   LIG    1       -3.559  -0.797  -1.276  0.00  0.00    +0.200 C 
ENDBRANCH   1   2
BRANCH   1  10
ATOM     10  C   LIG    1       -3.790   1.672   0.153  0.00  0.00    +0.470 C 
ATOM     11  O   LIG    1       -4.082   2.212   1.206  0.00  0.00    -0.690 OA
ATOM     12  O   LIG    1       -4.559   1.723  -0.792  0.00  0.00    -0.720 OA
ENDBRANCH   1  10
BRANCH   1  13
ATOM     13  C   LIG    1       -1.330   1.951   0.019  0.00  0.00    -0.050 C 
BRANCH  13  15
ATOM     14  O   LIG    1        0.002  -0.004   0.002  0.00  0.00    -0.680 OA
ATOM     15  C   LIG    1       -0.015   1.215   0.009  0.00  0.00    +0.500 C 
ATOM     16  O   LIG    1        1.033   1.839   0.002  0.00  0.00    -0.720 OA
ENDBRANCH  13  15
ENDBRANCH   1  13
TORSDOF 4
ENDMDL
MODEL      169
REMARK  Name = ZINC000020135881
REMARK                            x       y       z     vdW  Elec       q    Type
REMARK                         _______ _______ _______ _____ _____    ______ ____
ROOT
ATOM      1  C   LIG    1       -2.552   1.032   0.065  0.00  0.00    +0.080 C 
ENDROOT
BRANCH   1   2
ATOM      2  N   LIG    1       -2.601   0.346   1.363  0.00  0.00    -0.510 NA
ATOM      3  C   LIG    1       -1.261  -0.091   1.778  0.00  0.00    +0.180 C 
ATOM      4  C   LIG    1       -1.347  -0.746   3.158  0.00  0.00    +0.250 C 
ATOM      5  N   LIG    1       -2.259  -1.896   3.099  0.00  0.00    -0.500 N 
ATOM      6  C   LIG    1       -3.599  -1.440   2.707  0.00  0.00    +0.270 C 
ATOM      7  H   LIG    1       -2.306  -2.335   4.006  0.00  0.00    +0.420 HD
ATOM      8  H   LIG    1       -1.918  -2.561   2.421  0.00  0.00    +0.420 HD
ATOM      9  C   LIG    1       -3.532  -0.791   1.323  0.00  0.00    +0.200 C 
ENDBRANCH   1   2
BRANCH   1  10
ATOM     10  C   LIG    1       -3.886   1.678  -0.213  0.00  0.00    +0.510 C 
ATOM     11  O   LIG    1       -4.580   2.065   0.711  0.00  0.00    -0.710 OA
ATOM     12  O   LIG    1       -4.270   1.812  -1.362  0.00  0.00    -0.650 OA
ENDBRANCH   1  10
BRANCH   1  13
ATOM     13  C   LIG    1       -1.463   2.106   0.096  0.00  0.00    -0.060 C 
BRANCH  13  15
ATOM     14  O   LIG    1       -1.950   2.264  -2.213  0.00  0.00    -0.650 OA
ATOM     15  C   LIG    1       -1.328   2.724  -1.272  0.00  0.00    +0.480 C 
ATOM     16  O   LIG    1       -0.599   3.688  -1.435  0.00  0.00    -0.730 OA
ENDBRANCH  13  15
ENDBRANCH   1  13
TORSDOF 4
ENDMDL
MODEL      170
REMARK  Name = ZINC000005720972
REMARK                            x       y       z     vdW  Elec       q    Type
REMARK                         _______ _______ _______ _____ _____    ______ ____
ROOT
ATOM      1  N   LIG    1        0.688  -0.476  -1.203  0.00  0.00    -0.610 N 
ATOM      2  C   LIG    1        1.958  -0.205  -1.528  0.00  0.00    +0.700 C 
ATOM      3  N   LIG    1        2.353  -0.755  -2.683  0.00  0.00    -0.750 N 
ATOM      4  H   LIG    1        3.236  -0.665  -3.074  0.00  0.00    +0.420 HD
ATOM      5  C   LIG    1        1.238  -1.514  -3.267  0.00  0.00    +0.460 C 
ATOM      6  N   LIG    1        1.538  -2.952  -3.212  0.00  0.00    -0.740 N 
ATOM      7  H   LIG    1        2.214  -3.405  -3.740  0.00  0.00    +0.430 HD
ATOM      8  C   LIG    1        0.731  -3.539  -2.319  0.00  0.00    +0.710 C 
ATOM      9  N   LIG    1       -0.119  -2.696  -1.718  0.00  0.00    -0.730 N 
ATOM     10  H   LIG    1       -0.774  -2.944  -1.047  0.00  0.00    +0.430 HD
ATOM     11  O   LIG    1        0.767  -4.729  -2.074  0.00  0.00    -0.590 OA
ATOM     12  O   LIG    1        2.688   0.478  -0.836  0.00  0.00    -0.530 OA
ATOM     13  C   LIG    1        0.091  -1.327  -2.242  0.00  0.00    +0.450 C 
ENDROOT
BRANCH   1  15
ATOM     14  C   LIG    1       -0.019   1.526   0.010  0.00  0.00    +0.030 C 
ATOM     15  C   LIG    1        0.002  -0.004   0.002  0.00  0.00    +0.180 C 
BRANCH  15  16
ATOM     16  C   LIG    1        0.731  -0.503   1.223  0.00  0.00    +0.480 C 
ATOM     17  O   LIG    1        1.935  -0.690   1.180  0.00  0.00    -0.660 OA
ATOM     18  O   LIG    1        0.117  -0.721   2.253  0.00  0.00    -0.700 OA
ENDBRANCH  15  16
ENDBRANCH   1  15
TORSDOF 2
ENDMDL
MODEL      171
REMARK  Name = ZINC000001087922
REMARK                            x       y       z     vdW  Elec       q    Type
REMARK                         _______ _______ _______ _____ _____    ______ ____
ROOT
ATOM      1  C   LIG    1       -1.305   1.940   0.019  0.00  0.00    -0.050 A 
ATOM      2  N   LIG    1       -1.523   3.239   0.021  0.00  0.00    -0.320 NA
ATOM      3  O   LIG    1       -2.714   3.444   0.030  0.00  0.00    +0.290 OA
ATOM      4  N   LIG    1       -3.423   2.466   0.035  0.00  0.00    -0.440 NA
ATOM      5  C   LIG    1       -2.678   1.385   0.022  0.00  0.00    +0.290 A 
ENDROOT
BRANCH   1   7
ATOM      6  O   LIG    1        0.002  -0.004   0.002  0.00  0.00    -0.670 OA
ATOM      7  C   LIG    1       -0.015   1.218   0.009  0.00  0.00    +0.570 C 
ATOM      8  O   LIG    1        1.036   1.844   0.002  0.00  0.00    -0.650 OA
ENDBRANCH   1   7
BRANCH   5   9
ATOM      9  N   LIG    1       -3.077   0.056   0.022  0.00  0.00    -0.700 N 
ATOM     10  H   LIG    1       -2.412  -0.650   0.011  0.00  0.00    +0.430 HD
BRANCH   9  11
ATOM     11  C   LIG    1       -4.502  -0.281   0.038  0.00  0.00    +0.600 C 
BRANCH  11  12
ATOM     12  N   LIG    1       -4.660  -1.738   0.035  0.00  0.00    -0.320 N 
ATOM     13  C   LIG    1       -4.832  -2.526   1.112  0.00  0.00    +0.420 A 
ATOM     14  N   LIG    1       -4.929  -3.755   0.668  0.00  0.00    -0.310 NA
ATOM     15  N   LIG    1       -4.822  -3.724  -0.616  0.00  0.00    -0.070 NA
ATOM     16  N   LIG    1       -4.665  -2.506  -1.002  0.00  0.00    -0.080 NA
ENDBRANCH  11  12
ENDBRANCH   9  11
ENDBRANCH   5   9
TORSDOF 4
ENDMDL
MODEL      172
REMARK  Name = ZINC000020244589
REMARK                            x       y       z     vdW  Elec       q    Type
REMARK                         _______ _______ _______ _____ _____    ______ ____
ROOT
ATOM      1  C   LIG    1       -4.810   0.450  -0.084  0.00  0.00    -0.300 A 
ATOM      2  C   LIG    1       -6.120   0.876  -0.186  0.00  0.00    +0.430 A 
ATOM      3  N   LIG    1       -7.113  -0.045  -0.287  0.00  0.00    -0.630 N 
ATOM      4  H   LIG    1       -8.033   0.255  -0.359  0.00  0.00    +0.440 HD
ATOM      5  C   LIG    1       -6.851  -1.362  -0.290  0.00  0.00    +0.700 A 
ATOM      6  N   LIG    1       -5.600  -1.842  -0.194  0.00  0.00    -0.650 N 
ATOM      7  H   LIG    1       -5.449  -2.800  -0.200  0.00  0.00    +0.430 HD
ATOM      8  O   LIG    1       -7.776  -2.145  -0.383  0.00  0.00    -0.540 OA
ATOM      9  C   LIG    1       -4.550  -0.999  -0.095  0.00  0.00    +0.550 A 
ATOM     10  O   LIG    1       -3.414  -1.427  -0.008  0.00  0.00    -0.470 OA
ENDROOT
BRANCH   1  13
ATOM     11  N   LIG    1       -2.430   0.985   0.012  0.00  0.00    -0.680 N 
ATOM     12  H   LIG    1       -2.239   0.034   0.002  0.00  0.00    +0.420 HD
ATOM     13  C   LIG    1       -3.707   1.416   0.027  0.00  0.00    +0.570 C 
ATOM     14  O   LIG    1       -3.947   2.603   0.133  0.00  0.00    -0.570 OA
BRANCH  11  15
ATOM     15  C   LIG    1       -1.330   1.953   0.009  0.00  0.00    +0.190 C 
BRANCH  15  17
ATOM     16  O   LIG    1        0.003  -0.001  -0.019  0.00  0.00    -0.680 OA
ATOM     17  C   LIG    1       -0.014   1.218  -0.009  0.00  0.00    +0.490 C 
ATOM     18  O   LIG    1        1.032   1.843  -0.018  0.00  0.00    -0.690 OA
ENDBRANCH  15  17
ENDBRANCH  11  15
ENDBRANCH   1  13
TORSDOF 3
ENDMDL
MODEL      173
REMARK  Name = ZINC000098209796
REMARK                            x       y       z     vdW  Elec       q    Type
REMARK                         _______ _______ _______ _____ _____    ______ ____
ROOT
ATOM      1  C   LIG    1       -5.483  -0.577   1.228  0.00  0.00    +0.170 C 
ENDROOT
BRANCH   1   2
ATOM      2  C   LIG    1       -6.631  -0.606   0.217  0.00  0.00    +0.230 C 
ATOM      3  N   LIG    1       -6.415  -1.666  -0.783  0.00  0.00    -0.710 N 
ATOM      4  H   LIG    1       -5.674  -1.732  -1.406  0.00  0.00    +0.450 HD
ATOM      5  C   LIG    1       -7.445  -2.523  -0.665  0.00  0.00    +0.700 C 
ATOM      6  N   LIG    1       -8.308  -2.155   0.289  0.00  0.00    -0.680 N 
ATOM      7  H   LIG    1       -9.111  -2.650   0.517  0.00  0.00    +0.430 HD
ATOM      8  O   LIG    1       -7.576  -3.519  -1.348  0.00  0.00    -0.550 OA
ATOM      9  C   LIG    1       -7.926  -1.009   0.894  0.00  0.00    +0.530 C 
ATOM     10  O   LIG    1       -8.499  -0.429   1.791  0.00  0.00    -0.470 OA
ENDBRANCH   1   2
BRANCH   1  13
ATOM     11  N   LIG    1       -2.430   0.984   0.019  0.00  0.00    -0.240 N 
ATOM     12  C   LIG    1       -3.439   0.931   0.919  0.00  0.00    +0.120 A 
ATOM     13  C   LIG    1       -4.225  -0.106   0.544  0.00  0.00    -0.050 A 
ATOM     14  N   LIG    1       -3.665  -0.630  -0.551  0.00  0.00    -0.300 NA
ATOM     15  N   LIG    1       -2.606   0.041  -0.840  0.00  0.00    -0.040 NA
BRANCH  11  16
ATOM     16  C   LIG    1       -1.330   1.951   0.019  0.00  0.00    +0.230 C 
BRANCH  16  18
ATOM     17  O   LIG    1        0.002  -0.004   0.002  0.00  0.00    -0.660 OA
ATOM     18  C   LIG    1       -0.015   1.215   0.009  0.00  0.00    +0.490 C 
ATOM     19  O   LIG    1        1.033   1.839   0.002  0.00  0.00    -0.680 OA
ENDBRANCH  16  18
ENDBRANCH  11  16
ENDBRANCH   1  13
TORSDOF 4
ENDMDL
MODEL      174
REMARK  Name = ZINC000098209797
REMARK                            x       y       z     vdW  Elec       q    Type
REMARK                         _______ _______ _______ _____ _____    ______ ____
ROOT
ATOM      1  C   LIG    1       -5.483  -0.577   1.228  0.00  0.00    +0.180 C 
ENDROOT
BRANCH   1   2
ATOM      2  C   LIG    1       -6.631  -0.606   0.217  0.00  0.00    +0.240 C 
ATOM      3  N   LIG    1       -7.000   0.761  -0.188  0.00  0.00    -0.710 N 
ATOM      4  H   LIG    1       -6.431   1.407  -0.635  0.00  0.00    +0.440 HD
ATOM      5  C   LIG    1       -8.280   0.941   0.184  0.00  0.00    +0.700 C 
ATOM      6  N   LIG    1       -8.795  -0.140   0.783  0.00  0.00    -0.680 N 
ATOM      7  H   LIG    1       -9.703  -0.196   1.119  0.00  0.00    +0.430 HD
ATOM      8  O   LIG    1       -8.900   1.969  -0.002  0.00  0.00    -0.550 OA
ATOM      9  C   LIG    1       -7.894  -1.144   0.861  0.00  0.00    +0.530 C 
ATOM     10  O   LIG    1       -8.062  -2.242   1.345  0.00  0.00    -0.460 OA
ENDBRANCH   1   2
BRANCH   1  13
ATOM     11  N   LIG    1       -2.430   0.984   0.019  0.00  0.00    -0.240 N 
ATOM     12  C   LIG    1       -3.439   0.931   0.919  0.00  0.00    +0.120 A 
ATOM     13  C   LIG    1       -4.225  -0.106   0.544  0.00  0.00    -0.050 A 
ATOM     14  N   LIG    1       -3.665  -0.630  -0.551  0.00  0.00    -0.290 NA
ATOM     15  N   LIG    1       -2.606   0.041  -0.840  0.00  0.00    -0.040 NA
BRANCH  11  16
ATOM     16  C   LIG    1       -1.330   1.951   0.019  0.00  0.00    +0.230 C 
BRANCH  16  18
ATOM     17  O   LIG    1        0.002  -0.004   0.002  0.00  0.00    -0.660 OA
ATOM     18  C   LIG    1       -0.015   1.215   0.009  0.00  0.00    +0.490 C 
ATOM     19  O   LIG    1        1.033   1.839   0.002  0.00  0.00    -0.680 OA
ENDBRANCH  16  18
ENDBRANCH  11  16
ENDBRANCH   1  13
TORSDOF 4
ENDMDL
MODEL      175
REMARK  Name = ZINC000205361394
REMARK                            x       y       z     vdW  Elec       q    Type
REMARK                         _______ _______ _______ _____ _____    ______ ____
ROOT
ATOM      1  C   LIG    1       -0.018   1.461   0.010  0.00  0.00    +0.290 C 
ATOM      2  N   LIG    1        0.002  -0.004   0.002  0.00  0.00    -0.620 N 
ATOM      3  C   LIG    1        0.005  -0.694  -1.281  0.00  0.00    +0.310 C 
ATOM      4  C   LIG    1       -0.440  -2.118  -1.135  0.00  0.00    +0.510 C 
ATOM      5  N   LIG    1       -0.419  -2.764   0.035  0.00  0.00    -0.700 N 
ATOM      6  H   LIG    1       -0.722  -3.686   0.061  0.00  0.00    +0.410 HD
ATOM      7  C   LIG    1        0.036  -2.145   1.272  0.00  0.00    +0.230 C 
ATOM      8  O   LIG    1       -0.834  -2.708  -2.118  0.00  0.00    -0.540 OA
ATOM      9  C   LIG    1        0.022  -0.650   1.172  0.00  0.00    +0.510 C 
ATOM     10  O   LIG    1        0.020   0.001   2.196  0.00  0.00    -0.520 OA
ENDROOT
BRANCH   7  11
ATOM     11  C   LIG    1       -0.879  -2.582   2.418  0.00  0.00    +0.070 C 
BRANCH  11  12
ATOM     12  C   LIG    1       -0.736  -4.089   2.638  0.00  0.00    -0.060 C 
BRANCH  12  13
ATOM     13  C   LIG    1       -1.638  -4.519   3.767  0.00  0.00    +0.490 C 
ATOM     14  O   LIG    1       -1.675  -5.690   4.105  0.00  0.00    -0.700 OA
ATOM     15  O   LIG    1       -2.330  -3.697   4.341  0.00  0.00    -0.690 OA
ENDBRANCH  12  13
ENDBRANCH  11  12
ENDBRANCH   7  11
TORSDOF 3
ENDMDL
MODEL      176
REMARK  Name = ZINC000100003284
REMARK                            x       y       z     vdW  Elec       q    Type
REMARK                         _______ _______ _______ _____ _____    ______ ____
ROOT
ATOM      1  C   LIG    1       -0.018   1.461   0.010  0.00  0.00    +0.340 C 
ATOM      2  N   LIG    1        0.002  -0.004   0.002  0.00  0.00    -0.540 N 
ATOM      3  C   LIG    1        0.006  -0.667  -1.169  0.00  0.00    +0.710 A 
ATOM      4  N   LIG    1        0.023  -2.012  -1.206  0.00  0.00    -0.660 N 
ATOM      5  H   LIG    1        0.025  -2.470  -2.061  0.00  0.00    +0.430 HD
ATOM      6  C   LIG    1        0.038  -2.728  -0.063  0.00  0.00    +0.570 A 
ATOM      7  C   LIG    1        0.035  -2.056   1.171  0.00  0.00    -0.250 A 
ATOM      8  C   LIG    1        0.051  -2.834   2.460  0.00  0.00    +0.010 C 
ATOM      9  C   LIG    1        0.841  -2.061   3.514  0.00  0.00    +0.100 C 
ATOM     10  C   LIG    1        0.398  -0.622   3.525  0.00  0.00    +0.560 C 
ATOM     11  O   LIG    1        0.381  -0.006   4.570  0.00  0.00    -0.510 OA
ATOM     12  N   LIG    1        0.020  -0.013   2.386  0.00  0.00    -0.660 N 
ATOM     13  H   LIG    1       -0.256   0.916   2.408  0.00  0.00    +0.410 HD
ATOM     14  O   LIG    1        0.054  -3.946  -0.100  0.00  0.00    -0.490 OA
ATOM     15  O   LIG    1       -0.007  -0.041  -2.211  0.00  0.00    -0.550 OA
ATOM     16  C   LIG    1        0.023  -0.694   1.190  0.00  0.00    +0.410 A 
ENDROOT
BRANCH   8  17
ATOM     17  C   LIG    1       -1.365  -3.030   2.936  0.00  0.00    +0.500 C 
ATOM     18  O   LIG    1       -2.166  -3.627   2.237  0.00  0.00    -0.680 OA
ATOM     19  O   LIG    1       -1.710  -2.591   4.020  0.00  0.00    -0.690 OA
ENDBRANCH   8  17
TORSDOF 1
ENDMDL
MODEL      177
REMARK  Name = ZINC000100003286
REMARK                            x       y       z     vdW  Elec       q    Type
REMARK                         _______ _______ _______ _____ _____    ______ ____
ROOT
ATOM      1  C   LIG    1       -0.018   1.461   0.010  0.00  0.00    +0.330 C 
ATOM      2  N   LIG    1        0.002  -0.004   0.002  0.00  0.00    -0.540 N 
ATOM      3  C   LIG    1        0.006  -0.667  -1.169  0.00  0.00    +0.710 A 
ATOM      4  N   LIG    1        0.024  -2.012  -1.206  0.00  0.00    -0.660 N 
ATOM      5  H   LIG    1        0.026  -2.470  -2.061  0.00  0.00    +0.430 HD
ATOM      6  C   LIG    1        0.040  -2.728  -0.063  0.00  0.00    +0.570 A 
ATOM      7  C   LIG    1        0.036  -2.056   1.171  0.00  0.00    -0.240 A 
ATOM      8  C   LIG    1        0.053  -2.834   2.460  0.00  0.00    +0.020 C 
ATOM      9  C   LIG    1       -0.758  -2.076   3.518  0.00  0.00    +0.100 C 
ATOM     10  C   LIG    1       -0.342  -0.629   3.527  0.00  0.00    +0.540 C 
ATOM     11  O   LIG    1       -0.332  -0.013   4.571  0.00  0.00    -0.510 OA
ATOM     12  N   LIG    1        0.018  -0.013   2.386  0.00  0.00    -0.650 N 
ATOM     13  H   LIG    1        0.278   0.921   2.407  0.00  0.00    +0.410 HD
ATOM     14  O   LIG    1        0.057  -3.946  -0.100  0.00  0.00    -0.510 OA
ATOM     15  O   LIG    1       -0.008  -0.041  -2.211  0.00  0.00    -0.550 OA
ATOM     16  C   LIG    1        0.023  -0.694   1.190  0.00  0.00    +0.420 A 
ENDROOT
BRANCH   8  17
ATOM     17  C   LIG    1        1.472  -2.999   2.938  0.00  0.00    +0.500 C 
ATOM     18  O   LIG    1        2.393  -2.530   2.291  0.00  0.00    -0.680 OA
ATOM     19  O   LIG    1        1.700  -3.604   3.973  0.00  0.00    -0.690 OA
ENDBRANCH   8  17
TORSDOF 1
ENDMDL
MODEL      178
REMARK  Name = ZINC000036047638
REMARK                            x       y       z     vdW  Elec       q    Type
REMARK                         _______ _______ _______ _____ _____    ______ ____
ROOT
ATOM      1  C   LIG    1       -0.018   1.461   0.010  0.00  0.00    +0.340 C 
ATOM      2  N   LIG    1        0.002  -0.004   0.002  0.00  0.00    -0.510 N 
ATOM      3  C   LIG    1       -1.185  -0.700   0.004  0.00  0.00    +0.250 A 
ATOM      4  C   LIG    1       -1.156  -2.089  -0.004  0.00  0.00    -0.090 A 
ATOM      5  C   LIG    1        0.147  -2.756  -0.014  0.00  0.00    +0.600 A 
ATOM      6  N   LIG    1        1.262  -1.993  -0.015  0.00  0.00    -0.650 N 
ATOM      7  H   LIG    1        2.133  -2.419  -0.021  0.00  0.00    +0.440 HD
ATOM      8  O   LIG    1        0.225  -3.971  -0.021  0.00  0.00    -0.480 OA
ATOM      9  N   LIG    1       -2.440  -2.521   0.001  0.00  0.00    -0.410 NA
ATOM     10  C   LIG    1       -3.235  -1.491   0.010  0.00  0.00    +0.260 A 
ATOM     11  N   LIG    1       -2.497  -0.344   0.013  0.00  0.00    -0.550 N 
ATOM     12  H   LIG    1       -2.844   0.562   0.020  0.00  0.00    +0.430 HD
ATOM     13  C   LIG    1        1.180  -0.652  -0.013  0.00  0.00    +0.720 A 
ATOM     14  O   LIG    1        2.208  -0.002  -0.014  0.00  0.00    -0.540 OA
ENDROOT
BRANCH  10  15
ATOM     15  C   LIG    1       -4.741  -1.556   0.018  0.00  0.00    +0.170 C 
BRANCH  15  16
ATOM     16  C   LIG    1       -5.221  -2.397  -1.167  0.00  0.00    -0.050 C 
BRANCH  16  17
ATOM     17  C   LIG    1       -6.727  -2.462  -1.159  0.00  0.00    +0.490 C 
ATOM     18  O   LIG    1       -7.314  -3.088  -2.025  0.00  0.00    -0.700 OA
ATOM     19  O   LIG    1       -7.357  -1.888  -0.287  0.00  0.00    -0.700 OA
ENDBRANCH  16  17
ENDBRANCH  15  16
ENDBRANCH  10  15
TORSDOF 3
ENDMDL
MODEL      179
REMARK  Name = ZINC000000489479
REMARK                            x       y       z     vdW  Elec       q    Type
REMARK                         _______ _______ _______ _____ _____    ______ ____
ROOT
ATOM      1  C   LIG    1       -0.018   1.461   0.010  0.00  0.00    +0.340 C 
ATOM      2  N   LIG    1        0.002  -0.004   0.002  0.00  0.00    -0.550 N 
ATOM      3  C   LIG    1        0.005  -0.660  -1.171  0.00  0.00    +0.720 A 
ATOM      4  N   LIG    1        0.024  -2.005  -1.230  0.00  0.00    -0.610 N 
ATOM      5  H   LIG    1        0.026  -2.452  -2.090  0.00  0.00    +0.430 HD
ATOM      6  C   LIG    1        0.040  -2.751  -0.062  0.00  0.00    +0.290 A 
ATOM      7  C   LIG    1        0.036  -2.086   1.158  0.00  0.00    -0.130 A 
ATOM      8  N   LIG    1        0.054  -3.066   2.131  0.00  0.00    -0.360 N 
ATOM      9  C   LIG    1        0.068  -4.253   1.494  0.00  0.00    +0.480 A 
ATOM     10  N   LIG    1        0.059  -4.060   0.200  0.00  0.00    -0.510 NA
ATOM     11  O   LIG    1       -0.008  -0.022  -2.207  0.00  0.00    -0.550 OA
ATOM     12  C   LIG    1        0.022  -0.675   1.173  0.00  0.00    +0.590 A 
ATOM     13  O   LIG    1        0.019  -0.070   2.230  0.00  0.00    -0.500 OA
ENDROOT
BRANCH   8  14
ATOM     14  C   LIG    1        0.057  -2.854   3.581  0.00  0.00    +0.220 C 
BRANCH  14  15
ATOM     15  C   LIG    1       -1.359  -2.679   4.066  0.00  0.00    +0.490 C 
ATOM     16  O   LIG    1       -1.578  -2.489   5.250  0.00  0.00    -0.680 OA
ATOM     17  O   LIG    1       -2.285  -2.726   3.274  0.00  0.00    -0.670 OA
ENDBRANCH  14  15
ENDBRANCH   8  14
TORSDOF 2
ENDMDL
MODEL      180
REMARK  Name = ZINC000002106570
REMARK                            x       y       z     vdW  Elec       q    Type
REMARK                         _______ _______ _______ _____ _____    ______ ____
ROOT
ATOM      1  N   LIG    1       -4.915   0.721   0.029  0.00  0.00    -0.700 N 
ATOM      2  H   LIG    1       -4.724  -0.231   0.023  0.00  0.00    +0.410 HD
ATOM      3  C   LIG    1       -6.191   1.153   0.038  0.00  0.00    +0.550 C 
ATOM      4  O   LIG    1       -6.429   2.344   0.045  0.00  0.00    -0.520 OA
ENDROOT
BRANCH   3   5
ATOM      5  C   LIG    1       -7.306   0.173   0.038  0.00  0.00    +0.160 A 
ATOM      6  C   LIG    1       -7.046  -1.160   0.035  0.00  0.00    -0.050 A 
ATOM      7  C   LIG    1       -8.180  -2.092   0.035  0.00  0.00    +0.550 A 
ATOM      8  N   LIG    1       -9.433  -1.592   0.038  0.00  0.00    -0.660 N 
ATOM      9  H   LIG    1      -10.193  -2.195   0.037  0.00  0.00    +0.430 HD
ATOM     10  C   LIG    1       -9.636  -0.263   0.040  0.00  0.00    +0.710 A 
ATOM     11  O   LIG    1      -10.775   0.162   0.043  0.00  0.00    -0.540 OA
ATOM     12  O   LIG    1       -7.993  -3.294   0.033  0.00  0.00    -0.490 OA
ATOM     13  N   LIG    1       -8.613   0.608   0.046  0.00  0.00    -0.620 N 
ATOM     14  H   LIG    1       -8.798   1.560   0.048  0.00  0.00    +0.440 HD
ENDBRANCH   3   5
BRANCH   1  15
ATOM     15  C   LIG    1       -3.814   1.688   0.029  0.00  0.00    +0.250 C 
BRANCH  15  16
ATOM     16  C   LIG    1       -2.479   0.941   0.019  0.00  0.00    +0.030 C 
BRANCH  16  17
ATOM     17  C   LIG    1       -1.330   1.951   0.019  0.00  0.00    -0.060 C 
BRANCH  17  19
ATOM     18  O   LIG    1        0.002  -0.004   0.002  0.00  0.00    -0.700 OA
ATOM     19  C   LIG    1       -0.015   1.215   0.009  0.00  0.00    +0.490 C 
ATOM     20  O   LIG    1        1.033   1.839   0.002  0.00  0.00    -0.700 OA
ENDBRANCH  17  19
ENDBRANCH  16  17
ENDBRANCH  15  16
ENDBRANCH   1  15
TORSDOF 5
ENDMDL
MODEL      181
REMARK  Name = ZINC000065463287
REMARK                            x       y       z     vdW  Elec       q    Type
REMARK                         _______ _______ _______ _____ _____    ______ ____
ROOT
ATOM      1  C   LIG    1       -1.330   1.951   0.019  0.00  0.00    -0.080 C 
ATOM      2  C   LIG    1       -2.390   1.178   0.837  0.00  0.00    +0.050 C 
ATOM      3  C   LIG    1       -2.291   1.770   2.226  0.00  0.00    +0.510 C 
ATOM      4  N   LIG    1       -1.626   2.938   2.184  0.00  0.00    -0.620 N 
ATOM      5  O   LIG    1       -2.744   1.265   3.231  0.00  0.00    -0.470 OA
ATOM      6  C   LIG    1       -1.218   3.271   0.813  0.00  0.00    +0.260 C 
ENDROOT
BRANCH   1   8
ATOM      7  O   LIG    1        0.002  -0.004   0.002  0.00  0.00    -0.690 OA
ATOM      8  C   LIG    1       -0.015   1.215   0.009  0.00  0.00    +0.500 C 
ATOM      9  O   LIG    1        1.033   1.839   0.002  0.00  0.00    -0.700 OA
ENDBRANCH   1   8
BRANCH   4  10
ATOM     10  C   LIG    1       -1.345   3.771   3.356  0.00  0.00    +0.260 C 
BRANCH  10  11
ATOM     11  C   LIG    1       -0.506   2.975   4.358  0.00  0.00    +0.140 C 
BRANCH  11  12
ATOM     12  O   LIG    1       -1.272   1.875   4.852  0.00  0.00    -0.510 OA
ATOM     13  H   LIG    1       -0.803   1.325   5.494  0.00  0.00    +0.350 HD
ENDBRANCH  11  12
ENDBRANCH  10  11
BRANCH  10  14
ATOM     14  C   LIG    1       -2.662   4.191   4.012  0.00  0.00    +0.150 C 
BRANCH  14  15
ATOM     15  O   LIG    1       -3.329   3.034   4.522  0.00  0.00    -0.500 OA
ATOM     16  H   LIG    1       -4.173   3.226   4.952  0.00  0.00    +0.350 HD
ENDBRANCH  14  15
ENDBRANCH  10  14
ENDBRANCH   4  10
TORSDOF 6
ENDMDL
MODEL      182
REMARK  Name = ZINC000065463288
REMARK                            x       y       z     vdW  Elec       q    Type
REMARK                         _______ _______ _______ _____ _____    ______ ____
ROOT
ATOM      1  C   LIG    1       -1.330   1.951   0.019  0.00  0.00    -0.090 C 
ATOM      2  C   LIG    1       -1.643   2.544  -1.374  0.00  0.00    +0.060 C 
ATOM      3  C   LIG    1       -2.302   3.872  -1.073  0.00  0.00    +0.510 C 
ATOM      4  N   LIG    1       -2.067   4.225   0.203  0.00  0.00    -0.620 N 
ATOM      5  O   LIG    1       -2.948   4.523  -1.866  0.00  0.00    -0.470 OA
ATOM      6  C   LIG    1       -1.245   3.223   0.892  0.00  0.00    +0.260 C 
ENDROOT
BRANCH   1   8
ATOM      7  O   LIG    1        0.002  -0.004   0.002  0.00  0.00    -0.690 OA
ATOM      8  C   LIG    1       -0.015   1.215   0.009  0.00  0.00    +0.500 C 
ATOM      9  O   LIG    1        1.033   1.839   0.002  0.00  0.00    -0.690 OA
ENDBRANCH   1   8
BRANCH   4  10
ATOM     10  C   LIG    1       -2.568   5.452   0.826  0.00  0.00    +0.260 C 
BRANCH  10  11
ATOM     11  C   LIG    1       -4.098   5.460   0.780  0.00  0.00    +0.150 C 
BRANCH  11  12
ATOM     12  O   LIG    1       -4.533   5.521  -0.579  0.00  0.00    -0.500 OA
ATOM     13  H   LIG    1       -5.495   5.529  -0.684  0.00  0.00    +0.350 HD
ENDBRANCH  11  12
ENDBRANCH  10  11
BRANCH  10  14
ATOM     14  C   LIG    1       -2.030   6.667   0.067  0.00  0.00    +0.140 C 
BRANCH  14  15
ATOM     15  O   LIG    1       -2.560   6.673  -1.260  0.00  0.00    -0.500 OA
ATOM     16  H   LIG    1       -2.260   7.417  -1.800  0.00  0.00    +0.350 HD
ENDBRANCH  14  15
ENDBRANCH  10  14
ENDBRANCH   4  10
TORSDOF 6
ENDMDL
MODEL      183
REMARK  Name = ZINC000101078844
REMARK                            x       y       z     vdW  Elec       q    Type
REMARK                         _______ _______ _______ _____ _____    ______ ____
ROOT
ATOM      1  C   LIG    1       -1.412  -0.526   0.013  0.00  0.00    +0.320 C 
ATOM      2  C   LIG    1       -2.048  -0.734  -1.197  0.00  0.00    -0.430 C 
ATOM      3  C   LIG    1       -1.334  -0.580  -2.478  0.00  0.00    +0.560 C 
ATOM      4  N   LIG    1       -2.018  -0.799  -3.619  0.00  0.00    -0.720 NA
ATOM      5  C   LIG    1       -3.313  -1.147  -3.604  0.00  0.00    +0.660 C 
ATOM      6  N   LIG    1       -4.023  -1.304  -2.478  0.00  0.00    -0.690 N 
ATOM      7  H   LIG    1       -4.958  -1.558  -2.539  0.00  0.00    +0.390 HD
ATOM      8  O   LIG    1       -3.872  -1.329  -4.668  0.00  0.00    -0.610 OA
ATOM      9  O   LIG    1       -0.159  -0.266  -2.504  0.00  0.00    -0.580 OA
ATOM     10  C   LIG    1       -3.467  -1.124  -1.263  0.00  0.00    +0.580 C 
ATOM     11  O   LIG    1       -4.123  -1.270  -0.248  0.00  0.00    -0.580 OA
ENDROOT
BRANCH   1  13
ATOM     12  C   LIG    1        0.993  -1.132  -0.009  0.00  0.00    +0.040 C 
ATOM     13  C   LIG    1       -0.009   0.024   0.042  0.00  0.00    +0.080 C 
ENDBRANCH   1  13
BRANCH   1  14
ATOM     14  N   LIG    1       -2.047  -0.815   1.166  0.00  0.00    -0.690 N 
ATOM     15  H   LIG    1       -2.916  -1.245   1.147  0.00  0.00    +0.420 HD
BRANCH  14  16
ATOM     16  C   LIG    1       -1.424  -0.478   2.449  0.00  0.00    +0.260 C 
BRANCH  16  17
ATOM     17  C   LIG    1       -2.346  -0.909   3.592  0.00  0.00    +0.180 C 
BRANCH  17  18
ATOM     18  O   LIG    1       -2.469  -2.333   3.593  0.00  0.00    -0.570 OA
ATOM     19  H   LIG    1       -3.040  -2.678   4.293  0.00  0.00    +0.380 HD
ENDBRANCH  17  18
ENDBRANCH  16  17
ENDBRANCH  14  16
ENDBRANCH   1  14
TORSDOF 5
ENDMDL
MODEL      184
REMARK  Name = ZINC000088375804
REMARK                            x       y       z     vdW  Elec       q    Type
REMARK                         _______ _______ _______ _____ _____    ______ ____
ROOT
ATOM      1  C   LIG    1       -1.338   1.905   0.151  0.00  0.00    +0.110 C 
ATOM      2  C   LIG    1       -2.222   1.897  -1.101  0.00  0.00    +0.230 C 
ATOM      3  O   LIG    1       -3.405   2.658  -0.848  0.00  0.00    -0.390 OA
ATOM      4  C   LIG    1       -3.165   4.039  -0.569  0.00  0.00    +0.200 C 
ATOM      5  C   LIG    1       -2.329   4.157   0.711  0.00  0.00    +0.220 C 
ATOM      6  N   LIG    1       -1.140   3.302   0.570  0.00  0.00    -0.600 N 
ATOM      7  C   LIG    1        0.095   3.783   0.817  0.00  0.00    +0.500 C 
ATOM      8  O   LIG    1        1.065   3.071   0.668  0.00  0.00    -0.440 OA
ENDROOT
BRANCH   7   9
ATOM      9  C   LIG    1        0.270   5.208   1.277  0.00  0.00    +0.120 C 
ATOM     10  C   LIG    1       -0.050   6.162   0.123  0.00  0.00    +0.210 C 
ATOM     11  O   LIG    1        0.226   7.504   0.533  0.00  0.00    -0.380 OA
ATOM     12  C   LIG    1        1.579   7.709   0.951  0.00  0.00    +0.190 C 
ATOM     13  C   LIG    1        1.898   6.755   2.106  0.00  0.00    +0.190 C 
ATOM     14  O   LIG    1        1.622   5.412   1.697  0.00  0.00    -0.350 OA
ENDBRANCH   7   9
BRANCH   1  16
ATOM     15  O   LIG    1        0.349   0.270   0.428  0.00  0.00    -0.700 OA
ATOM     16  C   LIG    1       -0.006   1.276  -0.164  0.00  0.00    +0.520 C 
ATOM     17  O   LIG    1        0.716   1.769  -1.014  0.00  0.00    -0.670 OA
ENDBRANCH   1  16
TORSDOF 2
ENDMDL
MODEL      185
REMARK  Name = ZINC000725378606
REMARK                            x       y       z     vdW  Elec       q    Type
REMARK                         _______ _______ _______ _____ _____    ______ ____
ROOT
ATOM      1  C   LIG    1       -1.298   1.937   0.019  0.00  0.00    -0.140 A 
ATOM      2  C   LIG    1       -1.476   3.294   0.021  0.00  0.00    -0.460 A 
ATOM      3  N   LIG    1       -2.799   3.554   0.017  0.00  0.00    -0.340 N 
ATOM      4  N   LIG    1       -3.469   2.326   0.033  0.00  0.00    -0.280 NA
ATOM      5  C   LIG    1       -3.400   4.886  -0.019  0.00  0.00    +0.300 C 
ATOM      6  C   LIG    1       -2.480   5.963   0.540  0.00  0.00    +0.310 C 
ATOM      7  N   LIG    1       -1.181   5.960  -0.160  0.00  0.00    -1.130 NA
ATOM      8  H   LIG    1       -0.882   6.710  -0.698  0.00  0.00    +0.420 HD
ATOM      9  S   LIG    1       -0.258   4.576   0.035  0.00  0.00    +2.720 S 
ATOM     10  O   LIG    1        0.522   4.425  -1.143  0.00  0.00    -0.920 OA
ATOM     11  O   LIG    1        0.289   4.620   1.346  0.00  0.00    -0.930 OA
ATOM     12  C   LIG    1       -2.592   1.359   0.021  0.00  0.00    +0.270 A 
ENDROOT
BRANCH   1  14
ATOM     13  O   LIG    1        0.002  -0.004   0.002  0.00  0.00    -0.670 OA
ATOM     14  C   LIG    1       -0.015   1.219   0.009  0.00  0.00    +0.540 C 
ATOM     15  O   LIG    1        1.037   1.845   0.002  0.00  0.00    -0.670 OA
ENDBRANCH   1  14
TORSDOF 1
ENDMDL
MODEL      186
REMARK  Name = ZINC000088375808
REMARK                            x       y       z     vdW  Elec       q    Type
REMARK                         _______ _______ _______ _____ _____    ______ ____
ROOT
ATOM      1  C   LIG    1       -1.327   1.952   0.011  0.00  0.00    +0.110 C 
ATOM      2  C   LIG    1       -1.964   1.904  -1.383  0.00  0.00    +0.230 C 
ATOM      3  O   LIG    1       -3.113   2.754  -1.405  0.00  0.00    -0.390 OA
ATOM      4  C   LIG    1       -2.825   4.135  -1.173  0.00  0.00    +0.200 C 
ATOM      5  C   LIG    1       -2.233   4.297   0.232  0.00  0.00    +0.230 C 
ATOM      6  N   LIG    1       -1.106   3.361   0.372  0.00  0.00    -0.600 N 
ATOM      7  C   LIG    1        0.095   3.783   0.817  0.00  0.00    +0.500 C 
ATOM      8  O   LIG    1        1.034   3.017   0.847  0.00  0.00    -0.440 OA
ENDROOT
BRANCH   7   9
ATOM      9  C   LIG    1        0.270   5.208   1.277  0.00  0.00    +0.130 C 
ATOM     10  C   LIG    1       -0.582   5.450   2.527  0.00  0.00    +0.210 C 
ATOM     11  O   LIG    1       -0.325   6.767   3.022  0.00  0.00    -0.380 OA
ATOM     12  C   LIG    1        1.051   7.002   3.338  0.00  0.00    +0.190 C 
ATOM     13  C   LIG    1        1.902   6.760   2.089  0.00  0.00    +0.190 C 
ATOM     14  O   LIG    1        1.645   5.443   1.592  0.00  0.00    -0.350 OA
ENDBRANCH   7   9
BRANCH   1  16
ATOM     15  O   LIG    1        0.201   0.326   0.795  0.00  0.00    -0.700 OA
ATOM     16  C   LIG    1       -0.010   1.220  -0.007  0.00  0.00    +0.520 C 
ATOM     17  O   LIG    1        0.842   1.518  -0.827  0.00  0.00    -0.670 OA
ENDBRANCH   1  16
TORSDOF 2
ENDMDL
MODEL      187
REMARK  Name = ZINC000000039683
REMARK                            x       y       z     vdW  Elec       q    Type
REMARK                         _______ _______ _______ _____ _____    ______ ____
ROOT
ATOM      1  C   LIG    1       -0.018   1.461   0.010  0.00  0.00    +0.340 C 
ATOM      2  N   LIG    1        0.002  -0.004   0.002  0.00  0.00    -0.510 N 
ATOM      3  C   LIG    1       -1.189  -0.712   0.004  0.00  0.00    +0.290 A 
ATOM      4  C   LIG    1       -1.144  -2.100  -0.004  0.00  0.00    -0.130 A 
ATOM      5  N   LIG    1       -2.456  -2.530   0.000  0.00  0.00    -0.360 N 
ATOM      6  C   LIG    1       -3.231  -1.427   0.010  0.00  0.00    +0.480 A 
ATOM      7  C   LIG    1        0.111  -2.748  -0.013  0.00  0.00    +0.590 A 
ATOM      8  N   LIG    1        1.236  -2.003  -0.015  0.00  0.00    -0.650 N 
ATOM      9  H   LIG    1        2.100  -2.444  -0.021  0.00  0.00    +0.430 HD
ATOM     10  O   LIG    1        0.176  -3.964  -0.021  0.00  0.00    -0.500 OA
ATOM     11  N   LIG    1       -2.477  -0.358   0.012  0.00  0.00    -0.500 NA
ATOM     12  C   LIG    1        1.178  -0.660  -0.013  0.00  0.00    +0.710 A 
ATOM     13  O   LIG    1        2.213  -0.022  -0.014  0.00  0.00    -0.560 OA
ENDROOT
BRANCH   5  14
ATOM     14  C   LIG    1       -2.918  -3.920  -0.005  0.00  0.00    +0.220 C 
BRANCH  14  15
ATOM     15  C   LIG    1       -2.952  -4.442   1.409  0.00  0.00    +0.490 C 
ATOM     16  O   LIG    1       -3.311  -5.587   1.627  0.00  0.00    -0.680 OA
ATOM     17  O   LIG    1       -2.622  -3.721   2.334  0.00  0.00    -0.670 OA
ENDBRANCH  14  15
ENDBRANCH   5  14
TORSDOF 2
ENDMDL
MODEL      188
REMARK  Name = ZINC000000057633
REMARK                            x       y       z     vdW  Elec       q    Type
REMARK                         _______ _______ _______ _____ _____    ______ ____
ROOT
ATOM      1  C   LIG    1       -0.018   1.461   0.010  0.00  0.00    +0.330 C 
ATOM      2  N   LIG    1        0.002  -0.004   0.002  0.00  0.00    -0.510 N 
ATOM      3  C   LIG    1       -1.189  -0.712   0.004  0.00  0.00    +0.290 A 
ATOM      4  C   LIG    1       -1.144  -2.100  -0.004  0.00  0.00    -0.130 A 
ATOM      5  N   LIG    1       -2.456  -2.530   0.000  0.00  0.00    -0.360 N 
ATOM      6  C   LIG    1       -3.231  -1.427   0.010  0.00  0.00    +0.470 A 
ATOM      7  C   LIG    1        0.111  -2.748  -0.013  0.00  0.00    +0.590 A 
ATOM      8  N   LIG    1        1.236  -2.003  -0.015  0.00  0.00    -0.560 N 
ATOM      9  C   LIG    1        2.541  -2.668  -0.025  0.00  0.00    +0.340 C 
ATOM     10  O   LIG    1        0.176  -3.964  -0.021  0.00  0.00    -0.500 OA
ATOM     11  N   LIG    1       -2.477  -0.358   0.012  0.00  0.00    -0.500 NA
ATOM     12  C   LIG    1        1.178  -0.660  -0.013  0.00  0.00    +0.710 A 
ATOM     13  O   LIG    1        2.213  -0.022  -0.014  0.00  0.00    -0.550 OA
ENDROOT
BRANCH   5  14
ATOM     14  C   LIG    1       -2.918  -3.920  -0.005  0.00  0.00    +0.220 C 
BRANCH  14  15
ATOM     15  C   LIG    1       -2.952  -4.442   1.409  0.00  0.00    +0.490 C 
ATOM     16  O   LIG    1       -3.311  -5.587   1.627  0.00  0.00    -0.680 OA
ATOM     17  O   LIG    1       -2.622  -3.721   2.334  0.00  0.00    -0.670 OA
ENDBRANCH  14  15
ENDBRANCH   5  14
TORSDOF 2
ENDMDL
MODEL      189
REMARK  Name = ZINC000003872193
REMARK                            x       y       z     vdW  Elec       q    Type
REMARK                         _______ _______ _______ _____ _____    ______ ____
ROOT
ATOM      1  C   LIG    1        1.435   1.601   2.510  0.00  0.00    +0.040 C 
ENDROOT
BRANCH   1   2
ATOM      2  C   LIG    1        2.163   1.101   3.731  0.00  0.00    +0.500 C 
ATOM      3  N   LIG    1        3.418   1.524   3.987  0.00  0.00    -0.700 N 
ATOM      4  H   LIG    1        3.851   2.149   3.385  0.00  0.00    +0.400 HD
ATOM      5  O   LIG    1        1.621   0.320   4.484  0.00  0.00    -0.520 OA
BRANCH   3   6
ATOM      6  C   LIG    1        4.126   1.038   5.174  0.00  0.00    -0.210 C 
BRANCH   6   7
ATOM      7  S   LIG    1        5.160  -0.382   4.722  0.00  0.00    +2.630 S 
ATOM      8  O   LIG    1        6.195   0.065   3.803  0.00  0.00    -1.060 OA
ATOM      9  O   LIG    1        4.324  -1.387   4.084  0.00  0.00    -1.050 OA
ATOM     10  O   LIG    1        5.763  -0.926   5.929  0.00  0.00    -1.060 OA
ENDBRANCH   6   7
ENDBRANCH   3   6
ENDBRANCH   1   2
BRANCH   1  11
ATOM     11  C   LIG    1        0.041   0.972   2.456  0.00  0.00    +0.100 C 
BRANCH  11  12
ATOM     12  CA  LIG    1       -0.699   1.479   1.216  0.00  0.00    +0.080 C 
BRANCH  12  13
ATOM     13  N   LIG    1       -0.012   1.005   0.008  0.00  0.00    -0.620 N 
ATOM     14  H1  LIG    1       -0.500   1.339  -0.810  0.00  0.00    +0.430 HD
ATOM     15  H2  LIG    1        0.935   1.354   0.000  0.00  0.00    +0.410 HD
ATOM     16  H3  LIG    1        0.002  -0.004   0.002  0.00  0.00    +0.440 HD
ENDBRANCH  12  13
BRANCH  12  17
ATOM     17  C   LIG    1       -2.113   0.957   1.227  0.00  0.00    +0.490 C 
ATOM     18  OXT LIG    1       -2.996   1.601   1.767  0.00  0.00    -0.640 OA
ATOM     19  O   LIG    1       -2.373  -0.109   0.696  0.00  0.00    -0.670 OA
ENDBRANCH  12  17
ENDBRANCH  11  12
ENDBRANCH   1  11
TORSDOF 7
ENDMDL
MODEL      190
REMARK  Name = ZINC000000356434
REMARK                            x       y       z     vdW  Elec       q    Type
REMARK                         _______ _______ _______ _____ _____    ______ ____
ROOT
ATOM      1  C   LIG    1       -0.018   1.461   0.010  0.00  0.00    +0.330 C 
ATOM      2  N   LIG    1        0.002  -0.004   0.002  0.00  0.00    -0.640 N 
ATOM      3  C   LIG    1        0.008  -0.772  -1.095  0.00  0.00    +0.710 C 
ATOM      4  N   LIG    1        0.027  -2.086  -0.838  0.00  0.00    -0.610 N 
ATOM      5  C   LIG    1        0.036  -2.298   0.617  0.00  0.00    +0.460 C 
ATOM      6  N   LIG    1       -1.247  -2.876   1.040  0.00  0.00    -0.600 N 
ATOM      7  C   LIG    1       -1.925  -1.933   1.748  0.00  0.00    +0.710 C 
ATOM      8  O   LIG    1       -3.027  -2.132   2.221  0.00  0.00    -0.580 OA
ATOM      9  N   LIG    1       -1.271  -0.772   1.883  0.00  0.00    -0.740 N 
ATOM     10  H   LIG    1       -1.602   0.005   2.360  0.00  0.00    +0.420 HD
ATOM     11  C   LIG    1        0.037  -3.147  -1.848  0.00  0.00    +0.320 C 
ATOM     12  O   LIG    1       -0.003  -0.318  -2.222  0.00  0.00    -0.580 OA
ATOM     13  C   LIG    1        0.025  -0.860   1.196  0.00  0.00    +0.460 C 
ENDROOT
BRANCH   6  14
ATOM     14  C   LIG    1       -1.734  -4.226   0.746  0.00  0.00    +0.240 C 
BRANCH  14  15
ATOM     15  C   LIG    1       -2.494  -4.214  -0.555  0.00  0.00    +0.480 C 
ATOM     16  O   LIG    1       -2.985  -5.245  -0.984  0.00  0.00    -0.700 OA
ATOM     17  O   LIG    1       -2.618  -3.174  -1.179  0.00  0.00    -0.660 OA
ENDBRANCH  14  15
ENDBRANCH   6  14
TORSDOF 2
ENDMDL
MODEL      191
REMARK  Name = ZINC000000356435
REMARK                            x       y       z     vdW  Elec       q    Type
REMARK                         _______ _______ _______ _____ _____    ______ ____
ROOT
ATOM      1  C   LIG    1       -0.018   1.461   0.010  0.00  0.00    +0.320 C 
ATOM      2  N   LIG    1        0.002  -0.004   0.002  0.00  0.00    -0.640 N 
ATOM      3  C   LIG    1        0.008  -0.772  -1.095  0.00  0.00    +0.700 C 
ATOM      4  N   LIG    1        0.028  -2.086  -0.838  0.00  0.00    -0.630 N 
ATOM      5  C   LIG    1        0.037  -2.298   0.617  0.00  0.00    +0.470 C 
ATOM      6  N   LIG    1        1.339  -2.840   1.029  0.00  0.00    -0.600 N 
ATOM      7  C   LIG    1        2.001  -1.894   1.728  0.00  0.00    +0.710 C 
ATOM      8  O   LIG    1        3.111  -2.071   2.192  0.00  0.00    -0.580 OA
ATOM      9  N   LIG    1        1.326  -0.746   1.870  0.00  0.00    -0.740 N 
ATOM     10  H   LIG    1        1.646   0.038   2.343  0.00  0.00    +0.430 HD
ATOM     11  C   LIG    1        0.038  -3.147  -1.848  0.00  0.00    +0.330 C 
ATOM     12  O   LIG    1       -0.003  -0.318  -2.222  0.00  0.00    -0.590 OA
ATOM     13  C   LIG    1        0.025  -0.860   1.196  0.00  0.00    +0.470 C 
ENDROOT
BRANCH   6  14
ATOM     14  C   LIG    1        1.847  -4.181   0.728  0.00  0.00    +0.240 C 
BRANCH  14  15
ATOM     15  C   LIG    1        1.445  -5.128   1.830  0.00  0.00    +0.480 C 
ATOM     16  O   LIG    1        1.770  -6.302   1.773  0.00  0.00    -0.700 OA
ATOM     17  O   LIG    1        0.796  -4.721   2.778  0.00  0.00    -0.680 OA
ENDBRANCH  14  15
ENDBRANCH   6  14
TORSDOF 2
ENDMDL
MODEL      192
REMARK  Name = ZINC000000356433
REMARK                            x       y       z     vdW  Elec       q    Type
REMARK                         _______ _______ _______ _____ _____    ______ ____
ROOT
ATOM      1  C   LIG    1       -0.018   1.461   0.010  0.00  0.00    +0.330 C 
ATOM      2  N   LIG    1        0.002  -0.004   0.002  0.00  0.00    -0.620 N 
ATOM      3  C   LIG    1        0.009  -0.843  -1.088  0.00  0.00    +0.720 C 
ATOM      4  N   LIG    1       -0.330  -2.123  -0.750  0.00  0.00    -0.630 N 
ATOM      5  C   LIG    1       -0.903  -2.043   0.587  0.00  0.00    +0.430 C 
ATOM      6  N   LIG    1       -0.571  -3.017   1.617  0.00  0.00    -0.600 N 
ATOM      7  C   LIG    1       -0.362  -2.260   2.764  0.00  0.00    +0.720 C 
ATOM      8  O   LIG    1       -0.340  -2.729   3.886  0.00  0.00    -0.530 OA
ATOM      9  N   LIG    1       -0.183  -0.929   2.487  0.00  0.00    -0.720 N 
ATOM     10  H   LIG    1       -0.198  -0.188   3.113  0.00  0.00    +0.420 HD
ATOM     11  C   LIG    1       -0.153  -3.328  -1.565  0.00  0.00    +0.330 C 
ATOM     12  O   LIG    1        0.285  -0.488  -2.218  0.00  0.00    -0.550 OA
ATOM     13  C   LIG    1        0.024  -0.872   1.104  0.00  0.00    +0.360 C 
ENDROOT
BRANCH   6  14
ATOM     14  C   LIG    1       -0.475  -4.473   1.490  0.00  0.00    +0.240 C 
BRANCH  14  15
ATOM     15  C   LIG    1       -1.819  -5.092   1.776  0.00  0.00    +0.480 C 
ATOM     16  O   LIG    1       -1.956  -6.303   1.724  0.00  0.00    -0.700 OA
ATOM     17  O   LIG    1       -2.769  -4.382   2.060  0.00  0.00    -0.680 OA
ENDBRANCH  14  15
ENDBRANCH   6  14
TORSDOF 2
ENDMDL
MODEL      193
REMARK  Name = ZINC000000356436
REMARK                            x       y       z     vdW  Elec       q    Type
REMARK                         _______ _______ _______ _____ _____    ______ ____
ROOT
ATOM      1  C   LIG    1       -0.018   1.461   0.010  0.00  0.00    +0.330 C 
ATOM      2  N   LIG    1        0.002  -0.004   0.002  0.00  0.00    -0.620 N 
ATOM      3  C   LIG    1        0.009  -0.825  -1.090  0.00  0.00    +0.730 C 
ATOM      4  N   LIG    1        0.360  -2.114  -0.763  0.00  0.00    -0.620 N 
ATOM      5  C   LIG    1        0.956  -1.989   0.504  0.00  0.00    +0.390 C 
ATOM      6  N   LIG    1        1.335  -2.725   1.635  0.00  0.00    -0.720 N 
ATOM      7  H   LIG    1        1.471  -3.683   1.700  0.00  0.00    +0.420 HD
ATOM      8  C   LIG    1        1.473  -1.789   2.628  0.00  0.00    +0.730 C 
ATOM      9  N   LIG    1        0.921  -0.588   2.283  0.00  0.00    -0.600 N 
ATOM     10  O   LIG    1        2.022  -2.003   3.692  0.00  0.00    -0.550 OA
ATOM     11  C   LIG    1        0.161  -3.333  -1.551  0.00  0.00    +0.320 C 
ATOM     12  O   LIG    1       -0.263  -0.460  -2.218  0.00  0.00    -0.550 OA
ATOM     13  C   LIG    1        0.025  -0.896   1.163  0.00  0.00    +0.420 C 
ENDROOT
BRANCH   9  14
ATOM     14  C   LIG    1        1.161   0.713   2.913  0.00  0.00    +0.240 C 
BRANCH  14  15
ATOM     15  C   LIG    1        2.320   1.394   2.232  0.00  0.00    +0.480 C 
ATOM     16  O   LIG    1        2.686   2.495   2.607  0.00  0.00    -0.700 OA
ATOM     17  O   LIG    1        2.892   0.845   1.306  0.00  0.00    -0.680 OA
ENDBRANCH  14  15
ENDBRANCH   9  14
TORSDOF 2
ENDMDL
MODEL      194
REMARK  Name = ZINC000001232291
REMARK                            x       y       z     vdW  Elec       q    Type
REMARK                         _______ _______ _______ _____ _____    ______ ____
ROOT
ATOM      1  C   LIG    1        1.533  -3.855  -2.637  0.00  0.00    +0.270 A 
ATOM      2  N   LIG    1        1.078  -4.775  -1.826  0.00  0.00    -0.320 NA
ATOM      3  N   LIG    1        1.266  -6.128  -2.134  0.00  0.00    -0.570 N 
ATOM      4  H   LIG    1        0.927  -6.807  -1.529  0.00  0.00    +0.410 HD
ATOM      5  C   LIG    1        1.909  -6.500  -3.255  0.00  0.00    +0.640 A 
ATOM      6  N   LIG    1        2.392  -5.585  -4.116  0.00  0.00    -0.680 NA
ATOM      7  O   LIG    1        2.056  -7.683  -3.494  0.00  0.00    -0.610 OA
ATOM      8  C   LIG    1        2.231  -4.270  -3.865  0.00  0.00    +0.500 A 
ATOM      9  O   LIG    1        2.664  -3.437  -4.639  0.00  0.00    -0.570 OA
ENDROOT
BRANCH   1  10
ATOM     10  N   LIG    1        1.354  -2.503  -2.345  0.00  0.00    -0.700 N 
ATOM     11  H   LIG    1        1.691  -1.827  -2.954  0.00  0.00    +0.420 HD
BRANCH  10  12
ATOM     12  C   LIG    1        0.657  -2.104  -1.120  0.00  0.00    +0.340 C 
BRANCH  12  13
ATOM     13  C   LIG    1        0.598  -0.600  -1.043  0.00  0.00    +0.460 C 
ATOM     14  O   LIG    1        1.088   0.070  -1.921  0.00  0.00    -0.500 OA
BRANCH  13  16
ATOM     15  C   LIG    1       -0.018   1.448   0.010  0.00  0.00    +0.260 C 
ATOM     16  O   LIG    1        0.002  -0.004   0.002  0.00  0.00    -0.360 OA
ENDBRANCH  13  16
ENDBRANCH  12  13
ENDBRANCH  10  12
ENDBRANCH   1  10
TORSDOF 4
ENDMDL
MODEL      195
REMARK  Name = ZINC000000969509
REMARK                            x       y       z     vdW  Elec       q    Type
REMARK                         _______ _______ _______ _____ _____    ______ ____
ROOT
ATOM      1  CA  LIG    1       -4.821   0.436   0.027  0.00  0.00    +0.160 A 
ATOM      2  C   LIG    1       -4.561  -0.897   0.024  0.00  0.00    -0.050 A 
ATOM      3  C   LIG    1       -5.696  -1.829   0.025  0.00  0.00    +0.550 A 
ATOM      4  N   LIG    1       -6.949  -1.329   0.027  0.00  0.00    -0.660 N 
ATOM      5  H   LIG    1       -7.708  -1.932   0.027  0.00  0.00    +0.430 HD
ATOM      6  C   LIG    1       -7.151   0.000   0.030  0.00  0.00    +0.710 A 
ATOM      7  O   LIG    1       -8.290   0.425   0.033  0.00  0.00    -0.540 OA
ATOM      8  O   LIG    1       -5.509  -3.031   0.022  0.00  0.00    -0.500 OA
ATOM      9  N   LIG    1       -6.128   0.871   0.036  0.00  0.00    -0.620 N 
ATOM     10  H   LIG    1       -6.314   1.823   0.038  0.00  0.00    +0.440 HD
ENDROOT
BRANCH   1  13
ATOM     11  N   LIG    1       -2.430   0.984   0.019  0.00  0.00    -0.670 N 
ATOM     12  H   LIG    1       -2.240   0.033   0.013  0.00  0.00    +0.410 HD
ATOM     13  C   LIG    1       -3.707   1.416   0.027  0.00  0.00    +0.540 C 
ATOM     14  O   LIG    1       -3.945   2.607   0.035  0.00  0.00    -0.540 OA
BRANCH  11  15
ATOM     15  CA  LIG    1       -1.330   1.951   0.019  0.00  0.00    +0.210 C 
BRANCH  15  17
ATOM     16  O   LIG    1        0.002  -0.004   0.002  0.00  0.00    -0.690 OA
ATOM     17  C   LIG    1       -0.015   1.215   0.009  0.00  0.00    +0.490 C 
ATOM     18  OXT LIG    1        1.033   1.839   0.002  0.00  0.00    -0.680 OA
ENDBRANCH  15  17
ENDBRANCH  11  15
ENDBRANCH   1  13
TORSDOF 3
ENDMDL
MODEL      196
REMARK  Name = ZINC000521399619
REMARK                            x       y       z     vdW  Elec       q    Type
REMARK                         _______ _______ _______ _____ _____    ______ ____
ROOT
ATOM      1  C   LIG    1       -1.256  -0.757   0.121  0.00  0.00    -0.360 A 
ATOM      2  C   LIG    1       -1.252  -2.134   0.225  0.00  0.00    +0.480 A 
ATOM      3  N   LIG    1       -2.434  -2.796   0.333  0.00  0.00    -0.510 N 
ATOM      4  C   LIG    1       -3.606  -2.142   0.343  0.00  0.00    +0.690 A 
ATOM      5  N   LIG    1       -3.678  -0.803   0.246  0.00  0.00    -0.650 N 
ATOM      6  H   LIG    1       -4.543  -0.365   0.257  0.00  0.00    +0.430 HD
ATOM      7  O   LIG    1       -4.635  -2.780   0.443  0.00  0.00    -0.520 OA
ATOM      8  C   LIG    1       -2.554  -0.064   0.140  0.00  0.00    +0.570 A 
ATOM      9  O   LIG    1       -2.613   1.149   0.052  0.00  0.00    -0.520 OA
ENDROOT
BRANCH   1  13
ATOM     10  N   LIG    1       -0.015   1.343   0.016  0.00  0.00    -0.850 N 
ATOM     11  H   LIG    1       -0.861   1.818   0.026  0.00  0.00    +0.410 HD
ATOM     12  H   LIG    1        0.819   1.839   0.013  0.00  0.00    +0.400 HD
ATOM     13  C   LIG    1        0.002  -0.004   0.002  0.00  0.00    +0.600 C 
ATOM     14  O   LIG    1        1.058  -0.598  -0.109  0.00  0.00    -0.560 OA
ENDBRANCH   1  13
BRANCH   3  15
ATOM     15  C   LIG    1       -2.429  -4.257   0.443  0.00  0.00    +0.340 C 
BRANCH  15  16
ATOM     16  C   LIG    1       -2.355  -4.657   1.918  0.00  0.00    -0.060 C 
BRANCH  16  17
ATOM     17  C   LIG    1       -2.349  -6.160   2.030  0.00  0.00    +0.500 C 
ATOM     18  O   LIG    1       -2.295  -6.689   3.128  0.00  0.00    -0.690 OA
ATOM     19  O   LIG    1       -2.400  -6.847   1.024  0.00  0.00    -0.690 OA
ENDBRANCH  16  17
ENDBRANCH  15  16
ENDBRANCH   3  15
TORSDOF 4
ENDMDL
MODEL      197
REMARK  Name = ZINC000001669440
REMARK                            x       y       z     vdW  Elec       q    Type
REMARK                         _______ _______ _______ _____ _____    ______ ____
ROOT
ATOM      1  C   ALA A  1        0.731  -0.503   1.223  0.00  0.00    +0.520 C 
ATOM      2  N   GLY A  2        2.019  -0.161   1.426  0.00  0.00    -0.720 N 
ATOM      3  H   GLY A  2        2.476   0.406   0.786  0.00  0.00    +0.410 HD
ATOM      4  O   ALA A  1        0.159  -1.213   2.023  0.00  0.00    -0.530 OA
ENDROOT
BRANCH   1   6
ATOM      5  CB  ALA A  1       -0.019   1.526   0.010  0.00  0.00    +0.010 C 
ATOM      6  CA  ALA A  1        0.002  -0.004   0.002  0.00  0.00    +0.180 C 
BRANCH   6   7
ATOM      7  N   ALA A  1       -1.376  -0.512   0.012  0.00  0.00    -0.830 NA
ATOM      8  H1  ALA A  1       -1.886  -0.191  -0.797  0.00  0.00    +0.350 HD
ATOM      9  H2  ALA A  1       -1.850  -0.254   0.865  0.00  0.00    +0.350 HD
ENDBRANCH   6   7
ENDBRANCH   1   6
BRANCH   2  10
ATOM     10  CA  GLY A  2        2.727  -0.647   2.613  0.00  0.00    +0.300 C 
BRANCH  10  11
ATOM     11  C   GLY A  2        4.141  -0.125   2.602  0.00  0.00    +0.500 C 
ATOM     12  N   GLY A  3        4.985  -0.445   3.603  0.00  0.00    -0.690 N 
ATOM     13  H   GLY A  3        4.682  -1.010   4.330  0.00  0.00    +0.410 HD
ATOM     14  O   GLY A  2        4.520   0.583   1.692  0.00  0.00    -0.560 OA
BRANCH  12  15
ATOM     15  CA  GLY A  3        6.359   0.062   3.593  0.00  0.00    +0.190 C 
BRANCH  15  16
ATOM     16  C   GLY A  3        7.088  -0.437   4.814  0.00  0.00    +0.490 C 
ATOM     17  OXT GLY A  3        8.253  -0.128   4.997  0.00  0.00    -0.690 OA
ATOM     18  O   GLY A  3        6.513  -1.150   5.618  0.00  0.00    -0.690 OA
ENDBRANCH  15  16
ENDBRANCH  12  15
ENDBRANCH  10  11
ENDBRANCH   2  10
TORSDOF 6
ENDMDL
MODEL      198
REMARK  Name = ZINC000005861416
REMARK                            x       y       z     vdW  Elec       q    Type
REMARK                         _______ _______ _______ _____ _____    ______ ____
ROOT
ATOM      1  C   LIG    1       -1.432  -1.925   0.005  0.00  0.00    +0.280 C 
ATOM      2  O   LIG    1       -0.907  -2.431  -1.224  0.00  0.00    -0.360 OA
ATOM      3  C   LIG    1       -0.929  -3.856  -1.325  0.00  0.00    +0.060 C 
ATOM      4  C   LIG    1       -2.376  -4.350  -1.241  0.00  0.00    +0.140 C 
ATOM      5  C   LIG    1       -2.997  -3.868   0.074  0.00  0.00    +0.200 C 
ATOM      6  C   LIG    1       -2.899  -2.341   0.142  0.00  0.00    +0.180 C 
ENDROOT
BRANCH   3   7
ATOM      7  C   LIG    1       -0.330  -4.276  -2.642  0.00  0.00    +0.510 C 
ATOM      8  O   LIG    1       -0.253  -5.459  -2.927  0.00  0.00    -0.680 OA
ATOM      9  O   LIG    1        0.079  -3.433  -3.422  0.00  0.00    -0.660 OA
ENDBRANCH   3   7
BRANCH   5  10
ATOM     10  O   LIG    1       -4.369  -4.263   0.128  0.00  0.00    -0.550 OA
ATOM     11  H   LIG    1       -4.505  -5.220   0.082  0.00  0.00    +0.390 HD
ENDBRANCH   5  10
BRANCH   4  12
ATOM     12  O   LIG    1       -2.397  -5.778  -1.285  0.00  0.00    -0.570 OA
ATOM     13  H   LIG    1       -2.014  -6.152  -2.090  0.00  0.00    +0.400 HD
ENDBRANCH   4  12
BRANCH   6  14
ATOM     14  O   LIG    1       -3.411  -1.885   1.396  0.00  0.00    -0.550 OA
ATOM     15  H   LIG    1       -3.380  -0.925   1.509  0.00  0.00    +0.380 HD
ENDBRANCH   6  14
BRANCH   1  16
ATOM     16  O   LIG    1       -1.339  -0.499   0.012  0.00  0.00    -0.370 OA
BRANCH  16  18
ATOM     17  C   LIG    1       -0.019   1.526   0.010  0.00  0.00    +0.040 C 
ATOM     18  C   LIG    1        0.002  -0.004   0.002  0.00  0.00    +0.180 C 
ENDBRANCH  16  18
ENDBRANCH   1  16
TORSDOF 6
ENDMDL
MODEL      199
REMARK  Name = ZINC000001692470
REMARK                            x       y       z     vdW  Elec       q    Type
REMARK                         _______ _______ _______ _____ _____    ______ ____
ROOT
ATOM      1  C   LIG    1       -0.018   1.461   0.010  0.00  0.00    +0.340 C 
ATOM      2  N   LIG    1        0.002  -0.004   0.002  0.00  0.00    -0.510 N 
ATOM      3  C   LIG    1       -1.185  -0.700   0.004  0.00  0.00    +0.290 A 
ATOM      4  C   LIG    1       -1.156  -2.089  -0.004  0.00  0.00    -0.120 A 
ATOM      5  C   LIG    1        0.147  -2.756  -0.014  0.00  0.00    +0.600 A 
ATOM      6  N   LIG    1        1.262  -1.993  -0.015  0.00  0.00    -0.560 N 
ATOM      7  C   LIG    1        2.578  -2.637  -0.025  0.00  0.00    +0.350 C 
ATOM      8  O   LIG    1        0.225  -3.971  -0.021  0.00  0.00    -0.500 OA
ATOM      9  N   LIG    1       -2.440  -2.521   0.001  0.00  0.00    -0.420 NA
ATOM     10  C   LIG    1       -3.235  -1.491   0.010  0.00  0.00    +0.430 A 
ATOM     11  N   LIG    1       -2.497  -0.344   0.013  0.00  0.00    -0.410 N 
ATOM     12  C   LIG    1        1.180  -0.652  -0.013  0.00  0.00    +0.720 A 
ATOM     13  O   LIG    1        2.208  -0.002  -0.014  0.00  0.00    -0.550 OA
ENDROOT
BRANCH  11  14
ATOM     14  C   LIG    1       -3.022   1.024   0.023  0.00  0.00    +0.210 C 
BRANCH  14  15
ATOM     15  C   LIG    1       -3.094   1.545  -1.389  0.00  0.00    +0.480 C 
ATOM     16  O   LIG    1       -3.506   2.672  -1.602  0.00  0.00    -0.680 OA
ATOM     17  O   LIG    1       -2.739   0.840  -2.318  0.00  0.00    -0.670 OA
ENDBRANCH  14  15
ENDBRANCH  11  14
TORSDOF 2
ENDMDL
MODEL      200
REMARK  Name = ZINC000001718548
REMARK                            x       y       z     vdW  Elec       q    Type
REMARK                         _______ _______ _______ _____ _____    ______ ____
ROOT
ATOM      1  C   UNK    1       -0.720   3.008   1.225  0.00  0.00    +0.260 C 
ENDROOT
BRANCH   1   2
ATOM      2  C   UNK    1       -0.699   1.479   1.216  0.00  0.00    +0.100 C 
BRANCH   2   3
ATOM      3  N   UNK    1       -0.012   1.005   0.008  0.00  0.00    -0.610 N 
ATOM      4  H   UNK    1       -0.500   1.339  -0.810  0.00  0.00    +0.430 HD
ATOM      5  H   UNK    1        0.935   1.354   0.000  0.00  0.00    +0.420 HD
ATOM      6  H   UNK    1        0.002  -0.004   0.002  0.00  0.00    +0.430 HD
ENDBRANCH   2   3
BRANCH   2   7
ATOM      7  C   UNK    1       -2.113   0.957   1.227  0.00  0.00    +0.490 C 
ATOM      8  O   UNK    1       -2.859   1.236   2.150  0.00  0.00    -0.630 OA
ATOM      9  O   UNK    1       -2.511   0.256   0.312  0.00  0.00    -0.670 OA
ENDBRANCH   2   7
ENDBRANCH   1   2
BRANCH   1  10
ATOM     10  O   UNK    1        0.638   3.510   1.334  0.00  0.00    -0.380 OA
BRANCH  10  11
ATOM     11  C   UNK    1        0.795   4.843   1.355  0.00  0.00    +0.460 C 
ATOM     12  O   UNK    1       -0.170   5.567   1.284  0.00  0.00    -0.500 OA
BRANCH  11  13
ATOM     13  C   UNK    1        2.176   5.437   1.466  0.00  0.00    +0.140 C 
BRANCH  13  14
ATOM     14  C   UNK    1        2.075   6.964   1.468  0.00  0.00    -0.030 C 
BRANCH  14  15
ATOM     15  C   UNK    1        3.456   7.558   1.580  0.00  0.00    +0.490 C 
ATOM     16  O   UNK    1        3.599   8.769   1.599  0.00  0.00    -0.700 OA
ATOM     17  O   UNK    1        4.430   6.828   1.651  0.00  0.00    -0.700 OA
ENDBRANCH  14  15
ENDBRANCH  13  14
ENDBRANCH  11  13
ENDBRANCH  10  11
ENDBRANCH   1  10
TORSDOF 8
ENDMDL
MODEL      201
REMARK  Name = ZINC000078496415
REMARK                            x       y       z     vdW  Elec       q    Type
REMARK                         _______ _______ _______ _____ _____    ______ ____
ROOT
ATOM      1  C   LIG    1        2.606  -0.362  -0.019  0.00  0.00    +0.190 A 
ATOM      2  N   LIG    1        3.696  -1.105  -0.030  0.00  0.00    -0.250 NA
ATOM      3  N   LIG    1        4.712  -0.312  -0.031  0.00  0.00    -0.070 N 
ATOM      4  N   LIG    1        4.301   0.908  -0.022  0.00  0.00    -0.040 NA
ATOM      5  N   LIG    1        3.012   0.915  -0.021  0.00  0.00    -0.280 NA
ENDROOT
BRANCH   1  10
ATOM      6  C   LIG    1        0.002  -0.004   0.002  0.00  0.00    +0.360 A 
ATOM      7  N   LIG    1       -1.045  -0.782   0.002  0.00  0.00    -0.360 NA
ATOM      8  O   LIG    1       -0.591  -2.124  -0.008  0.00  0.00    +0.030 OA
ATOM      9  N   LIG    1        0.826  -2.098  -0.014  0.00  0.00    -0.230 NA
ATOM     10  C   LIG    1        1.203  -0.847  -0.014  0.00  0.00    +0.170 A 
BRANCH   6  11
ATOM     11  N   LIG    1       -0.017   1.385   0.010  0.00  0.00    -0.800 N 
ATOM     12  H   LIG    1       -0.863   1.859   0.016  0.00  0.00    +0.420 HD
ATOM     13  H   LIG    1        0.817   1.881   0.004  0.00  0.00    +0.430 HD
ENDBRANCH   6  11
ENDBRANCH   1  10
BRANCH   3  14
ATOM     14  C   LIG    1        6.115  -0.734  -0.042  0.00  0.00    +0.280 C 
BRANCH  14  15
ATOM     15  C   LIG    1        6.588  -0.871  -1.467  0.00  0.00    +0.500 C 
ATOM     16  O   LIG    1        7.734  -1.214  -1.698  0.00  0.00    -0.670 OA
ATOM     17  O   LIG    1        5.823  -0.637  -2.388  0.00  0.00    -0.670 OA
ENDBRANCH  14  15
ENDBRANCH   3  14
TORSDOF 4
ENDMDL
MODEL      202
REMARK  Name = ZINC000001731776
REMARK                            x       y       z     vdW  Elec       q    Type
REMARK                         _______ _______ _______ _____ _____    ______ ____
ROOT
ATOM      1  CA  GLU A  1       -0.699   1.479   1.216  0.00  0.00    +0.170 C 
ENDROOT
BRANCH   1   2
ATOM      2  N   GLU A  1       -0.012   1.005   0.008  0.00  0.00    -0.620 N 
ATOM      3  H1  GLU A  1       -0.500   1.339  -0.810  0.00  0.00    +0.440 HD
ATOM      4  H2  GLU A  1        0.935   1.354   0.000  0.00  0.00    +0.430 HD
ATOM      5  H3  GLU A  1        0.002  -0.004   0.002  0.00  0.00    +0.440 HD
ENDBRANCH   1   2
BRANCH   1   6
ATOM      6  C   GLU A  1        0.030   0.979   2.437  0.00  0.00    +0.490 C 
ATOM      7  N   GLY A  2       -0.150   1.589   3.626  0.00  0.00    -0.660 N 
ATOM      8  H   GLY A  2       -0.749   2.349   3.695  0.00  0.00    +0.420 HD
ATOM      9  O   GLU A  1        0.778   0.029   2.350  0.00  0.00    -0.560 OA
BRANCH   7  10
ATOM     10  CA  GLY A  2        0.558   1.103   4.812  0.00  0.00    +0.190 C 
BRANCH  10  11
ATOM     11  C   GLY A  2        0.185   1.951   6.002  0.00  0.00    +0.490 C 
ATOM     12  OXT GLY A  2        0.668   1.713   7.095  0.00  0.00    -0.680 OA
ATOM     13  O   GLY A  2       -0.600   2.874   5.870  0.00  0.00    -0.690 OA
ENDBRANCH  10  11
ENDBRANCH   7  10
ENDBRANCH   1   6
BRANCH   1  14
ATOM     14  CB  GLU A  1       -2.135   0.949   1.227  0.00  0.00    +0.100 C 
BRANCH  14  15
ATOM     15  CG  GLU A  1       -2.911   1.555   0.056  0.00  0.00    -0.070 C 
BRANCH  15  16
ATOM     16  CD  GLU A  1       -4.324   1.033   0.067  0.00  0.00    +0.490 C 
ATOM     17  OE2 GLU A  1       -5.114   1.395  -0.789  0.00  0.00    -0.690 OA
ATOM     18  OE1 GLU A  1       -4.678   0.250   0.931  0.00  0.00    -0.680 OA
ENDBRANCH  15  16
ENDBRANCH  14  15
ENDBRANCH   1  14
TORSDOF 7
ENDMDL
MODEL      203
REMARK  Name = ZINC000002149410
REMARK                            x       y       z     vdW  Elec       q    Type
REMARK                         _______ _______ _______ _____ _____    ______ ____
ROOT
ATOM      1  C   LIG    1       -2.280   1.478   1.546  0.00  0.00    +0.240 C 
ENDROOT
BRANCH   1   2
ATOM      2  O   LIG    1       -2.252   0.052   1.642  0.00  0.00    -0.530 OA
ATOM      3  H   LIG    1       -1.808  -0.280   2.433  0.00  0.00    +0.370 HD
ENDBRANCH   1   2
BRANCH   1   4
ATOM      4  C   LIG    1       -0.848   2.016   1.520  0.00  0.00    -0.500 C 
BRANCH   4   6
ATOM      5  O   LIG    1        0.002  -0.004   0.002  0.00  0.00    -1.050 OA
ATOM      6  S   LIG    1       -0.018   1.450   0.010  0.00  0.00    +2.640 S 
ATOM      7  O   LIG    1       -0.752   1.947  -1.143  0.00  0.00    -1.070 OA
ATOM      8  O   LIG    1        1.341   1.970  -0.000  0.00  0.00    -1.070 OA
ENDBRANCH   4   6
ENDBRANCH   1   4
BRANCH   1   9
ATOM      9  C   LIG    1       -3.020   2.055   2.755  0.00  0.00    +0.150 C 
BRANCH   9  10
ATOM     10  N   LIG    1       -4.395   1.539   2.780  0.00  0.00    -0.530 NA
ATOM     11  C   LIG    1       -5.015   1.627   1.450  0.00  0.00    +0.150 C 
ATOM     12  C   LIG    1       -6.422   1.025   1.508  0.00  0.00    +0.230 C 
ATOM     13  O   LIG    1       -7.185   1.705   2.508  0.00  0.00    -0.390 OA
ATOM     14  C   LIG    1       -6.610   1.639   3.816  0.00  0.00    +0.220 C 
ATOM     15  C   LIG    1       -5.206   2.247   3.781  0.00  0.00    +0.130 C 
ENDBRANCH   9  10
ENDBRANCH   1   9
TORSDOF 5
ENDMDL
MODEL      204
REMARK  Name = ZINC000002149411
REMARK                            x       y       z     vdW  Elec       q    Type
REMARK                         _______ _______ _______ _____ _____    ______ ____
ROOT
ATOM      1  C   LIG    1       -3.096   3.262   2.033  0.00  0.00    +0.200 C 
ENDROOT
BRANCH   1   2
ATOM      2  O   LIG    1       -3.816   4.223   2.808  0.00  0.00    -0.540 OA
ATOM      3  H   LIG    1       -3.401   4.435   3.655  0.00  0.00    +0.370 HD
ENDBRANCH   1   2
BRANCH   1   4
ATOM      4  C   LIG    1       -1.696   3.798   1.728  0.00  0.00    -0.500 C 
BRANCH   4   6
ATOM      5  O   LIG    1       -2.541   5.086  -0.448  0.00  0.00    -1.070 OA
ATOM      6  S   LIG    1       -1.832   5.348   0.795  0.00  0.00    +2.640 S 
ATOM      7  O   LIG    1       -2.566   6.314   1.596  0.00  0.00    -1.050 OA
ATOM      8  O   LIG    1       -0.494   5.844   0.513  0.00  0.00    -1.070 OA
ENDBRANCH   4   6
ENDBRANCH   1   4
BRANCH   1   9
ATOM      9  C   LIG    1       -2.981   1.955   2.820  0.00  0.00    +0.190 C 
BRANCH   9  10
ATOM     10  N   LIG    1       -4.320   1.383   3.018  0.00  0.00    -0.530 NA
ATOM     11  C   LIG    1       -5.084   1.384   1.762  0.00  0.00    +0.140 C 
ATOM     12  C   LIG    1       -6.447   0.728   2.000  0.00  0.00    +0.220 C 
ATOM     13  O   LIG    1       -7.128   1.421   3.049  0.00  0.00    -0.390 OA
ATOM     14  C   LIG    1       -6.412   1.439   4.287  0.00  0.00    +0.210 C 
ATOM     15  C   LIG    1       -5.049   2.103   4.073  0.00  0.00    +0.160 C 
ENDBRANCH   9  10
ENDBRANCH   1   9
TORSDOF 5
ENDMDL
MODEL      205
REMARK  Name = ZINC000002165165
REMARK                            x       y       z     vdW  Elec       q    Type
REMARK                         _______ _______ _______ _____ _____    ______ ____
ROOT
ATOM      1  N   VAL A  3       -0.008  -0.140   2.444  0.00  0.00    -0.690 N 
ATOM      2  H   VAL A  3       -0.606   0.624   2.426  0.00  0.00    +0.390 HD
ATOM      3  C   GLY A  2        0.131  -0.861   3.574  0.00  0.00    +0.500 C 
ATOM      4  O   GLY A  2        0.878  -1.816   3.596  0.00  0.00    -0.550 OA
ENDROOT
BRANCH   1   5
ATOM      5  CA  VAL A  3        0.742  -0.511   1.242  0.00  0.00    +0.150 C 
BRANCH   5   7
ATOM      6  CG1 VAL A  3       -0.019   1.526   0.010  0.00  0.00    +0.020 C 
ATOM      7  CB  VAL A  3        0.002  -0.004   0.002  0.00  0.00    -0.030 C 
ATOM      8  CG2 VAL A  3        0.718  -0.497  -1.257  0.00  0.00    +0.030 C 
ENDBRANCH   5   7
BRANCH   5   9
ATOM      9  C   VAL A  3        2.115   0.108   1.295  0.00  0.00    +0.500 C 
ATOM     10  OXT VAL A  3        3.056  -0.448   0.756  0.00  0.00    -0.690 OA
ATOM     11  O   VAL A  3        2.284   1.166   1.877  0.00  0.00    -0.690 OA
ENDBRANCH   5   9
ENDBRANCH   1   5
BRANCH   3  12
ATOM     12  CA  GLY A  2       -0.641  -0.479   4.811  0.00  0.00    +0.290 C 
BRANCH  12  13
ATOM     13  N   GLY A  2       -0.317  -1.410   5.895  0.00  0.00    -0.710 N 
ATOM     14  H   GLY A  2        0.312  -2.133   5.742  0.00  0.00    +0.410 HD
ATOM     15  C   GLY A  1       -0.894  -1.263   7.104  0.00  0.00    +0.510 C 
ATOM     16  O   GLY A  1       -1.680  -0.359   7.295  0.00  0.00    -0.530 OA
BRANCH  15  17
ATOM     17  CA  GLY A  1       -0.561  -2.220   8.220  0.00  0.00    +0.210 C 
BRANCH  17  18
ATOM     18  N   GLY A  1       -1.313  -1.849   9.425  0.00  0.00    -0.830 NA
ATOM     19  H1  GLY A  1       -1.107  -2.476  10.188  0.00  0.00    +0.350 HD
ATOM     20  H2  GLY A  1       -2.304  -1.820   9.238  0.00  0.00    +0.350 HD
ENDBRANCH  17  18
ENDBRANCH  15  17
ENDBRANCH  12  13
ENDBRANCH   3  12
TORSDOF 7
ENDMDL
MODEL      206
REMARK  Name = ZINC000002242980
REMARK                            x       y       z     vdW  Elec       q    Type
REMARK                         _______ _______ _______ _____ _____    ______ ____
ROOT
ATOM      1  C   ALA A  1        0.731  -0.503   1.223  0.00  0.00    +0.490 C 
ATOM      2  N   GLU A  2        2.019  -0.161   1.426  0.00  0.00    -0.650 N 
ATOM      3  H   GLU A  2        2.476   0.406   0.786  0.00  0.00    +0.400 HD
ATOM      4  O   ALA A  1        0.159  -1.213   2.023  0.00  0.00    -0.550 OA
ENDROOT
BRANCH   1   6
ATOM      5  CB  ALA A  1       -0.019   1.526   0.010  0.00  0.00    +0.110 C 
ATOM      6  CA  ALA A  1        0.002  -0.004   0.002  0.00  0.00    +0.170 C 
BRANCH   6   7
ATOM      7  N   ALA A  1       -1.376  -0.512   0.012  0.00  0.00    -0.620 N 
ATOM      8  H1  ALA A  1       -1.848  -0.187   0.843  0.00  0.00    +0.440 HD
ATOM      9  H2  ALA A  1       -1.362  -1.521   0.007  0.00  0.00    +0.440 HD
ATOM     10  H3  ALA A  1       -1.864  -0.178  -0.805  0.00  0.00    +0.430 HD
ENDBRANCH   6   7
ENDBRANCH   1   6
BRANCH   2  11
ATOM     11  CA  GLU A  2        2.727  -0.647   2.613  0.00  0.00    +0.160 C 
BRANCH  11  12
ATOM     12  C   GLU A  2        2.451   0.273   3.774  0.00  0.00    +0.500 C 
ATOM     13  OXT GLU A  2        2.949   0.046   4.863  0.00  0.00    -0.680 OA
ATOM     14  O   GLU A  2        1.729   1.244   3.624  0.00  0.00    -0.700 OA
ENDBRANCH  11  12
BRANCH  11  15
ATOM     15  CB  GLU A  2        4.231  -0.676   2.332  0.00  0.00    +0.060 C 
BRANCH  15  16
ATOM     16  CG  GLU A  2        4.526  -1.703   1.237  0.00  0.00    -0.080 C 
BRANCH  16  17
ATOM     17  CD  GLU A  2        6.007  -1.732   0.961  0.00  0.00    +0.490 C 
ATOM     18  OE2 GLU A  2        6.455  -2.488   0.116  0.00  0.00    -0.710 OA
ATOM     19  OE1 GLU A  2        6.757  -0.999   1.583  0.00  0.00    -0.690 OA
ENDBRANCH  16  17
ENDBRANCH  15  16
ENDBRANCH  11  15
ENDBRANCH   2  11
TORSDOF 7
ENDMDL
MODEL      207
REMARK  Name = ZINC000052096023
REMARK                            x       y       z     vdW  Elec       q    Type
REMARK                         _______ _______ _______ _____ _____    ______ ____
ROOT
ATOM      1  S   LIG    1        0.058  -3.547   1.629  0.00  0.00    +2.730 S 
ATOM      2  O   LIG    1       -0.751  -3.276   2.765  0.00  0.00    -0.970 OA
ATOM      3  O   LIG    1        1.418  -3.946   1.721  0.00  0.00    -0.960 OA
ENDROOT
BRANCH   1   8
ATOM      4  C   LIG    1       -0.018   1.461   0.010  0.00  0.00    +0.330 C 
ATOM      5  N   LIG    1        0.002  -0.004   0.002  0.00  0.00    -0.460 N 
ATOM      6  C   LIG    1        0.009  -0.799  -1.089  0.00  0.00    +0.390 A 
ATOM      7  N   LIG    1        0.027  -2.045  -0.700  0.00  0.00    -0.410 NA
ATOM      8  C   LIG    1        0.033  -2.088   0.641  0.00  0.00    -0.550 A 
ATOM      9  C   LIG    1        0.024  -0.822   1.099  0.00  0.00    +0.250 A 
ENDBRANCH   1   8
BRANCH   1  10
ATOM     10  N   LIG    1       -0.721  -4.732   0.773  0.00  0.00    -1.080 NA
ATOM     11  H   LIG    1       -1.552  -5.104   1.106  0.00  0.00    +0.420 HD
BRANCH  10  12
ATOM     12  C   LIG    1       -0.153  -5.219  -0.486  0.00  0.00    +0.200 C 
BRANCH  12  13
ATOM     13  C   LIG    1       -0.821  -6.513  -0.871  0.00  0.00    +0.500 C 
ATOM     14  O   LIG    1       -0.492  -7.089  -1.895  0.00  0.00    -0.690 OA
ATOM     15  O   LIG    1       -1.692  -6.985  -0.160  0.00  0.00    -0.690 OA
ENDBRANCH  12  13
ENDBRANCH  10  12
ENDBRANCH   1  10
TORSDOF 4
ENDMDL
MODEL      208
REMARK  Name = ZINC000002384486
REMARK                            x       y       z     vdW  Elec       q    Type
REMARK                         _______ _______ _______ _____ _____    ______ ____
ROOT
ATOM      1  C   LIG    1       -3.630  -0.713  -0.978  0.00  0.00    +0.300 C 
ENDROOT
BRANCH   1   3
ATOM      2  C   LIG    1       -1.412  -0.526   0.013  0.00  0.00    +0.520 C 
ATOM      3  N   LIG    1       -2.256  -0.206  -0.988  0.00  0.00    -0.710 N 
ATOM      4  H   LIG    1       -1.953   0.360  -1.716  0.00  0.00    +0.410 HD
ATOM      5  O   LIG    1       -1.790  -1.233   0.922  0.00  0.00    -0.540 OA
BRANCH   2   7
ATOM      6  C   LIG    1       -0.019   1.526   0.010  0.00  0.00    +0.040 C 
ATOM      7  C   LIG    1        0.002  -0.004   0.002  0.00  0.00    -0.010 C 
ATOM      8  C   LIG    1        0.742  -0.511   1.242  0.00  0.00    +0.050 C 
ENDBRANCH   2   7
ENDBRANCH   1   3
BRANCH   1   9
ATOM      9  C   LIG    1       -4.359  -0.214  -2.199  0.00  0.00    +0.500 C 
ATOM     10  N   LIG    1       -5.647  -0.556  -2.402  0.00  0.00    -0.690 N 
ATOM     11  H   LIG    1       -6.104  -1.123  -1.762  0.00  0.00    +0.410 HD
ATOM     12  O   LIG    1       -3.787   0.496  -2.999  0.00  0.00    -0.560 OA
BRANCH  10  13
ATOM     13  C   LIG    1       -6.355  -0.070  -3.589  0.00  0.00    +0.190 C 
BRANCH  13  14
ATOM     14  C   LIG    1       -7.769  -0.592  -3.578  0.00  0.00    +0.490 C 
ATOM     15  O   LIG    1       -8.532  -0.303  -4.484  0.00  0.00    -0.690 OA
ATOM     16  O   LIG    1       -8.149  -1.303  -2.664  0.00  0.00    -0.690 OA
ENDBRANCH  13  14
ENDBRANCH  10  13
ENDBRANCH   1   9
TORSDOF 5
ENDMDL
MODEL      209
REMARK  Name = ZINC000002384790
REMARK                            x       y       z     vdW  Elec       q    Type
REMARK                         _______ _______ _______ _____ _____    ______ ____
ROOT
ATOM      1  CG  GLN A  1       -3.465  -1.164  -1.134  0.00  0.00    +0.030 C 
ENDROOT
BRANCH   1   4
ATOM      2  N   GLN A  1       -1.372  -0.511   0.012  0.00  0.00    -0.700 N 
ATOM      3  H   GLN A  1       -1.794  -0.752   0.852  0.00  0.00    +0.400 HD
ATOM      4  CD  GLN A  1       -2.051  -0.643  -1.145  0.00  0.00    +0.500 C 
ATOM      5  OE1 GLN A  1       -1.524  -0.341  -2.194  0.00  0.00    -0.550 OA
BRANCH   2   7
ATOM      6  CB  GLN A  1       -0.019   1.526   0.010  0.00  0.00    +0.020 C 
ATOM      7  CA  GLN A  1        0.002  -0.004   0.002  0.00  0.00    +0.150 C 
BRANCH   7   8
ATOM      8  C   GLN A  1        0.731  -0.503   1.223  0.00  0.00    +0.500 C 
ATOM      9  OXT GLN A  1        1.935  -0.690   1.180  0.00  0.00    -0.690 OA
ATOM     10  O   GLN A  1        0.117  -0.721   2.253  0.00  0.00    -0.690 OA
ENDBRANCH   7   8
ENDBRANCH   2   7
ENDBRANCH   1   4
BRANCH   1  11
ATOM     11  CB  GLN A  1       -4.000  -1.215  -2.566  0.00  0.00    +0.100 C 
BRANCH  11  12
ATOM     12  CA  GLN A  1       -5.436  -1.745  -2.555  0.00  0.00    +0.080 C 
BRANCH  12  13
ATOM     13  N   GLN A  1       -5.440  -3.138  -2.089  0.00  0.00    -0.610 N 
ATOM     14  H1  GLN A  1       -4.878  -3.702  -2.709  0.00  0.00    +0.430 HD
ATOM     15  H2  GLN A  1       -6.387  -3.487  -2.082  0.00  0.00    +0.430 HD
ATOM     16  H3  GLN A  1       -5.059  -3.181  -1.156  0.00  0.00    +0.410 HD
ENDBRANCH  12  13
BRANCH  12  17
ATOM     17  C   GLN A  1       -6.006  -1.680  -3.949  0.00  0.00    +0.490 C 
ATOM     18  OXT GLN A  1       -6.262  -0.600  -4.453  0.00  0.00    -0.640 OA
ATOM     19  O   GLN A  1       -6.211  -2.707  -4.572  0.00  0.00    -0.680 OA
ENDBRANCH  12  17
ENDBRANCH  11  12
ENDBRANCH   1  11
TORSDOF 7
ENDMDL
MODEL      210
REMARK  Name = ZINC000002473627
REMARK                            x       y       z     vdW  Elec       q    Type
REMARK                         _______ _______ _______ _____ _____    ______ ____
ROOT
ATOM      1  C   LIG    1        1.992  -3.742  -2.413  0.00  0.00    +0.280 A 
ATOM      2  N   LIG    1        1.970  -4.557  -1.391  0.00  0.00    -0.320 NA
ATOM      3  N   LIG    1        2.614  -5.797  -1.476  0.00  0.00    -0.570 N 
ATOM      4  H   LIG    1        2.595  -6.398  -0.715  0.00  0.00    +0.410 HD
ATOM      5  C   LIG    1        3.259  -6.166  -2.596  0.00  0.00    +0.640 A 
ATOM      6  N   LIG    1        3.306  -5.357  -3.671  0.00  0.00    -0.680 NA
ATOM      7  O   LIG    1        3.810  -7.250  -2.639  0.00  0.00    -0.610 OA
ATOM      8  C   LIG    1        2.695  -4.155  -3.639  0.00  0.00    +0.500 A 
ATOM      9  O   LIG    1        2.732  -3.418  -4.606  0.00  0.00    -0.570 OA
ENDROOT
BRANCH   1  10
ATOM     10  N   LIG    1        1.354  -2.503  -2.345  0.00  0.00    -0.690 N 
ATOM     11  H   LIG    1        1.372  -1.906  -3.109  0.00  0.00    +0.420 HD
BRANCH  10  12
ATOM     12  C   LIG    1        0.657  -2.104  -1.120  0.00  0.00    +0.290 C 
ATOM     13  C   LIG    1       -0.764  -2.670  -1.133  0.00  0.00    +0.050 C 
BRANCH  12  14
ATOM     14  C   LIG    1        0.598  -0.600  -1.043  0.00  0.00    +0.460 C 
ATOM     15  O   LIG    1        1.088   0.070  -1.921  0.00  0.00    -0.500 OA
BRANCH  14  17
ATOM     16  C   LIG    1       -0.018   1.448   0.010  0.00  0.00    +0.250 C 
ATOM     17  O   LIG    1        0.002  -0.004   0.002  0.00  0.00    -0.360 OA
ENDBRANCH  14  17
ENDBRANCH  12  14
ENDBRANCH  10  12
ENDBRANCH   1  10
TORSDOF 4
ENDMDL
MODEL      211
REMARK  Name = ZINC000002475925
REMARK                            x       y       z     vdW  Elec       q    Type
REMARK                         _______ _______ _______ _____ _____    ______ ____
ROOT
ATOM      1  N   LIG    1        2.148  -0.104   1.172  0.00  0.00    -0.690 N 
ATOM      2  H   LIG    1        2.812  -0.712   0.811  0.00  0.00    +0.420 HD
ENDROOT
BRANCH   1   3
ATOM      3  C   LIG    1        2.531   1.159   1.623  0.00  0.00    +0.270 A 
ATOM      4  N   LIG    1        1.646   1.986   2.116  0.00  0.00    -0.320 NA
ATOM      5  N   LIG    1        2.048   3.249   2.566  0.00  0.00    -0.580 N 
ATOM      6  H   LIG    1        1.387   3.859   2.930  0.00  0.00    +0.410 HD
ATOM      7  C   LIG    1        3.336   3.630   2.499  0.00  0.00    +0.640 A 
ATOM      8  N   LIG    1        4.279   2.810   1.999  0.00  0.00    -0.680 NA
ATOM      9  O   LIG    1        3.654   4.734   2.897  0.00  0.00    -0.610 OA
ATOM     10  C   LIG    1        3.941   1.580   1.559  0.00  0.00    +0.500 A 
ATOM     11  O   LIG    1        4.787   0.833   1.106  0.00  0.00    -0.570 OA
ENDBRANCH   1   3
BRANCH   1  12
ATOM     12  C   LIG    1        0.742  -0.511   1.242  0.00  0.00    +0.290 C 
BRANCH  12  14
ATOM     13  C   LIG    1       -0.019   1.526   0.010  0.00  0.00    +0.040 C 
ATOM     14  C   LIG    1        0.002  -0.004   0.002  0.00  0.00    +0.020 C 
ENDBRANCH  12  14
BRANCH  12  15
ATOM     15  C   LIG    1        0.657  -2.014   1.298  0.00  0.00    +0.460 C 
ATOM     16  O   LIG    1        1.666  -2.678   1.281  0.00  0.00    -0.500 OA
BRANCH  15  17
ATOM     17  O   LIG    1       -0.541  -2.617   1.366  0.00  0.00    -0.360 OA
ATOM     18  C   LIG    1       -0.547  -4.068   1.418  0.00  0.00    +0.250 C 
ENDBRANCH  15  17
ENDBRANCH  12  15
ENDBRANCH   1  12
TORSDOF 5
ENDMDL
MODEL      212
REMARK  Name = ZINC000002475926
REMARK                            x       y       z     vdW  Elec       q    Type
REMARK                         _______ _______ _______ _____ _____    ______ ____
ROOT
ATOM      1  N   LIG    1       -0.008  -0.140   2.444  0.00  0.00    -0.690 N 
ATOM      2  H   LIG    1       -0.629  -0.770   2.842  0.00  0.00    +0.420 HD
ENDROOT
BRANCH   1   3
ATOM      3  C   LIG    1        0.170   1.119   3.017  0.00  0.00    +0.270 A 
ATOM      4  N   LIG    1        1.001   1.979   2.486  0.00  0.00    -0.320 NA
ATOM      5  N   LIG    1        1.168   3.239   3.073  0.00  0.00    -0.580 N 
ATOM      6  H   LIG    1        1.785   3.873   2.676  0.00  0.00    +0.410 HD
ATOM      7  C   LIG    1        0.485   3.583   4.179  0.00  0.00    +0.640 A 
ATOM      8  N   LIG    1       -0.379   2.728   4.757  0.00  0.00    -0.680 NA
ATOM      9  O   LIG    1        0.652   4.685   4.666  0.00  0.00    -0.610 OA
ATOM     10  C   LIG    1       -0.578   1.504   4.225  0.00  0.00    +0.500 A 
ATOM     11  O   LIG    1       -1.358   0.726   4.741  0.00  0.00    -0.570 OA
ENDBRANCH   1   3
BRANCH   1  12
ATOM     12  C   LIG    1        0.742  -0.511   1.242  0.00  0.00    +0.290 C 
BRANCH  12  14
ATOM     13  C   LIG    1       -0.019   1.526   0.010  0.00  0.00    +0.040 C 
ATOM     14  C   LIG    1        0.002  -0.004   0.002  0.00  0.00    +0.020 C 
ENDBRANCH  12  14
BRANCH  12  15
ATOM     15  C   LIG    1        0.870  -2.011   1.172  0.00  0.00    +0.460 C 
ATOM     16  O   LIG    1        0.384  -2.699   2.038  0.00  0.00    -0.500 OA
BRANCH  15  17
ATOM     17  O   LIG    1        1.524  -2.582   0.148  0.00  0.00    -0.360 OA
ATOM     18  C   LIG    1        1.608  -4.031   0.146  0.00  0.00    +0.250 C 
ENDBRANCH  15  17
ENDBRANCH  12  15
ENDBRANCH   1  12
TORSDOF 5
ENDMDL
MODEL      213
REMARK  Name = ZINC000002597015
REMARK                            x       y       z     vdW  Elec       q    Type
REMARK                         _______ _______ _______ _____ _____    ______ ____
ROOT
ATOM      1  C   SER A  1       -2.113   0.957   1.227  0.00  0.00    +0.490 C 
ATOM      2  N   GLU A  2       -2.804   0.908   2.383  0.00  0.00    -0.640 N 
ATOM      3  H   GLU A  2       -2.392   1.208   3.208  0.00  0.00    +0.400 HD
ATOM      4  O   SER A  1       -2.629   0.582   0.195  0.00  0.00    -0.540 OA
ENDROOT
BRANCH   1   5
ATOM      5  CA  SER A  1       -0.699   1.479   1.216  0.00  0.00    +0.190 C 
BRANCH   5   6
ATOM      6  N   SER A  1       -0.012   1.005   0.008  0.00  0.00    -0.610 N 
ATOM      7  H1  SER A  1       -0.500   1.339  -0.810  0.00  0.00    +0.440 HD
ATOM      8  H2  SER A  1        0.935   1.354   0.000  0.00  0.00    +0.440 HD
ATOM      9  H3  SER A  1        0.002  -0.004   0.002  0.00  0.00    +0.440 HD
ENDBRANCH   5   6
BRANCH   5  10
ATOM     10  CB  SER A  1       -0.720   3.008   1.225  0.00  0.00    +0.250 C 
BRANCH  10  11
ATOM     11  OG  SER A  1        0.617   3.502   1.332  0.00  0.00    -0.580 OA
ATOM     12  H   SER A  1        0.680   4.467   1.343  0.00  0.00    +0.410 HD
ENDBRANCH  10  11
ENDBRANCH   5  10
ENDBRANCH   1   5
BRANCH   2  13
ATOM     13  CA  GLU A  2       -4.179   0.401   2.393  0.00  0.00    +0.160 C 
BRANCH  13  14
ATOM     14  C   GLU A  2       -5.128   1.516   2.041  0.00  0.00    +0.500 C 
ATOM     15  OXT GLU A  2       -4.849   2.668   2.326  0.00  0.00    -0.700 OA
ATOM     16  O   GLU A  2       -6.176   1.267   1.469  0.00  0.00    -0.680 OA
ENDBRANCH  13  14
BRANCH  13  17
ATOM     17  CB  GLU A  2       -4.515  -0.134   3.787  0.00  0.00    +0.060 C 
BRANCH  17  18
ATOM     18  CG  GLU A  2       -3.634  -1.346   4.094  0.00  0.00    -0.080 C 
BRANCH  18  19
ATOM     19  CD  GLU A  2       -3.965  -1.872   5.467  0.00  0.00    +0.490 C 
ATOM     20  OE2 GLU A  2       -3.372  -2.842   5.907  0.00  0.00    -0.710 OA
ATOM     21  OE1 GLU A  2       -4.825  -1.328   6.138  0.00  0.00    -0.690 OA
ENDBRANCH  18  19
ENDBRANCH  17  18
ENDBRANCH  13  17
ENDBRANCH   2  13
TORSDOF 9
ENDMDL
MODEL      214
REMARK  Name = ZINC000003865751
REMARK                            x       y       z     vdW  Elec       q    Type
REMARK                         _______ _______ _______ _____ _____    ______ ____
ROOT
ATOM      1  C   LIG    1       -1.843   1.139   1.653  0.00  0.00    +0.230 C 
ATOM      2  C   LIG    1       -3.092   1.928   1.223  0.00  0.00    +0.060 C 
ATOM      3  C   LIG    1       -4.330   1.292   1.885  0.00  0.00    -0.300 C 
ATOM      4  S   LIG    1       -3.708   0.533   3.429  0.00  0.00    +2.390 S 
ATOM      5  O   LIG    1       -3.872  -0.876   3.360  0.00  0.00    -0.930 OA
ATOM      6  O   LIG    1       -4.218   1.251   4.545  0.00  0.00    -0.940 OA
ATOM      7  C   LIG    1       -1.940   0.955   3.190  0.00  0.00    -0.290 C 
ENDROOT
BRANCH   1   8
ATOM      8  O   LIG    1       -0.662   1.873   1.322  0.00  0.00    -0.760 OA
BRANCH   8  10
ATOM      9  O   LIG    1        0.002  -0.004   0.002  0.00  0.00    -1.090 OA
ATOM     10  S   LIG    1       -0.018   1.450   0.010  0.00  0.00    +2.760 S 
ATOM     11  O   LIG    1       -0.845   1.991  -1.057  0.00  0.00    -1.090 OA
ATOM     12  O   LIG    1        1.323   2.015   0.000  0.00  0.00    -1.060 OA
ENDBRANCH   8  10
ENDBRANCH   1   8
TORSDOF 2
ENDMDL
MODEL      215
REMARK  Name = ZINC000001087721
REMARK                            x       y       z     vdW  Elec       q    Type
REMARK                         _______ _______ _______ _____ _____    ______ ____
ROOT
ATOM      1  C   LIG    1       -2.462   0.956   0.019  0.00  0.00    +0.130 A 
ATOM      2  N   LIG    1       -3.033   0.457  -1.035  0.00  0.00    -0.270 NA
ATOM      3  O   LIG    1       -4.045  -0.435  -0.602  0.00  0.00    +0.010 OA
ATOM      4  N   LIG    1       -4.037  -0.432   0.815  0.00  0.00    -0.370 NA
ATOM      5  C   LIG    1       -3.097   0.386   1.205  0.00  0.00    +0.350 A 
ENDROOT
BRANCH   5   6
ATOM      6  N   LIG    1       -2.763   0.673   2.524  0.00  0.00    -0.710 N 
ATOM      7  H   LIG    1       -2.046   1.297   2.718  0.00  0.00    +0.420 HD
BRANCH   6   8
ATOM      8  C   LIG    1       -3.495   0.034   3.620  0.00  0.00    +0.610 C 
BRANCH   8   9
ATOM      9  N   LIG    1       -2.958   0.498   4.902  0.00  0.00    -0.330 N 
ATOM     10  C   LIG    1       -3.439   1.507   5.652  0.00  0.00    +0.410 A 
ATOM     11  N   LIG    1       -2.670   1.588   6.710  0.00  0.00    -0.310 NA
ATOM     12  N   LIG    1       -1.765   0.677   6.616  0.00  0.00    -0.070 NA
ATOM     13  N   LIG    1       -1.939   0.012   5.527  0.00  0.00    -0.070 NA
ENDBRANCH   8   9
ENDBRANCH   6   8
ENDBRANCH   5   6
BRANCH   1  14
ATOM     14  C   LIG    1       -1.330   1.951   0.019  0.00  0.00    +0.050 C 
BRANCH  14  16
ATOM     15  O   LIG    1        0.002  -0.004   0.002  0.00  0.00    -0.680 OA
ATOM     16  C   LIG    1       -0.015   1.215   0.009  0.00  0.00    +0.500 C 
ATOM     17  O   LIG    1        1.033   1.839   0.002  0.00  0.00    -0.680 OA
ENDBRANCH  14  16
ENDBRANCH   1  14
TORSDOF 5
ENDMDL
MODEL      216
REMARK  Name = ZINC000004008804
REMARK                            x       y       z     vdW  Elec       q    Type
REMARK                         _______ _______ _______ _____ _____    ______ ____
ROOT
ATOM      1  N   LIG    1        0.711  -0.489   1.189  0.00  0.00    -0.610 N 
ATOM      2  C   LIG    1        2.005  -0.232   1.542  0.00  0.00    +0.720 C 
ATOM      3  N   LIG    1        2.254  -0.555   2.856  0.00  0.00    -0.730 N 
ATOM      4  H   LIG    1        3.113  -0.684   3.288  0.00  0.00    +0.420 HD
ATOM      5  C   LIG    1        0.974  -0.656   3.426  0.00  0.00    +0.370 C 
ATOM      6  N   LIG    1        0.285  -1.160   4.538  0.00  0.00    -0.720 N 
ATOM      7  H   LIG    1        0.654  -1.414   5.398  0.00  0.00    +0.430 HD
ATOM      8  C   LIG    1       -1.026  -1.215   4.139  0.00  0.00    +0.730 C 
ATOM      9  N   LIG    1       -1.159  -1.073   2.787  0.00  0.00    -0.740 N 
ATOM     10  H   LIG    1       -1.966  -0.853   2.296  0.00  0.00    +0.430 HD
ATOM     11  O   LIG    1       -1.962  -1.370   4.900  0.00  0.00    -0.550 OA
ATOM     12  O   LIG    1        2.838   0.229   0.785  0.00  0.00    -0.500 OA
ATOM     13  C   LIG    1        0.179  -1.347   2.249  0.00  0.00    +0.420 C 
ENDROOT
BRANCH   1  15
ATOM     14  C   LIG    1       -0.019   1.526   0.010  0.00  0.00    +0.030 C 
ATOM     15  C   LIG    1        0.002  -0.004   0.002  0.00  0.00    +0.180 C 
BRANCH  15  16
ATOM     16  C   LIG    1        0.707  -0.490  -1.238  0.00  0.00    +0.490 C 
ATOM     17  O   LIG    1        0.183  -0.354  -2.330  0.00  0.00    -0.700 OA
ATOM     18  O   LIG    1        1.802  -1.020  -1.149  0.00  0.00    -0.660 OA
ENDBRANCH  15  16
ENDBRANCH   1  15
TORSDOF 2
ENDMDL
MODEL      217
REMARK  Name = ZINC000004008802
REMARK                            x       y       z     vdW  Elec       q    Type
REMARK                         _______ _______ _______ _____ _____    ______ ____
ROOT
ATOM      1  N   LIG    1        0.711  -0.489   1.189  0.00  0.00    -0.600 N 
ATOM      2  C   LIG    1        1.984  -0.212   1.498  0.00  0.00    +0.710 C 
ATOM      3  N   LIG    1        2.401  -0.776   2.638  0.00  0.00    -0.750 N 
ATOM      4  H   LIG    1        3.290  -0.685   3.016  0.00  0.00    +0.420 HD
ATOM      5  C   LIG    1        1.302  -1.555   3.227  0.00  0.00    +0.460 C 
ATOM      6  N   LIG    1        1.613  -2.989   3.144  0.00  0.00    -0.740 N 
ATOM      7  H   LIG    1        2.301  -3.444   3.654  0.00  0.00    +0.430 HD
ATOM      8  C   LIG    1        0.797  -3.568   2.255  0.00  0.00    +0.710 C 
ATOM      9  N   LIG    1       -0.069  -2.724   1.681  0.00  0.00    -0.740 N 
ATOM     10  H   LIG    1       -0.732  -2.967   1.016  0.00  0.00    +0.430 HD
ATOM     11  O   LIG    1        0.839  -4.755   1.992  0.00  0.00    -0.590 OA
ATOM     12  O   LIG    1        2.696   0.489   0.806  0.00  0.00    -0.550 OA
ATOM     13  C   LIG    1        0.134  -1.351   2.230  0.00  0.00    +0.460 C 
ENDROOT
BRANCH   1  15
ATOM     14  C   LIG    1       -0.019   1.526   0.010  0.00  0.00    +0.040 C 
ATOM     15  C   LIG    1        0.002  -0.004   0.002  0.00  0.00    +0.180 C 
BRANCH  15  16
ATOM     16  C   LIG    1        0.707  -0.490  -1.238  0.00  0.00    +0.490 C 
ATOM     17  O   LIG    1        0.183  -0.354  -2.330  0.00  0.00    -0.700 OA
ATOM     18  O   LIG    1        1.802  -1.020  -1.149  0.00  0.00    -0.660 OA
ENDBRANCH  15  16
ENDBRANCH   1  15
TORSDOF 2
ENDMDL
MODEL      218
REMARK  Name = ZINC000004008803
REMARK                            x       y       z     vdW  Elec       q    Type
REMARK                         _______ _______ _______ _____ _____    ______ ____
ROOT
ATOM      1  N   LIG    1        0.688  -0.476  -1.203  0.00  0.00    -0.610 N 
ATOM      2  C   LIG    1        1.958  -0.205  -1.528  0.00  0.00    +0.700 C 
ATOM      3  N   LIG    1        2.353  -0.755  -2.683  0.00  0.00    -0.750 N 
ATOM      4  H   LIG    1        3.236  -0.665  -3.074  0.00  0.00    +0.420 HD
ATOM      5  C   LIG    1        1.238  -1.514  -3.267  0.00  0.00    +0.460 C 
ATOM      6  N   LIG    1        0.762  -0.838  -4.482  0.00  0.00    -0.740 N 
ATOM      7  H   LIG    1        1.249  -0.777  -5.318  0.00  0.00    +0.430 HD
ATOM      8  C   LIG    1       -0.451  -0.319  -4.253  0.00  0.00    +0.710 C 
ATOM      9  N   LIG    1       -0.911  -0.538  -3.015  0.00  0.00    -0.740 N 
ATOM     10  H   LIG    1       -1.768  -0.236  -2.674  0.00  0.00    +0.430 HD
ATOM     11  O   LIG    1       -1.078   0.296  -5.094  0.00  0.00    -0.590 OA
ATOM     12  O   LIG    1        2.688   0.478  -0.836  0.00  0.00    -0.530 OA
ATOM     13  C   LIG    1        0.091  -1.327  -2.242  0.00  0.00    +0.470 C 
ENDROOT
BRANCH   1  15
ATOM     14  C   LIG    1       -0.019   1.526   0.010  0.00  0.00    +0.030 C 
ATOM     15  C   LIG    1        0.002  -0.004   0.002  0.00  0.00    +0.190 C 
BRANCH  15  16
ATOM     16  C   LIG    1        0.731  -0.503   1.223  0.00  0.00    +0.490 C 
ATOM     17  O   LIG    1        1.935  -0.690   1.180  0.00  0.00    -0.660 OA
ATOM     18  O   LIG    1        0.117  -0.721   2.253  0.00  0.00    -0.700 OA
ENDBRANCH  15  16
ENDBRANCH   1  15
TORSDOF 2
ENDMDL
MODEL      219
REMARK  Name = ZINC000004429444
REMARK                            x       y       z     vdW  Elec       q    Type
REMARK                         _______ _______ _______ _____ _____    ______ ____
ROOT
ATOM      1  O   LIG    1        0.002  -0.004   0.002  0.00  0.00    -0.560 OA
ATOM      2  C   LIG    1       -0.014   1.212   0.009  0.00  0.00    +0.690 A 
ATOM      3  N   LIG    1       -1.194   1.858   0.029  0.00  0.00    -0.620 N 
ATOM      4  H   LIG    1       -2.020   1.350   0.037  0.00  0.00    +0.440 HD
ATOM      5  C   LIG    1       -1.240   3.231   0.037  0.00  0.00    +0.260 A 
ATOM      6  C   LIG    1       -0.086   3.938   0.025  0.00  0.00    +0.040 A 
ATOM      7  C   LIG    1        1.150   3.238   0.004  0.00  0.00    +0.560 A 
ATOM      8  O   LIG    1        2.203   3.851  -0.007  0.00  0.00    -0.510 OA
ATOM      9  N   LIG    1        1.148   1.890   0.001  0.00  0.00    -0.650 N 
ATOM     10  H   LIG    1        1.988   1.406  -0.013  0.00  0.00    +0.430 HD
ENDROOT
BRANCH   6  11
ATOM     11  N   LIG    1       -0.111   5.344   0.034  0.00  0.00    -1.050 N 
ATOM     12  H   LIG    1        0.721   5.844   0.025  0.00  0.00    +0.420 HD
BRANCH  11  13
ATOM     13  S   LIG    1       -1.559   6.147   0.059  0.00  0.00    +2.770 S 
ATOM     14  O   LIG    1       -2.193   5.828   1.329  0.00  0.00    -1.070 OA
ATOM     15  O   LIG    1       -2.329   5.659  -1.074  0.00  0.00    -1.070 OA
ATOM     16  O   LIG    1       -1.254   7.565  -0.058  0.00  0.00    -1.070 OA
ENDBRANCH  11  13
ENDBRANCH   6  11
TORSDOF 2
ENDMDL
MODEL      220
REMARK  Name = ZINC000253417458
REMARK                            x       y       z     vdW  Elec       q    Type
REMARK                         _______ _______ _______ _____ _____    ______ ____
ROOT
ATOM      1  N   LIG    1        1.318  -1.726   1.276  0.00  0.00    -0.530 NA
ATOM      2  C   LIG    1        2.540  -1.964   0.496  0.00  0.00    +0.150 C 
ATOM      3  C   LIG    1        2.684  -3.465   0.224  0.00  0.00    +0.300 C 
ATOM      4  N   LIG    1        2.615  -4.181   1.506  0.00  0.00    -0.600 N 
ATOM      5  C   LIG    1        1.487  -3.892   2.405  0.00  0.00    +0.210 C 
ATOM      6  C   LIG    1        1.722  -4.566   3.758  0.00  0.00    +0.050 C 
ATOM      7  C   LIG    1        3.559  -5.080   1.849  0.00  0.00    +0.450 C 
ATOM      8  O   LIG    1        3.556  -5.571   2.958  0.00  0.00    -0.540 OA
ATOM      9  C   LIG    1        1.391  -2.374   2.592  0.00  0.00    +0.160 C 
ENDROOT
BRANCH   7  10
ATOM     10  C   LIG    1        4.613  -5.471   0.860  0.00  0.00    +0.500 C 
ATOM     11  O   LIG    1        4.550  -5.069  -0.290  0.00  0.00    -0.660 OA
ATOM     12  O   LIG    1        5.536  -6.192   1.205  0.00  0.00    -0.640 OA
ENDBRANCH   7  10
BRANCH   1  13
ATOM     13  C   LIG    1        1.052  -0.287   1.411  0.00  0.00    +0.180 C 
BRANCH  13  15
ATOM     14  C   LIG    1        0.583   1.823   0.158  0.00  0.00    -0.010 C 
ATOM     15  C   LIG    1        0.737   0.305   0.036  0.00  0.00    +0.160 C 
BRANCH  15  16
ATOM     16  O   LIG    1       -0.479  -0.259  -0.458  0.00  0.00    -0.550 OA
ATOM     17  H   LIG    1       -0.741   0.072  -1.328  0.00  0.00    +0.370 HD
ENDBRANCH  15  16
ENDBRANCH  13  15
ENDBRANCH   1  13
TORSDOF 4
ENDMDL
MODEL      221
REMARK  Name = ZINC000253417457
REMARK                            x       y       z     vdW  Elec       q    Type
REMARK                         _______ _______ _______ _____ _____    ______ ____
ROOT
ATOM      1  N   LIG    1        0.480  -1.779   1.787  0.00  0.00    -0.540 NA
ATOM      2  C   LIG    1       -0.732  -2.529   1.429  0.00  0.00    +0.160 C 
ATOM      3  C   LIG    1       -0.344  -3.954   1.019  0.00  0.00    +0.300 C 
ATOM      4  N   LIG    1        0.459  -4.548   2.098  0.00  0.00    -0.600 N 
ATOM      5  C   LIG    1        1.613  -3.790   2.606  0.00  0.00    +0.200 C 
ATOM      6  C   LIG    1        2.167  -4.474   3.857  0.00  0.00    +0.040 C 
ATOM      7  C   LIG    1        0.147  -5.756   2.608  0.00  0.00    +0.450 C 
ATOM      8  O   LIG    1        0.730  -6.170   3.588  0.00  0.00    -0.540 OA
ATOM      9  C   LIG    1        1.148  -2.372   2.953  0.00  0.00    +0.180 C 
ENDROOT
BRANCH   7  10
ATOM     10  C   LIG    1       -0.920  -6.587   1.966  0.00  0.00    +0.500 C 
ATOM     11  O   LIG    1       -1.422  -6.227   0.913  0.00  0.00    -0.660 OA
ATOM     12  O   LIG    1       -1.288  -7.623   2.494  0.00  0.00    -0.640 OA
ENDBRANCH   7  10
BRANCH   1  13
ATOM     13  C   LIG    1        0.172  -0.362   2.020  0.00  0.00    +0.230 C 
BRANCH  13  15
ATOM     14  C   LIG    1       -1.495   1.212   3.014  0.00  0.00    +0.000 C 
ATOM     15  C   LIG    1       -1.046  -0.249   2.939  0.00  0.00    +0.120 C 
BRANCH  15  16
ATOM     16  O   LIG    1       -0.700  -0.708   4.247  0.00  0.00    -0.560 OA
ATOM     17  H   LIG    1       -1.426  -0.665   4.884  0.00  0.00    +0.370 HD
ENDBRANCH  15  16
ENDBRANCH  13  15
ENDBRANCH   1  13
TORSDOF 4
ENDMDL
MODEL      222
REMARK  Name = ZINC000005035015
REMARK                            x       y       z     vdW  Elec       q    Type
REMARK                         _______ _______ _______ _____ _____    ______ ____
ROOT
ATOM      1  C   LIG    1       -3.745   1.973   0.030  0.00  0.00    +0.550 C 
ATOM      2  N   LIG    1       -4.903   1.284   0.032  0.00  0.00    -0.720 N 
ATOM      3  H   LIG    1       -4.890   0.314   0.027  0.00  0.00    +0.410 HD
ATOM      4  O   LIG    1       -3.762   3.188   0.037  0.00  0.00    -0.550 OA
ENDROOT
BRANCH   2   5
ATOM      5  C   LIG    1       -6.182   1.999   0.042  0.00  0.00    +0.270 C 
ATOM      6  C   LIG    1       -6.592   2.345  -1.400  0.00  0.00    +0.060 C 
ATOM      7  C   LIG    1       -8.077   2.788  -1.344  0.00  0.00    -0.300 C 
ATOM      8  S   LIG    1       -8.817   1.563  -0.199  0.00  0.00    +2.400 S 
ATOM      9  O   LIG    1       -9.292   0.450  -0.943  0.00  0.00    -0.930 OA
ATOM     10  O   LIG    1       -9.683   2.230   0.708  0.00  0.00    -0.940 OA
ATOM     11  C   LIG    1       -7.272   1.103   0.662  0.00  0.00    -0.310 C 
ENDBRANCH   2   5
BRANCH   1  13
ATOM     12  C   LIG    1       -1.301   1.938   0.019  0.00  0.00    +0.020 C 
ATOM     13  C   LIG    1       -2.455   1.251   0.021  0.00  0.00    -0.090 C 
BRANCH  12  15
ATOM     14  O   LIG    1        0.002  -0.004   0.002  0.00  0.00    -0.680 OA
ATOM     15  C   LIG    1       -0.015   1.219   0.009  0.00  0.00    +0.500 C 
ATOM     16  O   LIG    1        1.036   1.844   0.002  0.00  0.00    -0.680 OA
ENDBRANCH  12  15
ENDBRANCH   1  13
TORSDOF 3
ENDMDL
MODEL      223
REMARK  Name = ZINC000005187721
REMARK                            x       y       z     vdW  Elec       q    Type
REMARK                         _______ _______ _______ _____ _____    ______ ____
ROOT
ATOM      1  CA  LIG    1        0.138  -0.073  -0.327  0.00  0.00    +0.210 C 
ATOM      2  C   LIG    1        0.257  -0.845  -1.630  0.00  0.00    +0.510 C 
ATOM      3  N   LIG    1       -0.906  -1.477  -1.398  0.00  0.00    -0.550 N 
ATOM      4  CA  LIG    1       -1.582  -2.629  -1.837  0.00  0.00    +0.080 C 
ATOM      5  C   LIG    1       -2.406  -3.266  -1.016  0.00  0.00    -0.170 C 
ATOM      6  C   LIG    1       -2.789  -2.900   0.380  0.00  0.00    +0.200 C 
ATOM      7  S   LIG    1       -1.593  -1.765   1.147  0.00  0.00    -0.250 S 
ATOM      8  O   LIG    1        1.076  -0.878  -2.524  0.00  0.00    -0.460 OA
ATOM      9  C   LIG    1       -1.284  -0.615  -0.231  0.00  0.00    +0.280 C 
ENDROOT
BRANCH   1  10
ATOM     10  N   LIG    1        0.203   1.385  -0.497  0.00  0.00    -0.820 NA
ATOM     11  H1  LIG    1       -0.346   1.681  -1.290  0.00  0.00    +0.350 HD
ATOM     12  H2  LIG    1        1.159   1.696  -0.583  0.00  0.00    +0.360 HD
ENDBRANCH   1  10
BRANCH   4  13
ATOM     13  C   LIG    1       -1.375  -3.127  -3.207  0.00  0.00    +0.520 C 
ATOM     14  OXT LIG    1       -0.706  -2.478  -3.999  0.00  0.00    -0.660 OA
ATOM     15  O   LIG    1       -1.874  -4.189  -3.553  0.00  0.00    -0.670 OA
ENDBRANCH   4  13
BRANCH   5  16
ATOM     16  C   LIG    1       -3.036  -4.522  -1.562  0.00  0.00    +0.290 C 
BRANCH  16  17
ATOM     17  O   LIG    1       -3.962  -5.044  -0.608  0.00  0.00    -0.600 OA
ATOM     18  H   LIG    1       -4.349  -5.894  -0.860  0.00  0.00    +0.370 HD
ENDBRANCH  16  17
ENDBRANCH   5  16
TORSDOF 4
ENDMDL
MODEL      224
REMARK  Name = ZINC000005187736
REMARK                            x       y       z     vdW  Elec       q    Type
REMARK                         _______ _______ _______ _____ _____    ______ ____
ROOT
ATOM      1  CA  LIG    1       -0.005   0.019   0.076  0.00  0.00    +0.160 C 
ATOM      2  C   LIG    1        0.213  -0.619   1.437  0.00  0.00    +0.560 C 
ATOM      3  N   LIG    1       -0.910  -1.347   1.312  0.00  0.00    -0.550 N 
ATOM      4  CA  LIG    1       -1.487  -2.495   1.881  0.00  0.00    +0.080 C 
ATOM      5  C   LIG    1       -2.293  -3.260   1.156  0.00  0.00    -0.180 C 
ATOM      6  C   LIG    1       -2.751  -3.050  -0.250  0.00  0.00    +0.220 C 
ATOM      7  S   LIG    1       -1.665  -1.914  -1.166  0.00  0.00    -0.270 S 
ATOM      8  O   LIG    1        1.064  -0.514   2.296  0.00  0.00    -0.450 OA
ATOM      9  C   LIG    1       -1.389  -0.623   0.089  0.00  0.00    +0.280 C 
ENDROOT
BRANCH   1  10
ATOM     10  N   LIG    1       -0.037   1.487   0.112  0.00  0.00    -0.820 NA
ATOM     11  H1  LIG    1       -0.564   1.857  -0.665  0.00  0.00    +0.350 HD
ATOM     12  H2  LIG    1        0.897   1.869   0.130  0.00  0.00    +0.360 HD
ENDBRANCH   1  10
BRANCH   4  13
ATOM     13  C   LIG    1       -1.198  -2.850   3.280  0.00  0.00    +0.520 C 
ATOM     14  OXT LIG    1       -0.373  -2.207   3.916  0.00  0.00    -0.650 OA
ATOM     15  O   LIG    1       -1.781  -3.787   3.807  0.00  0.00    -0.670 OA
ENDBRANCH   4  13
BRANCH   5  16
ATOM     16  C   LIG    1       -2.814  -4.498   1.838  0.00  0.00    +0.280 C 
BRANCH  16  17
ATOM     17  O   LIG    1       -3.569  -5.274   0.906  0.00  0.00    -0.600 OA
ATOM     18  H   LIG    1       -3.999  -6.048   1.296  0.00  0.00    +0.370 HD
ENDBRANCH  16  17
ENDBRANCH   5  16
TORSDOF 4
ENDMDL
MODEL      225
REMARK  Name = ZINC000005187725
REMARK                            x       y       z     vdW  Elec       q    Type
REMARK                         _______ _______ _______ _____ _____    ______ ____
ROOT
ATOM      1  CA  LIG    1        0.166  -0.123   0.302  0.00  0.00    +0.150 C 
ATOM      2  C   LIG    1        0.208  -0.676   1.716  0.00  0.00    +0.550 C 
ATOM      3  N   LIG    1       -1.099  -0.985   1.669  0.00  0.00    -0.550 N 
ATOM      4  CA  LIG    1       -2.144  -1.274   2.564  0.00  0.00    +0.080 C 
ATOM      5  C   LIG    1       -3.393  -0.963   2.245  0.00  0.00    -0.180 C 
ATOM      6  C   LIG    1       -3.903  -0.354   0.980  0.00  0.00    +0.200 C 
ATOM      7  S   LIG    1       -2.590   0.487   0.044  0.00  0.00    -0.230 S 
ATOM      8  O   LIG    1        1.076  -0.792   2.555  0.00  0.00    -0.460 OA
ATOM      9  C   LIG    1       -1.234  -0.722   0.198  0.00  0.00    +0.260 C 
ENDROOT
BRANCH   1  10
ATOM     10  N   LIG    1        0.185   1.344   0.241  0.00  0.00    -0.810 NA
ATOM     11  H1  LIG    1       -0.238   1.677  -0.612  0.00  0.00    +0.350 HD
ATOM     12  H2  LIG    1        1.125   1.698   0.340  0.00  0.00    +0.350 HD
ENDBRANCH   1  10
BRANCH   4  13
ATOM     13  C   LIG    1       -1.852  -1.921   3.853  0.00  0.00    +0.520 C 
ATOM     14  OXT LIG    1       -0.718  -2.311   4.099  0.00  0.00    -0.660 OA
ATOM     15  O   LIG    1       -2.742  -2.070   4.678  0.00  0.00    -0.670 OA
ENDBRANCH   4  13
BRANCH   5  16
ATOM     16  C   LIG    1       -4.432  -1.260   3.296  0.00  0.00    +0.290 C 
BRANCH  16  17
ATOM     17  O   LIG    1       -5.731  -0.959   2.780  0.00  0.00    -0.600 OA
ATOM     18  H   LIG    1       -6.442  -1.054   3.428  0.00  0.00    +0.370 HD
ENDBRANCH  16  17
ENDBRANCH   5  16
TORSDOF 4
ENDMDL
MODEL      226
REMARK  Name = ZINC000005273797
REMARK                            x       y       z     vdW  Elec       q    Type
REMARK                         _______ _______ _______ _____ _____    ______ ____
ROOT
ATOM      1  C   SER A  1       -2.113   0.957   1.227  0.00  0.00    +0.490 C 
ATOM      2  N   GLU A  2       -2.804   0.908   2.383  0.00  0.00    -0.640 N 
ATOM      3  H   GLU A  2       -2.392   1.208   3.208  0.00  0.00    +0.400 HD
ATOM      4  O   SER A  1       -2.629   0.582   0.195  0.00  0.00    -0.540 OA
ENDROOT
BRANCH   1   5
ATOM      5  CA  SER A  1       -0.699   1.479   1.216  0.00  0.00    +0.180 C 
BRANCH   5   6
ATOM      6  N   SER A  1       -0.012   1.005   0.008  0.00  0.00    -0.610 N 
ATOM      7  H1  SER A  1       -0.500   1.339  -0.810  0.00  0.00    +0.440 HD
ATOM      8  H2  SER A  1        0.935   1.354   0.000  0.00  0.00    +0.440 HD
ATOM      9  H3  SER A  1        0.002  -0.004   0.002  0.00  0.00    +0.440 HD
ENDBRANCH   5   6
BRANCH   5  10
ATOM     10  CB  SER A  1       -0.720   3.008   1.225  0.00  0.00    +0.240 C 
BRANCH  10  11
ATOM     11  OG  SER A  1        0.617   3.502   1.332  0.00  0.00    -0.580 OA
ATOM     12  H   SER A  1        0.680   4.467   1.343  0.00  0.00    +0.410 HD
ENDBRANCH  10  11
ENDBRANCH   5  10
ENDBRANCH   1   5
BRANCH   2  13
ATOM     13  CA  GLU A  2       -4.179   0.401   2.393  0.00  0.00    +0.160 C 
BRANCH  13  14
ATOM     14  C   GLU A  2       -4.159  -1.102   2.509  0.00  0.00    +0.500 C 
ATOM     15  OXT GLU A  2       -5.187  -1.739   2.352  0.00  0.00    -0.680 OA
ATOM     16  O   GLU A  2       -3.115  -1.680   2.759  0.00  0.00    -0.700 OA
ENDBRANCH  13  14
BRANCH  13  17
ATOM     17  CB  GLU A  2       -4.932   0.994   3.585  0.00  0.00    +0.060 C 
BRANCH  17  18
ATOM     18  CG  GLU A  2       -5.061   2.508   3.405  0.00  0.00    -0.090 C 
BRANCH  18  19
ATOM     19  CD  GLU A  2       -5.803   3.092   4.579  0.00  0.00    +0.490 C 
ATOM     20  OE2 GLU A  2       -6.013   4.292   4.631  0.00  0.00    -0.710 OA
ATOM     21  OE1 GLU A  2       -6.193   2.365   5.477  0.00  0.00    -0.690 OA
ENDBRANCH  18  19
ENDBRANCH  17  18
ENDBRANCH  13  17
ENDBRANCH   2  13
TORSDOF 9
ENDMDL
MODEL      227
REMARK  Name = ZINC000005273796
REMARK                            x       y       z     vdW  Elec       q    Type
REMARK                         _______ _______ _______ _____ _____    ______ ____
ROOT
ATOM      1  C   SER A  1       -0.720   2.985   1.224  0.00  0.00    +0.490 C 
ATOM      2  N   GLU A  2       -0.920   3.650   2.380  0.00  0.00    -0.640 N 
ATOM      3  H   GLU A  2       -1.052   3.159   3.205  0.00  0.00    +0.400 HD
ATOM      4  O   SER A  1       -0.555   3.600   0.192  0.00  0.00    -0.540 OA
ENDROOT
BRANCH   1   5
ATOM      5  CA  SER A  1       -0.699   1.479   1.216  0.00  0.00    +0.180 C 
BRANCH   5   6
ATOM      6  N   SER A  1       -0.012   1.005   0.008  0.00  0.00    -0.610 N 
ATOM      7  H1  SER A  1       -0.500   1.339  -0.810  0.00  0.00    +0.440 HD
ATOM      8  H2  SER A  1        0.935   1.354   0.000  0.00  0.00    +0.440 HD
ATOM      9  H3  SER A  1        0.002  -0.004   0.002  0.00  0.00    +0.440 HD
ENDBRANCH   5   6
BRANCH   5  10
ATOM     10  CB  SER A  1       -2.135   0.949   1.227  0.00  0.00    +0.250 C 
BRANCH  10  11
ATOM     11  OG  SER A  1       -2.116  -0.476   1.337  0.00  0.00    -0.580 OA
ATOM     12  H   SER A  1       -2.994  -0.881   1.349  0.00  0.00    +0.410 HD
ENDBRANCH  10  11
ENDBRANCH   5  10
ENDBRANCH   1   5
BRANCH   2  13
ATOM     13  CA  GLU A  2       -0.940   5.115   2.388  0.00  0.00    +0.160 C 
BRANCH  13  14
ATOM     14  C   GLU A  2       -2.323   5.601   2.036  0.00  0.00    +0.500 C 
ATOM     15  OXT GLU A  2       -2.514   6.783   1.808  0.00  0.00    -0.680 OA
ATOM     16  O   GLU A  2       -3.250   4.811   1.979  0.00  0.00    -0.700 OA
ENDBRANCH  13  14
BRANCH  13  17
ATOM     17  CB  GLU A  2       -0.561   5.623   3.780  0.00  0.00    +0.060 C 
BRANCH  17  18
ATOM     18  CG  GLU A  2        0.888   5.236   4.087  0.00  0.00    -0.080 C 
BRANCH  18  19
ATOM     19  CD  GLU A  2        1.262   5.736   5.458  0.00  0.00    +0.490 C 
ATOM     20  OE2 GLU A  2        2.380   5.531   5.898  0.00  0.00    -0.710 OA
ATOM     21  OE1 GLU A  2        0.445   6.345   6.128  0.00  0.00    -0.690 OA
ENDBRANCH  18  19
ENDBRANCH  17  18
ENDBRANCH  13  17
ENDBRANCH   2  13
TORSDOF 9
ENDMDL
MODEL      228
REMARK  Name = ZINC000005273795
REMARK                            x       y       z     vdW  Elec       q    Type
REMARK                         _______ _______ _______ _____ _____    ______ ____
ROOT
ATOM      1  C   SER A  1       -0.720   2.985   1.224  0.00  0.00    +0.490 C 
ATOM      2  N   GLU A  2       -0.920   3.650   2.380  0.00  0.00    -0.640 N 
ATOM      3  H   GLU A  2       -1.052   3.159   3.205  0.00  0.00    +0.400 HD
ATOM      4  O   SER A  1       -0.555   3.600   0.192  0.00  0.00    -0.540 OA
ENDROOT
BRANCH   1   5
ATOM      5  CA  SER A  1       -0.699   1.479   1.216  0.00  0.00    +0.180 C 
BRANCH   5   6
ATOM      6  N   SER A  1       -0.012   1.005   0.008  0.00  0.00    -0.610 N 
ATOM      7  H1  SER A  1       -0.500   1.339  -0.810  0.00  0.00    +0.440 HD
ATOM      8  H2  SER A  1        0.935   1.354   0.000  0.00  0.00    +0.440 HD
ATOM      9  H3  SER A  1        0.002  -0.004   0.002  0.00  0.00    +0.440 HD
ENDBRANCH   5   6
BRANCH   5  10
ATOM     10  CB  SER A  1       -2.135   0.949   1.227  0.00  0.00    +0.240 C 
BRANCH  10  11
ATOM     11  OG  SER A  1       -2.116  -0.476   1.337  0.00  0.00    -0.580 OA
ATOM     12  H   SER A  1       -2.994  -0.881   1.349  0.00  0.00    +0.410 HD
ENDBRANCH  10  11
ENDBRANCH   5  10
ENDBRANCH   1   5
BRANCH   2  13
ATOM     13  CA  GLU A  2       -0.940   5.115   2.388  0.00  0.00    +0.160 C 
BRANCH  13  14
ATOM     14  C   GLU A  2        0.469   5.636   2.501  0.00  0.00    +0.500 C 
ATOM     15  OXT GLU A  2        1.314   4.985   3.092  0.00  0.00    -0.700 OA
ATOM     16  O   GLU A  2        0.765   6.708   2.001  0.00  0.00    -0.680 OA
ENDBRANCH  13  14
BRANCH  13  17
ATOM     17  CB  GLU A  2       -1.763   5.607   3.580  0.00  0.00    +0.060 C 
BRANCH  17  18
ATOM     18  CG  GLU A  2       -3.223   5.184   3.402  0.00  0.00    -0.080 C 
BRANCH  18  19
ATOM     19  CD  GLU A  2       -4.033   5.669   4.576  0.00  0.00    +0.490 C 
ATOM     20  OE2 GLU A  2       -5.229   5.435   4.630  0.00  0.00    -0.710 OA
ATOM     21  OE1 GLU A  2       -3.494   6.295   5.472  0.00  0.00    -0.690 OA
ENDBRANCH  18  19
ENDBRANCH  17  18
ENDBRANCH  13  17
ENDBRANCH   2  13
TORSDOF 9
ENDMDL
MODEL      229
REMARK  Name = ZINC000005356910
REMARK                            x       y       z     vdW  Elec       q    Type
REMARK                         _______ _______ _______ _____ _____    ______ ____
ROOT
ATOM      1  C   LIG    1        0.794  -0.418  -1.208  0.00  0.00    +0.230 C 
ENDROOT
BRANCH   1   2
ATOM      2  C   LIG    1        2.201   0.108  -1.087  0.00  0.00    +0.480 C 
ATOM      3  N   LIG    1        2.977  -0.273  -0.053  0.00  0.00    -0.720 N 
ATOM      4  H   LIG    1        2.654  -0.935   0.577  0.00  0.00    +0.400 HD
ATOM      5  O   LIG    1        2.635   0.875  -1.921  0.00  0.00    -0.540 OA
BRANCH   3   6
ATOM      6  C   LIG    1        4.309   0.312   0.118  0.00  0.00    +0.280 C 
BRANCH   6   7
ATOM      7  C   LIG    1        4.975  -0.289   1.357  0.00  0.00    -0.080 C 
BRANCH   7   8
ATOM      8  C   LIG    1        6.345   0.313   1.534  0.00  0.00    +0.500 C 
ATOM      9  O   LIG    1        7.047  -0.032   2.469  0.00  0.00    -0.700 OA
ATOM     10  O   LIG    1        6.752   1.145   0.741  0.00  0.00    -0.690 OA
ENDBRANCH   7   8
ENDBRANCH   6   7
ENDBRANCH   3   6
ENDBRANCH   1   2
BRANCH   1  12
ATOM     11  C   LIG    1        0.438  -0.378   1.265  0.00  0.00    +0.040 C 
ATOM     12  C   LIG    1       -0.063   0.156  -0.079  0.00  0.00    -0.090 C 
ATOM     13  C   LIG    1       -1.521  -0.262  -0.282  0.00  0.00    +0.060 C 
BRANCH  12  14
ATOM     14  C   LIG    1        0.035   1.683  -0.089  0.00  0.00    +0.180 C 
BRANCH  14  15
ATOM     15  O   LIG    1       -0.766   2.219   0.966  0.00  0.00    -0.570 OA
ATOM     16  H   LIG    1       -0.751   3.185   1.020  0.00  0.00    +0.380 HD
ENDBRANCH  14  15
ENDBRANCH  12  14
ENDBRANCH   1  12
BRANCH   1  17
ATOM     17  O   LIG    1        0.246  -0.027  -2.468  0.00  0.00    -0.540 OA
ATOM     18  H   LIG    1        0.205   0.930  -2.599  0.00  0.00    +0.380 HD
ENDBRANCH   1  17
TORSDOF 8
ENDMDL
MODEL      230
REMARK  Name = ZINC000005425214
REMARK                            x       y       z     vdW  Elec       q    Type
REMARK                         _______ _______ _______ _____ _____    ______ ____
ROOT
ATOM      1  C   LIG    1        0.002  -0.004   0.002  0.00  0.00    +0.580 A 
ATOM      2  N   LIG    1       -1.146  -0.663   0.004  0.00  0.00    -0.590 NA
ATOM      3  C   LIG    1       -1.168  -1.994  -0.004  0.00  0.00    +0.430 A 
ATOM      4  C   LIG    1        0.042  -2.692  -0.014  0.00  0.00    +0.030 A 
ATOM      5  C   LIG    1        1.227  -1.960  -0.015  0.00  0.00    +0.360 A 
ATOM      6  N   LIG    1        1.168  -0.632  -0.013  0.00  0.00    -0.570 NA
ENDROOT
BRANCH   1   7
ATOM      7  N   LIG    1       -0.017   1.382   0.010  0.00  0.00    -0.830 N 
ATOM      8  H   LIG    1       -0.863   1.856   0.016  0.00  0.00    +0.410 HD
ATOM      9  H   LIG    1        0.817   1.879   0.004  0.00  0.00    +0.410 HD
ENDBRANCH   1   7
BRANCH   4  10
ATOM     10  N   LIG    1        0.062  -4.099  -0.022  0.00  0.00    -0.860 N 
ATOM     11  H   LIG    1        0.909  -4.572  -0.029  0.00  0.00    +0.400 HD
ATOM     12  H   LIG    1       -0.771  -4.596  -0.021  0.00  0.00    +0.390 HD
ENDBRANCH   4  10
BRANCH   3  13
ATOM     13  N   LIG    1       -2.377  -2.679  -0.002  0.00  0.00    -0.840 N 
ATOM     14  H   LIG    1       -2.384  -3.649  -0.007  0.00  0.00    +0.410 HD
ATOM     15  H   LIG    1       -3.213  -2.187   0.005  0.00  0.00    +0.410 HD
ENDBRANCH   3  13
BRANCH   5  16
ATOM     16  O   LIG    1        2.426  -2.595  -0.025  0.00  0.00    -0.700 OA
BRANCH  16  17
ATOM     17  S   LIG    1        2.967  -2.876  -1.420  0.00  0.00    +2.750 S 
ATOM     18  O   LIG    1        3.453  -1.610  -1.945  0.00  0.00    -1.060 OA
ATOM     19  O   LIG    1        1.857  -3.401  -2.201  0.00  0.00    -1.070 OA
ATOM     20  O   LIG    1        4.036  -3.850  -1.267  0.00  0.00    -1.060 OA
ENDBRANCH  16  17
ENDBRANCH   5  16
TORSDOF 5
ENDMDL
MODEL      231
REMARK  Name = ZINC000005830003
REMARK                            x       y       z     vdW  Elec       q    Type
REMARK                         _______ _______ _______ _____ _____    ______ ____
ROOT
ATOM      1  C   LIG    1       -0.848   2.016   1.520  0.00  0.00    -0.330 C 
ATOM      2  N   LIG    1       -0.118   1.522   2.695  0.00  0.00    -0.610 NA
ATOM      3  H   LIG    1       -0.051   0.515   2.682  0.00  0.00    +0.350 HD
ATOM      4  CA  LIG    1       -0.735   1.993   3.941  0.00  0.00    +0.190 C 
ATOM      5  C   LIG    1       -2.165   1.455   4.039  0.00  0.00    +0.150 C 
ATOM      6  C   LIG    1       -2.972   1.941   2.832  0.00  0.00    +0.120 C 
ATOM      7  C   LIG    1       -2.281   1.478   1.546  0.00  0.00    +0.130 C 
ENDROOT
BRANCH   1   9
ATOM      8  O   LIG    1        0.002  -0.004   0.002  0.00  0.00    -1.060 OA
ATOM      9  S   LIG    1       -0.018   1.450   0.010  0.00  0.00    +2.650 S 
ATOM     10  O   LIG    1       -0.752   1.947  -1.143  0.00  0.00    -1.040 OA
ATOM     11  O   LIG    1        1.341   1.970  -0.000  0.00  0.00    -1.050 OA
ENDBRANCH   1   9
BRANCH   6  12
ATOM     12  O   LIG    1       -4.292   1.396   2.889  0.00  0.00    -0.570 OA
ATOM     13  H   LIG    1       -4.859   1.663   2.153  0.00  0.00    +0.380 HD
ENDBRANCH   6  12
BRANCH   5  14
ATOM     14  O   LIG    1       -2.772   1.930   5.242  0.00  0.00    -0.560 OA
ATOM     15  H   LIG    1       -3.681   1.627   5.370  0.00  0.00    +0.380 HD
ENDBRANCH   5  14
BRANCH   7  16
ATOM     16  O   LIG    1       -2.998   1.974   0.414  0.00  0.00    -0.530 OA
ATOM     17  H   LIG    1       -3.916   1.675   0.368  0.00  0.00    +0.370 HD
ENDBRANCH   7  16
BRANCH   4  18
ATOM     18  C   LIG    1        0.080   1.493   5.135  0.00  0.00    +0.190 C 
BRANCH  18  19
ATOM     19  O   LIG    1        1.379   2.089   5.107  0.00  0.00    -0.550 OA
ATOM     20  H   LIG    1        1.952   1.816   5.837  0.00  0.00    +0.370 HD
ENDBRANCH  18  19
ENDBRANCH   4  18
TORSDOF 6
ENDMDL
MODEL      232
REMARK  Name = ZINC000005998328
REMARK                            x       y       z     vdW  Elec       q    Type
REMARK                         _______ _______ _______ _____ _____    ______ ____
ROOT
ATOM      1  C   LIG    1        0.652  -0.570  -1.138  0.00  0.00    +0.280 C 
ATOM      2  O   LIG    1       -0.088  -0.248  -2.317  0.00  0.00    -0.360 OA
ATOM      3  C   LIG    1        0.492  -0.747  -3.524  0.00  0.00    +0.070 C 
ATOM      4  C   LIG    1        0.556  -2.275  -3.464  0.00  0.00    +0.170 C 
ATOM      5  C   LIG    1        1.366  -2.696  -2.234  0.00  0.00    +0.190 C 
ATOM      6  C   LIG    1        0.723  -2.091  -0.982  0.00  0.00    +0.140 C 
ENDROOT
BRANCH   3   7
ATOM      7  C   LIG    1       -0.353  -0.325  -4.699  0.00  0.00    +0.510 C 
ATOM      8  O   LIG    1       -0.031  -0.650  -5.829  0.00  0.00    -0.680 OA
ATOM      9  O   LIG    1       -1.358   0.341  -4.519  0.00  0.00    -0.660 OA
ENDBRANCH   3   7
BRANCH   1  11
ATOM     10  C   LIG    1       -0.017   1.425   0.010  0.00  0.00    +0.220 C 
ATOM     11  O   LIG    1        0.002  -0.004   0.002  0.00  0.00    -0.380 OA
ENDBRANCH   1  11
BRANCH   5  12
ATOM     12  O   LIG    1        1.372  -4.121  -2.130  0.00  0.00    -0.550 OA
ATOM     13  H   LIG    1        1.867  -4.458  -1.371  0.00  0.00    +0.380 HD
ENDBRANCH   5  12
BRANCH   4  14
ATOM     14  O   LIG    1        1.187  -2.773  -4.646  0.00  0.00    -0.560 OA
ATOM     15  H   LIG    1        0.729  -2.540  -5.464  0.00  0.00    +0.400 HD
ENDBRANCH   4  14
BRANCH   6  16
ATOM     16  O   LIG    1        1.511  -2.419   0.165  0.00  0.00    -0.560 OA
ATOM     17  H   LIG    1        1.162  -2.067   0.995  0.00  0.00    +0.390 HD
ENDBRANCH   6  16
TORSDOF 5
ENDMDL
MODEL      233
REMARK  Name = ZINC000022205721
REMARK                            x       y       z     vdW  Elec       q    Type
REMARK                         _______ _______ _______ _____ _____    ______ ____
ROOT
ATOM      1  N   LIG    1       -2.311  -2.721  -0.003  0.00  0.00    -0.590 NA
ENDROOT
BRANCH   1   4
ATOM      2  C   LIG    1        0.002  -0.004   0.002  0.00  0.00    +0.620 A 
ATOM      3  N   LIG    1       -1.140  -0.684   0.004  0.00  0.00    -0.660 NA
ATOM      4  C   LIG    1       -1.122  -2.013  -0.004  0.00  0.00    +0.600 A 
ATOM      5  N   LIG    1        0.037  -2.662  -0.013  0.00  0.00    -0.630 NA
ATOM      6  C   LIG    1        1.180  -1.982  -0.015  0.00  0.00    +0.610 A 
ATOM      7  N   LIG    1        1.162  -0.653  -0.013  0.00  0.00    -0.710 NA
BRANCH   2   8
ATOM      8  N   LIG    1       -0.017   1.376   0.010  0.00  0.00    -0.830 N 
ATOM      9  H   LIG    1       -0.863   1.849   0.016  0.00  0.00    +0.410 HD
ATOM     10  H   LIG    1        0.817   1.872   0.004  0.00  0.00    +0.400 HD
ENDBRANCH   2   8
BRANCH   6  11
ATOM     11  N   LIG    1        2.384  -2.656  -0.025  0.00  0.00    -0.830 N 
ATOM     12  H   LIG    1        3.218  -2.160  -0.027  0.00  0.00    +0.400 HD
ATOM     13  H   LIG    1        2.397  -3.626  -0.031  0.00  0.00    +0.410 HD
ENDBRANCH   6  11
ENDBRANCH   1   4
BRANCH   1  14
ATOM     14  C   LIG    1       -2.292  -4.104  -0.011  0.00  0.00    +0.600 A 
ATOM     15  N   LIG    1       -1.133  -4.753  -0.014  0.00  0.00    -0.630 NA
ATOM     16  C   LIG    1       -1.115  -6.083  -0.022  0.00  0.00    +0.610 A 
ATOM     17  N   LIG    1       -2.257  -6.763  -0.026  0.00  0.00    -0.710 NA
ATOM     18  C   LIG    1       -3.417  -6.114  -0.023  0.00  0.00    +0.620 A 
ATOM     19  N   LIG    1       -3.434  -4.784  -0.010  0.00  0.00    -0.660 NA
BRANCH  18  20
ATOM     20  N   LIG    1       -4.603  -6.819  -0.027  0.00  0.00    -0.830 N 
ATOM     21  H   LIG    1       -5.449  -6.346  -0.024  0.00  0.00    +0.410 HD
ATOM     22  H   LIG    1       -4.590  -7.789  -0.032  0.00  0.00    +0.400 HD
ENDBRANCH  18  20
BRANCH  16  23
ATOM     23  N   LIG    1        0.090  -6.756  -0.025  0.00  0.00    -0.830 N 
ATOM     24  H   LIG    1        0.103  -7.726  -0.031  0.00  0.00    +0.400 HD
ATOM     25  H   LIG    1        0.923  -6.260  -0.022  0.00  0.00    +0.410 HD
ENDBRANCH  16  23
ENDBRANCH   1  14
TORSDOF 6
ENDMDL
MODEL      234
REMARK  Name = ZINC000000098342
REMARK                            x       y       z     vdW  Elec       q    Type
REMARK                         _______ _______ _______ _____ _____    ______ ____
ROOT
ATOM      1  C   LIG    1        2.422   4.018  -0.010  0.00  0.00    +0.270 C 
ATOM      2  C   LIG    1        3.242   3.630   1.228  0.00  0.00    +0.040 C 
ATOM      3  C   LIG    1        3.787   2.231   1.011  0.00  0.00    +0.360 C 
ATOM      4  C   LIG    1        4.387   1.944  -0.359  0.00  0.00    +0.360 C 
ATOM      5  O   LIG    1        5.388   2.958  -0.589  0.00  0.00    -0.380 OA
ATOM      6  C   LIG    1        4.697   4.112  -1.098  0.00  0.00    +0.200 C 
ATOM      7  O   LIG    1        3.332   2.202  -1.317  0.00  0.00    -0.310 OA
ATOM      8  O   LIG    1        3.746   1.390   1.877  0.00  0.00    -0.430 OA
ATOM      9  C   LIG    1        3.206   3.645  -1.274  0.00  0.00    +0.170 C 
ENDROOT
BRANCH   1  15
ATOM     10  O   LIG    1        0.002  -0.004   0.002  0.00  0.00    -0.630 OA
ATOM     11  C   LIG    1       -0.014   1.211   0.009  0.00  0.00    +0.430 A 
ATOM     12  C   LIG    1       -1.304   1.933   0.031  0.00  0.00    -0.020 A 
ATOM     13  C   LIG    1       -1.301   3.278   0.039  0.00  0.00    -0.060 A 
ATOM     14  C   LIG    1       -0.007   3.993   0.024  0.00  0.00    +0.480 A 
ATOM     15  N   LIG    1        1.146   3.298   0.004  0.00  0.00    -0.390 N 
ATOM     16  O   LIG    1        0.015   5.208   0.031  0.00  0.00    -0.610 OA
ATOM     17  N   LIG    1        1.142   1.900   0.001  0.00  0.00    -0.460 NA
ENDBRANCH   1  15
TORSDOF 1
ENDMDL
MODEL      235
REMARK  Name = ZINC000002473625
REMARK                            x       y       z     vdW  Elec       q    Type
REMARK                         _______ _______ _______ _____ _____    ______ ____
ROOT
ATOM      1  C   LIG    1        1.103  -3.751  -2.915  0.00  0.00    +0.280 A 
ATOM      2  N   LIG    1        0.243  -4.571  -2.367  0.00  0.00    -0.320 NA
ATOM      3  N   LIG    1        0.002  -5.819  -2.952  0.00  0.00    -0.570 N 
ATOM      4  H   LIG    1       -0.636  -6.424  -2.542  0.00  0.00    +0.410 HD
ATOM      5  C   LIG    1        0.642  -6.193  -4.074  0.00  0.00    +0.640 A 
ATOM      6  N   LIG    1        1.534  -5.380  -4.670  0.00  0.00    -0.680 NA
ATOM      7  O   LIG    1        0.411  -7.284  -4.559  0.00  0.00    -0.610 OA
ATOM      8  C   LIG    1        1.796  -4.164  -4.147  0.00  0.00    +0.500 A 
ATOM      9  O   LIG    1        2.600  -3.423  -4.680  0.00  0.00    -0.570 OA
ENDROOT
BRANCH   1  10
ATOM     10  N   LIG    1        1.354  -2.503  -2.345  0.00  0.00    -0.690 N 
ATOM     11  H   LIG    1        1.990  -1.899  -2.760  0.00  0.00    +0.420 HD
BRANCH  10  12
ATOM     12  C   LIG    1        0.657  -2.104  -1.120  0.00  0.00    +0.290 C 
ATOM     13  C   LIG    1        1.412  -2.647   0.096  0.00  0.00    +0.050 C 
BRANCH  12  14
ATOM     14  C   LIG    1        0.598  -0.600  -1.043  0.00  0.00    +0.460 C 
ATOM     15  O   LIG    1        1.088   0.070  -1.921  0.00  0.00    -0.500 OA
BRANCH  14  17
ATOM     16  C   LIG    1       -0.018   1.448   0.010  0.00  0.00    +0.250 C 
ATOM     17  O   LIG    1        0.002  -0.004   0.002  0.00  0.00    -0.360 OA
ENDBRANCH  14  17
ENDBRANCH  12  14
ENDBRANCH  10  12
ENDBRANCH   1  10
TORSDOF 4
ENDMDL
MODEL      236
REMARK  Name = ZINC000253417454
REMARK                            x       y       z     vdW  Elec       q    Type
REMARK                         _______ _______ _______ _____ _____    ______ ____
ROOT
ATOM      1  N   LIG    1       -1.219  -2.096  -0.185  0.00  0.00    -0.530 NA
ATOM      2  C   LIG    1       -0.597  -2.673  -1.385  0.00  0.00    +0.150 C 
ATOM      3  C   LIG    1       -0.637  -4.202  -1.292  0.00  0.00    +0.290 C 
ATOM      4  N   LIG    1       -2.027  -4.619  -1.051  0.00  0.00    -0.600 N 
ATOM      5  C   LIG    1       -2.763  -3.983   0.052  0.00  0.00    +0.210 C 
ATOM      6  C   LIG    1       -4.236  -4.391  -0.010  0.00  0.00    +0.040 C 
ATOM      7  C   LIG    1       -2.610  -5.560  -1.820  0.00  0.00    +0.450 C 
ATOM      8  O   LIG    1       -3.741  -5.927  -1.576  0.00  0.00    -0.540 OA
ATOM      9  C   LIG    1       -2.639  -2.462  -0.093  0.00  0.00    +0.160 C 
ENDROOT
BRANCH   7  10
ATOM     10  C   LIG    1       -1.864  -6.151  -2.975  0.00  0.00    +0.500 C 
ATOM     11  O   LIG    1       -0.688  -5.874  -3.148  0.00  0.00    -0.650 OA
ATOM     12  O   LIG    1       -2.431  -6.910  -3.744  0.00  0.00    -0.640 OA
ENDBRANCH   7  10
BRANCH   1  13
ATOM     13  C   LIG    1       -1.048  -0.638  -0.153  0.00  0.00    +0.180 C 
BRANCH  13  15
ATOM     14  C   LIG    1        0.579   1.233  -0.465  0.00  0.00    +0.000 C 
ATOM     15  C   LIG    1        0.400  -0.286  -0.499  0.00  0.00    +0.160 C 
BRANCH  15  16
ATOM     16  O   LIG    1        1.278  -0.890   0.454  0.00  0.00    -0.550 OA
ATOM     17  H   LIG    1        2.214  -0.709   0.296  0.00  0.00    +0.370 HD
ENDBRANCH  15  16
ENDBRANCH  13  15
ENDBRANCH   1  13
TORSDOF 4
ENDMDL
MODEL      237
REMARK  Name = ZINC000253417455
REMARK                            x       y       z     vdW  Elec       q    Type
REMARK                         _______ _______ _______ _____ _____    ______ ____
ROOT
ATOM      1  N   LIG    1       -1.615  -1.838  -0.440  0.00  0.00    -0.530 NA
ATOM      2  C   LIG    1       -1.199  -2.074   0.949  0.00  0.00    +0.160 C 
ATOM      3  C   LIG    1       -1.105  -3.582   1.201  0.00  0.00    +0.280 C 
ATOM      4  N   LIG    1       -2.385  -4.200   0.823  0.00  0.00    -0.600 N 
ATOM      5  C   LIG    1       -2.937  -3.899  -0.507  0.00  0.00    +0.210 C 
ATOM      6  C   LIG    1       -4.359  -4.454  -0.612  0.00  0.00    +0.040 C 
ATOM      7  C   LIG    1       -3.036  -5.020   1.672  0.00  0.00    +0.450 C 
ATOM      8  O   LIG    1       -4.055  -5.574   1.318  0.00  0.00    -0.540 OA
ATOM      9  C   LIG    1       -2.958  -2.378  -0.693  0.00  0.00    +0.160 C 
ENDROOT
BRANCH   7  10
ATOM     10  C   LIG    1       -2.500  -5.246   3.051  0.00  0.00    +0.500 C 
ATOM     11  O   LIG    1       -1.419  -4.779   3.370  0.00  0.00    -0.650 OA
ATOM     12  O   LIG    1       -3.145  -5.897   3.857  0.00  0.00    -0.640 OA
ENDBRANCH   7  10
BRANCH   1  13
ATOM     13  C   LIG    1       -1.552  -0.409  -0.773  0.00  0.00    +0.180 C 
BRANCH  13  15
ATOM     14  C   LIG    1       -1.714   1.259  -2.627  0.00  0.00    -0.010 C 
ATOM     15  C   LIG    1       -1.674  -0.233  -2.288  0.00  0.00    +0.150 C 
BRANCH  15  16
ATOM     16  O   LIG    1       -0.550  -0.837  -2.931  0.00  0.00    -0.550 OA
ATOM     17  H   LIG    1       -0.562  -0.764  -3.895  0.00  0.00    +0.370 HD
ENDBRANCH  15  16
ENDBRANCH  13  15
ENDBRANCH   1  13
TORSDOF 4
ENDMDL
MODEL      238
REMARK  Name = ZINC000005127809
REMARK                            x       y       z     vdW  Elec       q    Type
REMARK                         _______ _______ _______ _____ _____    ______ ____
ROOT
ATOM      1  C   LIG    1        0.002  -0.004   0.002  0.00  0.00    +0.650 A 
ATOM      2  N   LIG    1       -1.143  -0.644   0.004  0.00  0.00    -0.570 NA
ATOM      3  C   LIG    1       -1.205  -1.985  -0.003  0.00  0.00    +0.340 A 
ATOM      4  N   LIG    1       -2.376  -2.626  -0.002  0.00  0.00    -0.460 NA
ATOM      5  C   LIG    1       -2.399  -3.943  -0.009  0.00  0.00    +0.340 A 
ATOM      6  CA  LIG    1       -1.204  -4.677  -0.019  0.00  0.00    +0.010 A 
ATOM      7  N   LIG    1       -0.032  -4.050  -0.021  0.00  0.00    -0.330 NA
ATOM      8  C   LIG    1        0.002  -2.731  -0.014  0.00  0.00    -0.070 A 
ATOM      9  C   LIG    1        1.276  -1.988  -0.016  0.00  0.00    +0.580 A 
ATOM     10  O   LIG    1        2.346  -2.567  -0.024  0.00  0.00    -0.480 OA
ATOM     11  N   LIG    1        1.210  -0.636  -0.013  0.00  0.00    -0.670 N 
ATOM     12  H   LIG    1        2.027  -0.113  -0.014  0.00  0.00    +0.410 HD
ENDROOT
BRANCH   1  13
ATOM     13  N   LIG    1       -0.017   1.364   0.009  0.00  0.00    -0.820 N 
ATOM     14  H   LIG    1       -0.863   1.838   0.016  0.00  0.00    +0.430 HD
ATOM     15  H   LIG    1        0.817   1.861   0.004  0.00  0.00    +0.410 HD
ENDBRANCH   1  13
BRANCH   6  16
ATOM     16  C   LIG    1       -1.248  -6.152  -0.028  0.00  0.00    +0.540 C 
ATOM     17  OXT LIG    1       -0.208  -6.795  -0.036  0.00  0.00    -0.650 OA
ATOM     18  O   LIG    1       -2.325  -6.732  -0.026  0.00  0.00    -0.670 OA
ENDBRANCH   6  16
TORSDOF 2
ENDMDL
MODEL      239
REMARK  Name = ZINC000008672837
REMARK                            x       y       z     vdW  Elec       q    Type
REMARK                         _______ _______ _______ _____ _____    ______ ____
ROOT
ATOM      1  CA  LIG    1       -1.298   1.937   0.019  0.00  0.00    +0.040 A 
ATOM      2  N   LIG    1       -2.437   1.264   0.026  0.00  0.00    -0.310 NA
ATOM      3  C   LIG    1       -3.597   1.903   0.035  0.00  0.00    -0.110 A 
ATOM      4  C   LIG    1       -3.656   3.309   0.037  0.00  0.00    +0.400 A 
ATOM      5  N   LIG    1       -2.514   4.042   0.029  0.00  0.00    -0.610 N 
ATOM      6  H   LIG    1       -2.553   5.011   0.030  0.00  0.00    +0.410 HD
ATOM      7  N   LIG    1       -4.877   3.920   0.045  0.00  0.00    -0.630 N 
ATOM      8  H   LIG    1       -4.926   4.888   0.047  0.00  0.00    +0.430 HD
ATOM      9  C   LIG    1       -6.012   3.203   0.053  0.00  0.00    +0.720 A 
ATOM     10  N   LIG    1       -6.023   1.860   0.051  0.00  0.00    -0.660 N 
ATOM     11  H   LIG    1       -6.871   1.389   0.057  0.00  0.00    +0.440 HD
ATOM     12  O   LIG    1       -7.074   3.793   0.060  0.00  0.00    -0.540 OA
ATOM     13  C   LIG    1       -4.871   1.156   0.043  0.00  0.00    +0.580 A 
ATOM     14  O   LIG    1       -4.882  -0.060   0.042  0.00  0.00    -0.460 OA
ATOM     15  C   LIG    1       -1.323   3.405   0.027  0.00  0.00    +0.500 A 
ATOM     16  O   LIG    1       -0.284   4.040   0.020  0.00  0.00    -0.450 OA
ENDROOT
BRANCH   1  18
ATOM     17  O   LIG    1        0.002  -0.004   0.002  0.00  0.00    -0.650 OA
ATOM     18  C   LIG    1       -0.015   1.220   0.009  0.00  0.00    +0.540 C 
ATOM     19  OXT LIG    1        1.037   1.846   0.002  0.00  0.00    -0.650 OA
ENDBRANCH   1  18
TORSDOF 1
ENDMDL
MODEL      240
REMARK  Name = ZINC000253536167
REMARK                            x       y       z     vdW  Elec       q    Type
REMARK                         _______ _______ _______ _____ _____    ______ ____
ROOT
ATOM      1  C   LIG    1       -0.018   1.461   0.010  0.00  0.00    +0.300 C 
ATOM      2  N   LIG    1        0.002  -0.004   0.002  0.00  0.00    -0.550 N 
ATOM      3  C   LIG    1       -1.168  -0.700   0.004  0.00  0.00    +0.580 A 
ATOM      4  N   LIG    1       -1.191  -2.014  -0.003  0.00  0.00    -0.570 NA
ATOM      5  C   LIG    1       -0.057  -2.729  -0.013  0.00  0.00    +0.240 A 
ATOM      6  C   LIG    1        1.167  -2.071  -0.015  0.00  0.00    -0.010 A 
ATOM      7  N   LIG    1        2.362  -2.785  -0.025  0.00  0.00    -0.610 NA
ATOM      8  C   LIG    1        2.338  -4.135  -0.032  0.00  0.00    +0.450 A 
ATOM      9  C   LIG    1        1.022  -4.835  -0.029  0.00  0.00    +0.440 A 
ATOM     10  O   LIG    1        0.973  -6.048  -0.035  0.00  0.00    -0.540 OA
ATOM     11  O   LIG    1        3.374  -4.770  -0.040  0.00  0.00    -0.560 OA
ATOM     12  N   LIG    1       -0.114  -4.108  -0.019  0.00  0.00    -0.500 N 
ATOM     13  C   LIG    1       -1.413  -4.785  -0.017  0.00  0.00    +0.280 C 
ATOM     14  C   LIG    1        1.181  -0.662  -0.013  0.00  0.00    +0.560 A 
ATOM     15  O   LIG    1        2.236  -0.050  -0.015  0.00  0.00    -0.520 OA
ENDROOT
BRANCH   3  16
ATOM     16  N   LIG    1       -2.354  -0.011   0.013  0.00  0.00    -0.840 N 
ATOM     17  H   LIG    1       -3.195  -0.494   0.014  0.00  0.00    +0.420 HD
ATOM     18  H   LIG    1       -2.352   0.959   0.018  0.00  0.00    +0.410 HD
ENDBRANCH   3  16
TORSDOF 1
ENDMDL
MODEL      241
REMARK  Name = ZINC000096603197
REMARK                            x       y       z     vdW  Elec       q    Type
REMARK                         _______ _______ _______ _____ _____    ______ ____
ROOT
ATOM      1  C   LIG    1       -4.124  -0.264   1.025  0.00  0.00    +0.560 C 
ATOM      2  N   LIG    1       -3.322  -0.906   0.153  0.00  0.00    -0.600 N 
ATOM      3  H   LIG    1       -2.820  -0.402  -0.507  0.00  0.00    +0.370 HD
ATOM      4  O   LIG    1       -4.821  -0.899   1.791  0.00  0.00    -0.450 OA
ENDROOT
BRANCH   2   5
ATOM      5  N   LIG    1       -3.215  -2.268   0.199  0.00  0.00    -0.290 NA
ATOM      6  C   LIG    1       -1.859  -2.677   0.590  0.00  0.00    +0.140 C 
ATOM      7  C   LIG    1       -1.800  -4.204   0.686  0.00  0.00    +0.240 C 
ATOM      8  O   LIG    1       -2.197  -4.771  -0.565  0.00  0.00    -0.390 OA
ATOM      9  C   LIG    1       -3.514  -4.393  -0.977  0.00  0.00    +0.230 C 
ATOM     10  C   LIG    1       -3.590  -2.869  -1.090  0.00  0.00    +0.130 C 
ENDBRANCH   2   5
BRANCH   1  12
ATOM     11  C   LIG    1       -4.681   1.857   2.105  0.00  0.00    +0.000 C 
ATOM     12  C   LIG    1       -4.155   1.214   1.050  0.00  0.00    -0.100 C 
BRANCH  11  14
ATOM     13  O   LIG    1       -4.162   0.125   3.588  0.00  0.00    -0.650 OA
ATOM     14  C   LIG    1       -4.722   1.199   3.423  0.00  0.00    +0.500 C 
ATOM     15  O   LIG    1       -5.313   1.730   4.353  0.00  0.00    -0.700 OA
ENDBRANCH  11  14
ENDBRANCH   1  12
TORSDOF 3
ENDMDL
MODEL      242
REMARK  Name = ZINC000000153334
REMARK                            x       y       z     vdW  Elec       q    Type
REMARK                         _______ _______ _______ _____ _____    ______ ____
ROOT
ATOM      1  C   LIG    1       -4.751   0.523   0.027  0.00  0.00    +0.520 C 
ATOM      2  N   LIG    1       -6.058   0.853   0.035  0.00  0.00    -0.720 N 
ATOM      3  H   LIG    1       -6.323   1.786   0.042  0.00  0.00    +0.400 HD
ATOM      4  O   LIG    1       -4.420  -0.643   0.019  0.00  0.00    -0.510 OA
ENDROOT
BRANCH   2   5
ATOM      5  C   LIG    1       -7.079  -0.198   0.035  0.00  0.00    +0.240 C 
ATOM      6  C   LIG    1       -8.374   0.343   0.644  0.00  0.00    +0.040 C 
ATOM      7  C   LIG    1       -9.216  -0.787   1.210  0.00  0.00    +0.020 C 
ATOM      8  C   LIG    1       -9.759  -1.733   0.155  0.00  0.00    +0.010 C 
ATOM      9  C   LIG    1       -8.626  -2.518  -0.509  0.00  0.00    +0.270 C 
ATOM     10  N   LIG    1       -8.092  -1.722  -1.625  0.00  0.00    -0.720 N 
ATOM     11  H   LIG    1       -8.273  -1.991  -2.540  0.00  0.00    +0.400 HD
ATOM     12  C   LIG    1       -7.358  -0.635  -1.388  0.00  0.00    +0.510 C 
ATOM     13  O   LIG    1       -6.918   0.012  -2.315  0.00  0.00    -0.540 OA
ENDBRANCH   2   5
BRANCH   1  14
ATOM     14  C   LIG    1       -3.701   1.604   0.028  0.00  0.00    +0.180 C 
BRANCH  14  15
ATOM     15  O   LIG    1       -2.403   1.007   0.019  0.00  0.00    -0.330 OA
BRANCH  15  16
ATOM     16  C   LIG    1       -1.330   1.951   0.019  0.00  0.00    +0.100 C 
BRANCH  16  18
ATOM     17  O   LIG    1        0.002  -0.004   0.002  0.00  0.00    -0.670 OA
ATOM     18  C   LIG    1       -0.015   1.215   0.009  0.00  0.00    +0.500 C 
ATOM     19  O   LIG    1        1.033   1.839   0.002  0.00  0.00    -0.700 OA
ENDBRANCH  16  18
ENDBRANCH  15  16
ENDBRANCH  14  15
ENDBRANCH   1  14
TORSDOF 5
ENDMDL
MODEL      243
REMARK  Name = ZINC000005273555
REMARK                            x       y       z     vdW  Elec       q    Type
REMARK                         _______ _______ _______ _____ _____    ______ ____
ROOT
ATOM      1  N   LIG    1       -1.372  -0.511   0.012  0.00  0.00    -0.690 N 
ATOM      2  H   LIG    1       -1.810  -0.743  -0.822  0.00  0.00    +0.410 HD
ATOM      3  C   LIG    1       -2.029  -0.655   1.181  0.00  0.00    +0.500 C 
ATOM      4  O   LIG    1       -1.481  -0.365   2.224  0.00  0.00    -0.550 OA
ENDROOT
BRANCH   3   5
ATOM      5  CA  LIG    1       -3.442  -1.177   1.191  0.00  0.00    +0.220 C 
ATOM      6  C   LIG    1       -3.444  -2.718   1.088  0.00  0.00    +0.070 C 
ATOM      7  C   LIG    1       -4.647  -3.093   1.985  0.00  0.00    +0.070 C 
ATOM      8  C   LIG    1       -4.775  -1.926   2.939  0.00  0.00    +0.520 C 
ATOM      9  O   LIG    1       -5.407  -1.942   3.975  0.00  0.00    -0.540 OA
ATOM     10  N   LIG    1       -4.088  -0.868   2.473  0.00  0.00    -0.710 N 
ATOM     11  H   LIG    1       -4.026  -0.012   2.926  0.00  0.00    +0.410 HD
ENDBRANCH   3   5
BRANCH   1  13
ATOM     12  CB  LIG    1       -0.019   1.526   0.010  0.00  0.00    +0.020 C 
ATOM     13  CA  LIG    1        0.002  -0.004   0.002  0.00  0.00    +0.150 C 
BRANCH  13  14
ATOM     14  C   LIG    1        0.707  -0.490  -1.238  0.00  0.00    +0.500 C 
ATOM     15  OXT LIG    1        0.073  -0.696  -2.259  0.00  0.00    -0.690 OA
ATOM     16  O   LIG    1        1.912  -0.677  -1.220  0.00  0.00    -0.690 OA
ENDBRANCH  13  14
ENDBRANCH   1  13
TORSDOF 3
ENDMDL
MODEL      244
REMARK  Name = ZINC000012297001
REMARK                            x       y       z     vdW  Elec       q    Type
REMARK                         _______ _______ _______ _____ _____    ______ ____
ROOT
ATOM      1  C   LIG    1        0.002  -0.004   0.002  0.00  0.00    +0.650 A 
ATOM      2  N   LIG    1       -1.138  -0.663   0.004  0.00  0.00    -0.610 NA
ATOM      3  C   LIG    1       -1.163  -2.000  -0.004  0.00  0.00    +0.430 A 
ATOM      4  C   LIG    1        0.028  -2.706  -0.014  0.00  0.00    -0.280 A 
ATOM      5  C   LIG    1        0.017  -4.210  -0.023  0.00  0.00    +0.010 C 
ATOM      6  C   LIG    1       -1.194  -4.706  -0.816  0.00  0.00    +0.090 C 
ATOM      7  C   LIG    1       -2.430  -3.971  -0.371  0.00  0.00    +0.540 C 
ATOM      8  O   LIG    1       -3.494  -4.552  -0.346  0.00  0.00    -0.520 OA
ATOM      9  C   LIG    1        1.236  -2.003  -0.016  0.00  0.00    +0.560 A 
ATOM     10  O   LIG    1        2.303  -2.596  -0.025  0.00  0.00    -0.530 OA
ATOM     11  N   LIG    1       -2.369  -2.679  -0.001  0.00  0.00    -0.640 N 
ATOM     12  H   LIG    1       -3.179  -2.219   0.270  0.00  0.00    +0.410 HD
ATOM     13  N   LIG    1        1.198  -0.653  -0.013  0.00  0.00    -0.650 N 
ATOM     14  H   LIG    1        2.025  -0.145  -0.015  0.00  0.00    +0.410 HD
ENDROOT
BRANCH   1  15
ATOM     15  N   LIG    1       -0.017   1.365   0.009  0.00  0.00    -0.830 N 
ATOM     16  H   LIG    1       -0.863   1.839   0.016  0.00  0.00    +0.430 HD
ATOM     17  H   LIG    1        0.817   1.861   0.004  0.00  0.00    +0.410 HD
ENDBRANCH   1  15
BRANCH   5  18
ATOM     18  C   LIG    1       -0.067  -4.721   1.393  0.00  0.00    +0.500 C 
ATOM     19  O   LIG    1        0.416  -4.071   2.304  0.00  0.00    -0.680 OA
ATOM     20  O   LIG    1       -0.617  -5.784   1.626  0.00  0.00    -0.690 OA
ENDBRANCH   5  18
TORSDOF 2
ENDMDL
MODEL      245
REMARK  Name = ZINC000012297000
REMARK                            x       y       z     vdW  Elec       q    Type
REMARK                         _______ _______ _______ _____ _____    ______ ____
ROOT
ATOM      1  C   LIG    1        0.002  -0.004   0.002  0.00  0.00    +0.650 A 
ATOM      2  N   LIG    1       -1.138  -0.663   0.004  0.00  0.00    -0.610 NA
ATOM      3  C   LIG    1       -1.163  -2.000  -0.004  0.00  0.00    +0.450 A 
ATOM      4  C   LIG    1        0.028  -2.706  -0.014  0.00  0.00    -0.290 A 
ATOM      5  C   LIG    1        0.017  -4.211  -0.022  0.00  0.00    +0.000 C 
ATOM      6  C   LIG    1       -1.186  -4.715   0.777  0.00  0.00    +0.080 C 
ATOM      7  C   LIG    1       -2.426  -3.975   0.353  0.00  0.00    +0.550 C 
ATOM      8  O   LIG    1       -3.491  -4.556   0.332  0.00  0.00    -0.530 OA
ATOM      9  C   LIG    1        1.236  -2.003  -0.016  0.00  0.00    +0.560 A 
ATOM     10  O   LIG    1        2.303  -2.596  -0.025  0.00  0.00    -0.530 OA
ATOM     11  N   LIG    1       -2.369  -2.679  -0.002  0.00  0.00    -0.630 N 
ATOM     12  H   LIG    1       -3.182  -2.216  -0.260  0.00  0.00    +0.410 HD
ATOM     13  N   LIG    1        1.198  -0.653  -0.013  0.00  0.00    -0.650 N 
ATOM     14  H   LIG    1        2.025  -0.145  -0.015  0.00  0.00    +0.410 HD
ENDROOT
BRANCH   1  15
ATOM     15  N   LIG    1       -0.017   1.365   0.009  0.00  0.00    -0.820 N 
ATOM     16  H   LIG    1       -0.863   1.839   0.016  0.00  0.00    +0.430 HD
ATOM     17  H   LIG    1        0.817   1.861   0.004  0.00  0.00    +0.410 HD
ENDBRANCH   1  15
BRANCH   5  18
ATOM     18  C   LIG    1       -0.081  -4.705  -1.442  0.00  0.00    +0.500 C 
ATOM     19  O   LIG    1       -0.809  -4.136  -2.237  0.00  0.00    -0.690 OA
ATOM     20  O   LIG    1        0.569  -5.673  -1.797  0.00  0.00    -0.690 OA
ENDBRANCH   5  18
TORSDOF 2
ENDMDL
MODEL      246
REMARK  Name = ZINC000095172634
REMARK                            x       y       z     vdW  Elec       q    Type
REMARK                         _______ _______ _______ _____ _____    ______ ____
ROOT
ATOM      1  N   LIG    1       -1.376  -0.512   0.012  0.00  0.00    -0.540 NA
ATOM      2  C   LIG    1       -2.192   0.199   1.006  0.00  0.00    +0.170 C 
ATOM      3  C   LIG    1       -3.656  -0.231   0.861  0.00  0.00    +0.280 C 
ATOM      4  N   LIG    1       -3.722  -1.698   0.937  0.00  0.00    -0.630 N 
ATOM      5  C   LIG    1       -2.832  -2.481   0.067  0.00  0.00    +0.280 C 
ATOM      6  C   LIG    1       -4.577  -2.309   1.782  0.00  0.00    +0.520 C 
ATOM      7  O   LIG    1       -5.304  -1.648   2.492  0.00  0.00    -0.520 OA
ATOM      8  C   LIG    1       -1.400  -1.963   0.243  0.00  0.00    +0.170 C 
ENDROOT
BRANCH   1  10
ATOM      9  C   LIG    1       -0.019   1.526   0.010  0.00  0.00    +0.020 C 
ATOM     10  C   LIG    1        0.002  -0.004   0.002  0.00  0.00    +0.160 C 
ENDBRANCH   1  10
BRANCH   6  11
ATOM     11  C   LIG    1       -4.628  -3.814   1.844  0.00  0.00    +0.180 C 
BRANCH  11  12
ATOM     12  C   LIG    1       -5.657  -4.240   2.859  0.00  0.00    +0.070 A 
ATOM     13  N   LIG    1       -5.452  -4.452   4.151  0.00  0.00    -0.380 NA
ATOM     14  N   LIG    1       -6.578  -4.801   4.672  0.00  0.00    -0.200 NA
ATOM     15  N   LIG    1       -7.480  -4.814   3.753  0.00  0.00    -0.200 NA
ATOM     16  N   LIG    1       -6.942  -4.469   2.633  0.00  0.00    -0.380 NA
ENDBRANCH  11  12
ENDBRANCH   6  11
TORSDOF 3
ENDMDL
MODEL      247
REMARK  Name = ZINC000095189085
REMARK                            x       y       z     vdW  Elec       q    Type
REMARK                         _______ _______ _______ _____ _____    ______ ____
ROOT
ATOM      1  C   LIG    1       -0.018   1.465   0.010  0.00  0.00    +0.190 C 
ATOM      2  N   LIG    1        0.002  -0.004   0.002  0.00  0.00    -0.540 NA
ATOM      3  C   LIG    1       -1.359  -0.548  -0.091  0.00  0.00    +0.160 C 
ATOM      4  C   LIG    1       -1.286  -2.068  -0.279  0.00  0.00    +0.280 C 
ATOM      5  N   LIG    1       -0.463  -2.633   0.801  0.00  0.00    -0.630 N 
ATOM      6  C   LIG    1        0.864  -2.046   1.044  0.00  0.00    +0.280 C 
ATOM      7  C   LIG    1       -0.911  -3.662   1.546  0.00  0.00    +0.520 C 
ATOM      8  O   LIG    1       -2.007  -4.135   1.331  0.00  0.00    -0.520 OA
ATOM      9  C   LIG    1        0.706  -0.527   1.180  0.00  0.00    +0.170 C 
ENDROOT
BRANCH   7  10
ATOM     10  C   LIG    1       -0.051  -4.226   2.647  0.00  0.00    +0.180 C 
BRANCH  10  11
ATOM     11  C   LIG    1       -0.778  -5.360   3.323  0.00  0.00    +0.070 A 
ATOM     12  N   LIG    1       -1.595  -5.267   4.362  0.00  0.00    -0.380 NA
ATOM     13  N   LIG    1       -2.012  -6.455   4.638  0.00  0.00    -0.200 NA
ATOM     14  N   LIG    1       -1.485  -7.287   3.808  0.00  0.00    -0.200 NA
ATOM     15  N   LIG    1       -0.728  -6.641   2.989  0.00  0.00    -0.380 NA
ENDBRANCH  10  11
ENDBRANCH   7  10
TORSDOF 2
ENDMDL
MODEL      248
REMARK  Name = ZINC000000356302
REMARK                            x       y       z     vdW  Elec       q    Type
REMARK                         _______ _______ _______ _____ _____    ______ ____
ROOT
ATOM      1  N   LIG    1       -4.915   0.721   0.029  0.00  0.00    -0.630 N 
ATOM      2  C   LIG    1       -5.537   0.176  -1.059  0.00  0.00    +0.720 C 
ATOM      3  N   LIG    1       -6.726  -0.428  -0.722  0.00  0.00    -0.730 N 
ATOM      4  H   LIG    1       -7.241  -1.066  -1.240  0.00  0.00    +0.430 HD
ATOM      5  C   LIG    1       -7.022   0.097   0.548  0.00  0.00    +0.370 C 
ATOM      6  N   LIG    1       -7.814  -0.117   1.685  0.00  0.00    -0.720 N 
ATOM      7  H   LIG    1       -8.615  -0.659   1.756  0.00  0.00    +0.430 HD
ATOM      8  C   LIG    1       -7.203   0.612   2.674  0.00  0.00    +0.730 C 
ATOM      9  N   LIG    1       -5.946   1.008   2.319  0.00  0.00    -0.740 N 
ATOM     10  H   LIG    1       -5.410   1.704   2.732  0.00  0.00    +0.430 HD
ATOM     11  O   LIG    1       -7.721   0.874   3.743  0.00  0.00    -0.550 OA
ATOM     12  O   LIG    1       -5.092   0.220  -2.189  0.00  0.00    -0.530 OA
ATOM     13  C   LIG    1       -5.575   0.129   1.195  0.00  0.00    +0.430 C 
ENDROOT
BRANCH   1  14
ATOM     14  C   LIG    1       -3.814   1.688   0.029  0.00  0.00    +0.310 C 
BRANCH  14  15
ATOM     15  C   LIG    1       -2.479   0.941   0.019  0.00  0.00    +0.020 C 
BRANCH  15  16
ATOM     16  C   LIG    1       -1.330   1.951   0.019  0.00  0.00    -0.060 C 
BRANCH  16  18
ATOM     17  O   LIG    1        0.002  -0.004   0.002  0.00  0.00    -0.700 OA
ATOM     18  C   LIG    1       -0.015   1.215   0.009  0.00  0.00    +0.490 C 
ATOM     19  O   LIG    1        1.033   1.839   0.002  0.00  0.00    -0.710 OA
ENDBRANCH  16  18
ENDBRANCH  15  16
ENDBRANCH  14  15
ENDBRANCH   1  14
TORSDOF 4
ENDMDL
MODEL      249
REMARK  Name = ZINC000000356304
REMARK                            x       y       z     vdW  Elec       q    Type
REMARK                         _______ _______ _______ _____ _____    ______ ____
ROOT
ATOM      1  N   LIG    1       -4.915   0.721   0.029  0.00  0.00    -0.630 N 
ATOM      2  C   LIG    1       -5.498   0.211  -1.063  0.00  0.00    +0.700 C 
ATOM      3  N   LIG    1       -6.483  -0.656  -0.799  0.00  0.00    -0.740 N 
ATOM      4  H   LIG    1       -7.014  -1.121  -1.464  0.00  0.00    +0.430 HD
ATOM      5  C   LIG    1       -6.635  -0.792   0.656  0.00  0.00    +0.470 C 
ATOM      6  N   LIG    1       -6.200  -2.132   1.075  0.00  0.00    -0.740 N 
ATOM      7  H   LIG    1       -6.667  -2.960   0.880  0.00  0.00    +0.430 HD
ATOM      8  C   LIG    1       -5.059  -2.032   1.769  0.00  0.00    +0.710 C 
ATOM      9  N   LIG    1       -4.614  -0.776   1.903  0.00  0.00    -0.730 N 
ATOM     10  H   LIG    1       -3.806  -0.515   2.373  0.00  0.00    +0.440 HD
ATOM     11  O   LIG    1       -4.480  -2.994   2.234  0.00  0.00    -0.570 OA
ATOM     12  O   LIG    1       -5.162   0.509  -2.193  0.00  0.00    -0.570 OA
ATOM     13  C   LIG    1       -5.547   0.153   1.228  0.00  0.00    +0.470 C 
ENDROOT
BRANCH   1  14
ATOM     14  C   LIG    1       -3.814   1.688   0.029  0.00  0.00    +0.310 C 
BRANCH  14  15
ATOM     15  C   LIG    1       -2.479   0.941   0.019  0.00  0.00    +0.010 C 
BRANCH  15  16
ATOM     16  C   LIG    1       -1.330   1.951   0.019  0.00  0.00    -0.060 C 
BRANCH  16  18
ATOM     17  O   LIG    1        0.002  -0.004   0.002  0.00  0.00    -0.700 OA
ATOM     18  C   LIG    1       -0.015   1.215   0.009  0.00  0.00    +0.490 C 
ATOM     19  O   LIG    1        1.033   1.839   0.002  0.00  0.00    -0.710 OA
ENDBRANCH  16  18
ENDBRANCH  15  16
ENDBRANCH  14  15
ENDBRANCH   1  14
TORSDOF 4
ENDMDL
MODEL      250
REMARK  Name = ZINC000000356305
REMARK                            x       y       z     vdW  Elec       q    Type
REMARK                         _______ _______ _______ _____ _____    ______ ____
ROOT
ATOM      1  N   LIG    1       -4.915   0.721   0.029  0.00  0.00    -0.630 N 
ATOM      2  C   LIG    1       -5.537   0.176  -1.059  0.00  0.00    +0.720 C 
ATOM      3  N   LIG    1       -6.288  -0.927  -0.723  0.00  0.00    -0.720 N 
ATOM      4  H   LIG    1       -6.989  -1.354  -1.241  0.00  0.00    +0.430 HD
ATOM      5  C   LIG    1       -5.802  -1.291   0.544  0.00  0.00    +0.380 C 
ATOM      6  N   LIG    1       -6.112  -2.052   1.680  0.00  0.00    -0.720 N 
ATOM      7  H   LIG    1       -6.752  -2.778   1.751  0.00  0.00    +0.430 HD
ATOM      8  C   LIG    1       -5.309  -1.543   2.669  0.00  0.00    +0.730 C 
ATOM      9  N   LIG    1       -4.755  -0.345   2.315  0.00  0.00    -0.740 N 
ATOM     10  H   LIG    1       -3.996   0.096   2.728  0.00  0.00    +0.440 HD
ATOM     11  O   LIG    1       -5.112  -2.094   3.735  0.00  0.00    -0.540 OA
ATOM     12  O   LIG    1       -5.439   0.614  -2.188  0.00  0.00    -0.540 OA
ATOM     13  C   LIG    1       -5.575   0.129   1.195  0.00  0.00    +0.430 C 
ENDROOT
BRANCH   1  14
ATOM     14  C   LIG    1       -3.814   1.688   0.029  0.00  0.00    +0.310 C 
BRANCH  14  15
ATOM     15  C   LIG    1       -2.479   0.941   0.019  0.00  0.00    +0.010 C 
BRANCH  15  16
ATOM     16  C   LIG    1       -1.330   1.951   0.019  0.00  0.00    -0.060 C 
BRANCH  16  18
ATOM     17  O   LIG    1        0.002  -0.004   0.002  0.00  0.00    -0.700 OA
ATOM     18  C   LIG    1       -0.015   1.215   0.009  0.00  0.00    +0.490 C 
ATOM     19  O   LIG    1        1.033   1.839   0.002  0.00  0.00    -0.710 OA
ENDBRANCH  16  18
ENDBRANCH  15  16
ENDBRANCH  14  15
ENDBRANCH   1  14
TORSDOF 4
ENDMDL
MODEL      251
REMARK  Name = ZINC000000359169
REMARK                            x       y       z     vdW  Elec       q    Type
REMARK                         _______ _______ _______ _____ _____    ______ ____
ROOT
ATOM      1  C   LIG    1       -3.794   1.676   0.029  0.00  0.00    +0.520 C 
ATOM      2  N   LIG    1       -4.952   0.987   0.031  0.00  0.00    -0.630 N 
ATOM      3  C   LIG    1       -6.254   1.675   0.035  0.00  0.00    +0.280 C 
ATOM      4  C   LIG    1       -7.003   1.287  -1.242  0.00  0.00    +0.260 C 
ATOM      5  N   LIG    1       -6.944  -0.152  -1.458  0.00  0.00    -0.720 N 
ATOM      6  H   LIG    1       -7.625  -0.552  -2.021  0.00  0.00    +0.400 HD
ATOM      7  C   LIG    1       -6.019  -0.959  -0.935  0.00  0.00    +0.520 C 
ATOM      8  O   LIG    1       -6.027  -2.130  -1.252  0.00  0.00    -0.550 OA
ATOM      9  C   LIG    1       -4.967  -0.484   0.023  0.00  0.00    +0.330 C 
ATOM     10  O   LIG    1       -3.811   2.889   0.036  0.00  0.00    -0.530 OA
ENDROOT
BRANCH   1  11
ATOM     11  C   LIG    1       -2.479   0.941   0.019  0.00  0.00    +0.080 C 
BRANCH  11  12
ATOM     12  C   LIG    1       -1.330   1.951   0.019  0.00  0.00    -0.050 C 
BRANCH  12  14
ATOM     13  O   LIG    1        0.002  -0.004   0.002  0.00  0.00    -0.700 OA
ATOM     14  C   LIG    1       -0.015   1.215   0.009  0.00  0.00    +0.490 C 
ATOM     15  O   LIG    1        1.033   1.839   0.002  0.00  0.00    -0.700 OA
ENDBRANCH  12  14
ENDBRANCH  11  12
ENDBRANCH   1  11
TORSDOF 3
ENDMDL
MODEL      252
REMARK  Name = ZINC000026421509
REMARK                            x       y       z     vdW  Elec       q    Type
REMARK                         _______ _______ _______ _____ _____    ______ ____
ROOT
ATOM      1  C   LIG    1       -0.018   1.503   0.010  0.00  0.00    +0.090 C 
ATOM      2  C   LIG    1        0.002  -0.004   0.002  0.00  0.00    +0.530 C 
ATOM      3  N   LIG    1       -1.156  -0.694   0.009  0.00  0.00    -0.580 N 
ATOM      4  C   LIG    1       -2.475  -0.032   0.019  0.00  0.00    -0.080 C 
ATOM      5  S   LIG    1       -3.574  -1.295  -0.742  0.00  0.00    +2.370 S 
ATOM      6  C   LIG    1       -2.643  -2.704  -0.010  0.00  0.00    -0.250 C 
ATOM      7  O   LIG    1       -3.415  -1.289  -2.154  0.00  0.00    -0.930 OA
ATOM      8  O   LIG    1       -4.871  -1.219  -0.166  0.00  0.00    -0.930 OA
ATOM      9  C   LIG    1       -1.202  -2.148   0.002  0.00  0.00    +0.140 C 
ATOM     10  O   LIG    1        1.060  -0.596  -0.011  0.00  0.00    -0.520 OA
ENDROOT
BRANCH   9  11
ATOM     11  C   LIG    1       -0.497  -2.652   1.235  0.00  0.00    +0.510 C 
ATOM     12  O   LIG    1       -0.543  -2.008   2.269  0.00  0.00    -0.680 OA
ATOM     13  O   LIG    1        0.119  -3.704   1.199  0.00  0.00    -0.680 OA
ENDBRANCH   9  11
TORSDOF 1
ENDMDL
MODEL      253
REMARK  Name = ZINC000013726173
REMARK                            x       y       z     vdW  Elec       q    Type
REMARK                         _______ _______ _______ _____ _____    ______ ____
ROOT
ATOM      1  O   LIG    1        0.002  -0.004   0.002  0.00  0.00    -0.530 OA
ATOM      2  C   LIG    1       -0.014   1.214   0.009  0.00  0.00    +0.560 A 
ATOM      3  C   LIG    1       -1.246   1.911   0.030  0.00  0.00    -0.130 A 
ATOM      4  C   LIG    1       -1.236   3.261   0.038  0.00  0.00    +0.250 A 
ATOM      5  N   LIG    1       -0.043   3.930   0.025  0.00  0.00    -0.630 N 
ATOM      6  H   LIG    1       -0.036   4.901   0.030  0.00  0.00    +0.440 HD
ATOM      7  C   LIG    1        1.121   3.256   0.004  0.00  0.00    +0.710 A 
ATOM      8  O   LIG    1        2.170   3.870  -0.008  0.00  0.00    -0.550 OA
ATOM      9  N   LIG    1        1.140   1.910   0.001  0.00  0.00    -0.660 N 
ATOM     10  H   LIG    1        1.988   1.439  -0.013  0.00  0.00    +0.430 HD
ENDROOT
BRANCH   4  11
ATOM     11  C   LIG    1       -2.534   4.028   0.061  0.00  0.00    -0.500 C 
BRANCH  11  12
ATOM     12  P   LIG    1       -2.956   4.456   1.782  0.00  0.00    +2.300 P 
ATOM     13  O   LIG    1       -1.896   5.429   2.345  0.00  0.00    -1.050 OA
ATOM     14  O   LIG    1       -2.983   3.172   2.640  0.00  0.00    -1.040 OA
BRANCH  12  15
ATOM     15  C   LIG    1       -4.595   5.252   1.825  0.00  0.00    -0.430 C 
BRANCH  15  16
ATOM     16  O   LIG    1       -4.926   5.588   3.175  0.00  0.00    -0.520 OA
ATOM     17  H   LIG    1       -5.788   6.016   3.273  0.00  0.00    +0.360 HD
ENDBRANCH  15  16
ENDBRANCH  12  15
ENDBRANCH  11  12
ENDBRANCH   4  11
TORSDOF 4
ENDMDL
MODEL      254
REMARK  Name = ZINC000013910898
REMARK                            x       y       z     vdW  Elec       q    Type
REMARK                         _______ _______ _______ _____ _____    ______ ____
ROOT
ATOM      1  C   LIG    1       -0.699   1.479   1.216  0.00  0.00    +0.020 C 
ATOM      2  C   LIG    1       -2.151   0.936   1.233  0.00  0.00    -0.330 C 
ATOM      3  S   LIG    1       -2.586   1.132   3.009  0.00  0.00    +2.430 S 
ATOM      4  C   LIG    1       -0.913   0.717   3.634  0.00  0.00    -0.400 C 
ATOM      5  C   LIG    1       -0.197  -0.470   2.977  0.00  0.00    -0.020 C 
ATOM      6  O   LIG    1       -3.507   0.119   3.390  0.00  0.00    -0.940 OA
ATOM      7  O   LIG    1       -2.873   2.496   3.283  0.00  0.00    -0.860 OA
ATOM      8  C   LIG    1        0.038   0.974   2.454  0.00  0.00    +0.010 C 
ENDROOT
BRANCH   1   9
ATOM      9  N   LIG    1       -0.012   1.005   0.008  0.00  0.00    -0.600 N 
ATOM     10  H   LIG    1       -0.500   1.339  -0.810  0.00  0.00    +0.430 HD
ATOM     11  H   LIG    1        0.935   1.354   0.000  0.00  0.00    +0.440 HD
ATOM     12  H   LIG    1        0.002  -0.004   0.002  0.00  0.00    +0.420 HD
ENDBRANCH   1   9
BRANCH   5  13
ATOM     13  C   LIG    1        0.927  -1.115   3.745  0.00  0.00    +0.520 C 
ATOM     14  O   LIG    1        1.969  -0.509   3.926  0.00  0.00    -0.680 OA
ATOM     15  O   LIG    1        0.794  -2.244   4.186  0.00  0.00    -0.670 OA
ENDBRANCH   5  13
BRANCH   1  16
ATOM     16  C   LIG    1       -0.725   2.985   1.224  0.00  0.00    +0.490 C 
ATOM     17  O   LIG    1       -1.264   3.581   2.140  0.00  0.00    -0.580 OA
ATOM     18  O   LIG    1       -0.205   3.608   0.314  0.00  0.00    -0.670 OA
ENDBRANCH   1  16
TORSDOF 3
ENDMDL
MODEL      255
REMARK  Name = ZINC000039125300
REMARK                            x       y       z     vdW  Elec       q    Type
REMARK                         _______ _______ _______ _____ _____    ______ ____
ROOT
ATOM      1  C   LIG    1        0.152   1.248  -0.083  0.00  0.00    +0.340 C 
ATOM      2  N   LIG    1        0.099  -0.214  -0.098  0.00  0.00    -0.560 N 
ATOM      3  C   LIG    1        0.180  -0.880  -1.266  0.00  0.00    +0.570 A 
ATOM      4  C   LIG    1       -0.065  -2.274  -1.282  0.00  0.00    +0.010 A 
ATOM      5  C   LIG    1       -0.309  -2.943  -0.091  0.00  0.00    +0.220 A 
ATOM      6  N   LIG    1       -0.055  -2.252   1.067  0.00  0.00    -0.530 N 
ATOM      7  C   LIG    1        0.221  -2.886   2.357  0.00  0.00    +0.310 C 
ATOM      8  N   LIG    1       -0.735  -4.239  -0.144  0.00  0.00    -0.520 N 
ATOM      9  C   LIG    1       -0.468  -4.989  -1.245  0.00  0.00    +0.450 A 
ATOM     10  C   LIG    1       -0.138  -4.296  -2.521  0.00  0.00    +0.450 A 
ATOM     11  O   LIG    1        0.024  -4.921  -3.548  0.00  0.00    -0.550 OA
ATOM     12  O   LIG    1       -0.535  -6.197  -1.192  0.00  0.00    -0.520 OA
ATOM     13  C   LIG    1       -1.516  -4.891   0.908  0.00  0.00    +0.280 C 
ATOM     14  N   LIG    1       -0.012  -2.953  -2.498  0.00  0.00    -0.600 NA
ATOM     15  O   LIG    1        0.441  -0.288  -2.298  0.00  0.00    -0.490 OA
ATOM     16  C   LIG    1       -0.015  -0.897   1.050  0.00  0.00    +0.700 A 
ATOM     17  O   LIG    1       -0.086  -0.298   2.105  0.00  0.00    -0.560 OA
ENDROOT
TORSDOF 0
ENDMDL
MODEL      256
REMARK  Name = ZINC000006184883
REMARK                            x       y       z     vdW  Elec       q    Type
REMARK                         _______ _______ _______ _____ _____    ______ ____
ROOT
ATOM      1  C   UNK    1       -0.699   1.479   1.216  0.00  0.00    +0.110 C 
ENDROOT
BRANCH   1   2
ATOM      2  N   UNK    1       -0.012   1.005   0.008  0.00  0.00    -0.620 N 
ATOM      3  H   UNK    1       -0.500   1.339  -0.810  0.00  0.00    +0.420 HD
ATOM      4  H   UNK    1        0.935   1.354   0.000  0.00  0.00    +0.430 HD
ATOM      5  H   UNK    1        0.002  -0.004   0.002  0.00  0.00    +0.440 HD
ENDBRANCH   1   2
BRANCH   1   6
ATOM      6  C   UNK    1        0.030   0.979   2.437  0.00  0.00    +0.500 C 
ATOM      7  O   UNK    1       -0.473   1.104   3.541  0.00  0.00    -0.630 OA
ATOM      8  O   UNK    1        1.122   0.451   2.321  0.00  0.00    -0.670 OA
ENDBRANCH   1   6
BRANCH   1   9
ATOM      9  C   UNK    1       -0.720   3.008   1.225  0.00  0.00    -0.340 C 
BRANCH   9  10
ATOM     10  S   UNK    1       -1.722   3.607  -0.164  0.00  0.00    +2.430 S 
ATOM     11  O   UNK    1       -3.071   3.212   0.048  0.00  0.00    -0.920 OA
ATOM     12  O   UNK    1       -1.076   3.247  -1.377  0.00  0.00    -0.950 OA
BRANCH  10  13
ATOM     13  C   UNK    1       -1.608   5.406   0.040  0.00  0.00    -0.390 C 
BRANCH  13  14
ATOM     14  C   UNK    1       -2.398   6.086  -1.048  0.00  0.00    +0.520 C 
ATOM     15  O   UNK    1       -2.451   7.303  -1.093  0.00  0.00    -0.660 OA
ATOM     16  O   UNK    1       -2.983   5.419  -1.884  0.00  0.00    -0.670 OA
ENDBRANCH  13  14
ENDBRANCH  10  13
ENDBRANCH   9  10
ENDBRANCH   1   9
TORSDOF 6
ENDMDL
MODEL      257
REMARK  Name = ZINC000001044468
REMARK                            x       y       z     vdW  Elec       q    Type
REMARK                         _______ _______ _______ _____ _____    ______ ____
ROOT
ATOM      1  N   LIG    1       -2.430   0.984   0.019  0.00  0.00    -0.140 N 
ATOM      2  N   LIG    1       -3.007   0.479  -1.018  0.00  0.00    +0.000 NA
ATOM      3  N   LIG    1       -3.931  -0.334  -0.646  0.00  0.00    -0.350 NA
ATOM      4  C   LIG    1       -3.983  -0.382   0.686  0.00  0.00    +0.350 A 
ATOM      5  N   LIG    1       -3.052   0.426   1.148  0.00  0.00    -0.310 NA
ENDROOT
BRANCH   4   6
ATOM      6  N   LIG    1       -4.859  -1.155   1.451  0.00  0.00    -0.430 N 
ATOM      7  C   LIG    1       -4.122  -2.031   2.373  0.00  0.00    +0.180 C 
ATOM      8  C   LIG    1       -5.119  -2.814   3.232  0.00  0.00    +0.240 C 
ATOM      9  O   LIG    1       -6.002  -3.547   2.378  0.00  0.00    -0.390 OA
ATOM     10  C   LIG    1       -6.737  -2.725   1.467  0.00  0.00    +0.240 C 
ATOM     11  C   LIG    1       -5.756  -1.941   0.591  0.00  0.00    +0.180 C 
ENDBRANCH   4   6
BRANCH   1  12
ATOM     12  C   LIG    1       -1.330   1.951   0.019  0.00  0.00    +0.280 C 
BRANCH  12  14
ATOM     13  O   LIG    1        0.002  -0.004   0.002  0.00  0.00    -0.670 OA
ATOM     14  C   LIG    1       -0.015   1.215   0.009  0.00  0.00    +0.490 C 
ATOM     15  O   LIG    1        1.033   1.839   0.002  0.00  0.00    -0.680 OA
ENDBRANCH  12  14
ENDBRANCH   1  12
TORSDOF 3
ENDMDL
MODEL      258
REMARK  Name = ZINC000001023510
REMARK                            x       y       z     vdW  Elec       q    Type
REMARK                         _______ _______ _______ _____ _____    ______ ____
ROOT
ATOM      1  N   LIG    1        0.002  -0.004   0.002  0.00  0.00    -0.340 N 
ATOM      2  C   LIG    1        1.121  -0.794  -0.007  0.00  0.00    +0.530 A 
ATOM      3  N   LIG    1        0.768  -2.041  -0.012  0.00  0.00    -0.260 NA
ATOM      4  N   LIG    1       -0.626  -2.115  -0.007  0.00  0.00    -0.330 N 
ATOM      5  C   LIG    1       -1.728  -2.919  -0.007  0.00  0.00    +0.200 A 
ATOM      6  N   LIG    1       -2.780  -2.135   0.002  0.00  0.00    -0.260 NA
ATOM      7  N   LIG    1       -2.410  -0.903   0.007  0.00  0.00    -0.270 NA
ATOM      8  C   LIG    1       -1.101  -0.829   0.008  0.00  0.00    +0.330 A 
ENDROOT
BRANCH   1   9
ATOM      9  N   LIG    1       -0.016   1.362   0.009  0.00  0.00    -0.570 N 
ATOM     10  H   LIG    1       -0.555   1.720  -0.765  0.00  0.00    +0.370 HD
ATOM     11  H   LIG    1        0.920   1.736   0.003  0.00  0.00    +0.370 HD
ENDBRANCH   1   9
BRANCH   5  12
ATOM     12  S   LIG    1       -1.737  -4.681  -0.016  0.00  0.00    +0.070 S 
BRANCH  12  13
ATOM     13  C   LIG    1       -3.506  -5.081  -0.011  0.00  0.00    +0.010 C 
BRANCH  13  14
ATOM     14  C   LIG    1       -3.683  -6.577  -0.018  0.00  0.00    +0.520 C 
ATOM     15  O   LIG    1       -4.804  -7.059  -0.016  0.00  0.00    -0.680 OA
ATOM     16  O   LIG    1       -2.707  -7.307  -0.026  0.00  0.00    -0.680 OA
ENDBRANCH  13  14
ENDBRANCH  12  13
ENDBRANCH   5  12
TORSDOF 4
ENDMDL
MODEL      259
REMARK  Name = ZINC000001066237
REMARK                            x       y       z     vdW  Elec       q    Type
REMARK                         _______ _______ _______ _____ _____    ______ ____
ROOT
ATOM      1  N   LIG    1       -3.757   1.656   0.029  0.00  0.00    -0.630 N 
ATOM      2  C   LIG    1       -4.425   2.033   1.126  0.00  0.00    +0.700 C 
ATOM      3  N   LIG    1       -5.573   2.674   0.871  0.00  0.00    -0.750 N 
ATOM      4  H   LIG    1       -6.184   3.018   1.541  0.00  0.00    +0.430 HD
ATOM      5  C   LIG    1       -5.761   2.775  -0.583  0.00  0.00    +0.470 C 
ATOM      6  N   LIG    1       -5.620   4.176  -1.004  0.00  0.00    -0.740 N 
ATOM      7  H   LIG    1       -6.248   4.887  -0.804  0.00  0.00    +0.430 HD
ATOM      8  C   LIG    1       -4.489   4.316  -1.707  0.00  0.00    +0.710 C 
ATOM      9  N   LIG    1       -3.792   3.181  -1.846  0.00  0.00    -0.730 N 
ATOM     10  H   LIG    1       -2.952   3.094  -2.323  0.00  0.00    +0.430 HD
ATOM     11  O   LIG    1       -4.128   5.378  -2.176  0.00  0.00    -0.580 OA
ATOM     12  O   LIG    1       -4.026   1.813   2.253  0.00  0.00    -0.570 OA
ATOM     13  C   LIG    1       -4.505   2.077  -1.164  0.00  0.00    +0.460 C 
ENDROOT
BRANCH   1  14
ATOM     14  C   LIG    1       -2.479   0.941   0.019  0.00  0.00    +0.340 C 
BRANCH  14  15
ATOM     15  C   LIG    1       -1.330   1.951   0.019  0.00  0.00    -0.080 C 
BRANCH  15  17
ATOM     16  O   LIG    1        0.002  -0.004   0.002  0.00  0.00    -0.700 OA
ATOM     17  C   LIG    1       -0.015   1.215   0.009  0.00  0.00    +0.500 C 
ATOM     18  O   LIG    1        1.033   1.839   0.002  0.00  0.00    -0.700 OA
ENDBRANCH  15  17
ENDBRANCH  14  15
ENDBRANCH   1  14
TORSDOF 3
ENDMDL
MODEL      260
REMARK  Name = ZINC000001066238
REMARK                            x       y       z     vdW  Elec       q    Type
REMARK                         _______ _______ _______ _____ _____    ______ ____
ROOT
ATOM      1  N   LIG    1       -3.757   1.656   0.029  0.00  0.00    -0.630 N 
ATOM      2  C   LIG    1       -4.471   2.059   1.122  0.00  0.00    +0.720 C 
ATOM      3  N   LIG    1       -5.439   2.980   0.794  0.00  0.00    -0.730 N 
ATOM      4  H   LIG    1       -6.209   3.251   1.318  0.00  0.00    +0.430 HD
ATOM      5  C   LIG    1       -5.051   3.437  -0.477  0.00  0.00    +0.370 C 
ATOM      6  N   LIG    1       -5.522   4.115  -1.609  0.00  0.00    -0.720 N 
ATOM      7  H   LIG    1       -6.301   4.691  -1.674  0.00  0.00    +0.430 HD
ATOM      8  C   LIG    1       -4.638   3.784  -2.605  0.00  0.00    +0.730 C 
ATOM      9  N   LIG    1       -3.844   2.729  -2.258  0.00  0.00    -0.740 N 
ATOM     10  H   LIG    1       -3.013   2.457  -2.677  0.00  0.00    +0.440 HD
ATOM     11  O   LIG    1       -4.570   4.363  -3.672  0.00  0.00    -0.550 OA
ATOM     12  O   LIG    1       -4.274   1.652   2.251  0.00  0.00    -0.540 OA
ATOM     13  C   LIG    1       -4.536   2.095  -1.131  0.00  0.00    +0.420 C 
ENDROOT
BRANCH   1  14
ATOM     14  C   LIG    1       -2.479   0.941   0.019  0.00  0.00    +0.340 C 
BRANCH  14  15
ATOM     15  C   LIG    1       -1.330   1.951   0.019  0.00  0.00    -0.080 C 
BRANCH  15  17
ATOM     16  O   LIG    1        0.002  -0.004   0.002  0.00  0.00    -0.700 OA
ATOM     17  C   LIG    1       -0.015   1.215   0.009  0.00  0.00    +0.500 C 
ATOM     18  O   LIG    1        1.033   1.839   0.002  0.00  0.00    -0.700 OA
ENDBRANCH  15  17
ENDBRANCH  14  15
ENDBRANCH   1  14
TORSDOF 3
ENDMDL
MODEL      261
REMARK  Name = ZINC000001066235
REMARK                            x       y       z     vdW  Elec       q    Type
REMARK                         _______ _______ _______ _____ _____    ______ ____
ROOT
ATOM      1  N   LIG    1       -3.757   1.656   0.029  0.00  0.00    -0.620 N 
ATOM      2  C   LIG    1       -4.425   2.033   1.126  0.00  0.00    +0.700 C 
ATOM      3  N   LIG    1       -5.573   2.674   0.871  0.00  0.00    -0.740 N 
ATOM      4  H   LIG    1       -6.184   3.018   1.541  0.00  0.00    +0.430 HD
ATOM      5  C   LIG    1       -5.761   2.775  -0.583  0.00  0.00    +0.470 C 
ATOM      6  N   LIG    1       -6.882   1.919  -0.996  0.00  0.00    -0.740 N 
ATOM      7  H   LIG    1       -7.817   2.083  -0.794  0.00  0.00    +0.430 HD
ATOM      8  C   LIG    1       -6.412   0.879  -1.696  0.00  0.00    +0.710 C 
ATOM      9  N   LIG    1       -5.080   0.877  -1.839  0.00  0.00    -0.740 N 
ATOM     10  H   LIG    1       -4.568   0.204  -2.313  0.00  0.00    +0.430 HD
ATOM     11  O   LIG    1       -7.129   0.013  -2.159  0.00  0.00    -0.580 OA
ATOM     12  O   LIG    1       -4.025   1.813   2.253  0.00  0.00    -0.570 OA
ATOM     13  C   LIG    1       -4.505   2.077  -1.164  0.00  0.00    +0.470 C 
ENDROOT
BRANCH   1  14
ATOM     14  C   LIG    1       -2.479   0.941   0.019  0.00  0.00    +0.340 C 
BRANCH  14  15
ATOM     15  C   LIG    1       -1.330   1.951   0.019  0.00  0.00    -0.080 C 
BRANCH  15  17
ATOM     16  O   LIG    1        0.002  -0.004   0.002  0.00  0.00    -0.700 OA
ATOM     17  C   LIG    1       -0.015   1.215   0.009  0.00  0.00    +0.500 C 
ATOM     18  O   LIG    1        1.033   1.839   0.002  0.00  0.00    -0.700 OA
ENDBRANCH  15  17
ENDBRANCH  14  15
ENDBRANCH   1  14
TORSDOF 3
ENDMDL
MODEL      262
REMARK  Name = ZINC000001400449
REMARK                            x       y       z     vdW  Elec       q    Type
REMARK                         _______ _______ _______ _____ _____    ______ ____
ROOT
ATOM      1  C   LIG    1        0.679  -2.115   1.088  0.00  0.00    +0.020 C 
ATOM      2  C   LIG    1        1.415  -2.648  -0.142  0.00  0.00    -0.010 C 
ATOM      3  C   LIG    1        1.695  -4.116   0.011  0.00  0.00    +0.430 C 
ATOM      4  N   LIG    1        1.716  -4.725   1.205  0.00  0.00    -0.490 NA
ATOM      5  N   LIG    1        1.444  -4.020   2.386  0.00  0.00    -0.820 NA
ATOM      6  O   LIG    1        1.910  -4.776  -0.984  0.00  0.00    -0.640 OA
ATOM      7  C   LIG    1        1.438  -2.550   2.349  0.00  0.00    +0.270 C 
ENDROOT
BRANCH   5   8
ATOM      8  S   LIG    1        1.131  -4.827   3.798  0.00  0.00    +2.640 S 
ATOM      9  O   LIG    1        1.401  -3.872   4.815  0.00  0.00    -0.980 OA
ATOM     10  O   LIG    1        1.892  -6.022   3.694  0.00  0.00    -0.940 OA
ATOM     11  C   LIG    1       -0.644  -5.195   3.725  0.00  0.00    -0.340 C 
ENDBRANCH   5   8
BRANCH   1  12
ATOM     12  C   LIG    1        0.618  -0.611   1.029  0.00  0.00    +0.470 C 
ATOM     13  O   LIG    1        1.124   0.049   1.905  0.00  0.00    -0.510 OA
BRANCH  12  15
ATOM     14  C   LIG    1       -0.018   1.448   0.010  0.00  0.00    +0.250 C 
ATOM     15  O   LIG    1        0.002  -0.004   0.002  0.00  0.00    -0.360 OA
ENDBRANCH  12  15
ENDBRANCH   1  12
TORSDOF 3
ENDMDL
MODEL      263
REMARK  Name = ZINC000036379844
REMARK                            x       y       z     vdW  Elec       q    Type
REMARK                         _______ _______ _______ _____ _____    ______ ____
ROOT
ATOM      1  C   LIG    1        0.026  -0.377   2.515  0.00  0.00    +0.220 C 
ENDROOT
BRANCH   1   7
ATOM      2  C   LIG    1       -0.018   1.461   0.010  0.00  0.00    +0.360 C 
ATOM      3  N   LIG    1        0.002  -0.004   0.002  0.00  0.00    -0.360 N 
ATOM      4  N   LIG    1        0.009  -0.840  -1.127  0.00  0.00    -0.330 NA
ATOM      5  C   LIG    1        0.027  -2.070  -0.686  0.00  0.00    +0.390 A 
ATOM      6  N   LIG    1        0.033  -2.052   0.646  0.00  0.00    -0.480 NA
ATOM      7  C   LIG    1        0.023  -0.816   1.074  0.00  0.00    +0.280 A 
ENDBRANCH   1   7
BRANCH   1   8
ATOM      8  C   LIG    1        0.163  -1.584   3.407  0.00  0.00    +0.280 A 
ATOM      9  N   LIG    1        0.272  -2.826   3.008  0.00  0.00    -0.480 NA
ATOM     10  C   LIG    1        0.376  -3.632   4.064  0.00  0.00    +0.390 A 
ATOM     11  N   LIG    1        0.335  -2.912   5.154  0.00  0.00    -0.330 NA
ATOM     12  N   LIG    1        0.202  -1.573   4.751  0.00  0.00    -0.360 N 
ATOM     13  C   LIG    1        0.114  -0.398   5.622  0.00  0.00    +0.360 C 
ENDBRANCH   1   8
BRANCH   1  14
ATOM     14  C   LIG    1       -1.267   0.332   2.827  0.00  0.00    +0.520 C 
ATOM     15  O   LIG    1       -1.250   1.490   3.208  0.00  0.00    -0.650 OA
ATOM     16  O   LIG    1       -2.329  -0.252   2.698  0.00  0.00    -0.650 OA
ENDBRANCH   1  14
BRANCH   1  17
ATOM     17  O   LIG    1        1.123   0.510   2.742  0.00  0.00    -0.510 OA
ATOM     18  H   LIG    1        1.988   0.119   2.561  0.00  0.00    +0.360 HD
ENDBRANCH   1  17
TORSDOF 4
ENDMDL
MODEL      264
REMARK  Name = ZINC000098086437
REMARK                            x       y       z     vdW  Elec       q    Type
REMARK                         _______ _______ _______ _____ _____    ______ ____
ROOT
ATOM      1  N   LIG    1       -0.719   1.911   1.438  0.00  0.00    -1.030 NA
ATOM      2  C   LIG    1       -0.303   3.179   2.014  0.00  0.00    +0.550 C 
ATOM      3  N   LIG    1       -1.411   4.150   1.952  0.00  0.00    -0.730 N 
ATOM      4  H   LIG    1       -1.403   4.897   1.333  0.00  0.00    +0.420 HD
ATOM      5  C   LIG    1       -2.476   3.933   2.838  0.00  0.00    +0.320 A 
ATOM      6  N   LIG    1       -2.931   4.721   3.759  0.00  0.00    -0.310 NA
ATOM      7  O   LIG    1       -4.018   4.062   4.392  0.00  0.00    +0.000 OA
ATOM      8  N   LIG    1       -4.179   2.798   3.767  0.00  0.00    -0.310 NA
ATOM      9  C   LIG    1       -3.277   2.698   2.842  0.00  0.00    +0.320 A 
ATOM     10  N   LIG    1       -3.044   1.632   1.962  0.00  0.00    -0.730 N 
ATOM     11  H   LIG    1       -3.725   1.317   1.347  0.00  0.00    +0.420 HD
ATOM     12  C   LIG    1       -1.710   1.019   2.019  0.00  0.00    +0.550 C 
ENDROOT
BRANCH   1  14
ATOM     13  O   LIG    1        0.002  -0.004   0.002  0.00  0.00    -1.080 OA
ATOM     14  S   LIG    1       -0.018   1.450   0.010  0.00  0.00    +2.770 S 
ATOM     15  O   LIG    1       -0.845   1.991  -1.057  0.00  0.00    -1.080 OA
ATOM     16  O   LIG    1        1.323   2.015   0.000  0.00  0.00    -1.080 OA
ENDBRANCH   1  14
TORSDOF 1
ENDMDL
MODEL      265
REMARK  Name = ZINC000005743385
REMARK                            x       y       z     vdW  Elec       q    Type
REMARK                         _______ _______ _______ _____ _____    ______ ____
ROOT
ATOM      1  C   LIG    1       -1.295  -0.603   0.011  0.00  0.00    +0.390 C 
ATOM      2  O   LIG    1       -1.927  -0.349  -1.228  0.00  0.00    -0.380 OA
ATOM      3  C   LIG    1       -1.457  -1.047  -2.363  0.00  0.00    +0.140 C 
ATOM      4  C   LIG    1       -1.681  -2.545  -2.256  0.00  0.00    +0.180 C 
ATOM      5  C   LIG    1       -1.286  -3.068  -0.879  0.00  0.00    -0.010 C 
ATOM      6  C   LIG    1       -2.370  -3.000   0.207  0.00  0.00    -0.070 C 
ATOM      7  C   LIG    1       -1.151  -2.091   0.281  0.00  0.00    -0.040 C 
ENDROOT
BRANCH   6   8
ATOM      8  C   LIG    1       -2.449  -4.143   1.185  0.00  0.00    +0.520 C 
ATOM      9  O   LIG    1       -2.115  -5.264   0.841  0.00  0.00    -0.690 OA
ATOM     10  O   LIG    1       -2.847  -3.948   2.321  0.00  0.00    -0.690 OA
ENDBRANCH   6   8
BRANCH   1  12
ATOM     11  C   LIG    1       -0.017   1.425   0.010  0.00  0.00    +0.200 C 
ATOM     12  O   LIG    1        0.002  -0.004   0.002  0.00  0.00    -0.400 OA
ENDBRANCH   1  12
BRANCH   4  13
ATOM     13  O   LIG    1       -0.896  -3.207  -3.250  0.00  0.00    -0.550 OA
ATOM     14  H   LIG    1       -1.108  -2.947  -4.157  0.00  0.00    +0.370 HD
ENDBRANCH   4  13
BRANCH   3  15
ATOM     15  C   LIG    1       -2.187  -0.526  -3.603  0.00  0.00    +0.200 C 
BRANCH  15  16
ATOM     16  O   LIG    1       -1.839   0.843  -3.821  0.00  0.00    -0.560 OA
ATOM     17  H   LIG    1       -2.267   1.240  -4.592  0.00  0.00    +0.380 HD
ENDBRANCH  15  16
ENDBRANCH   3  15
TORSDOF 5
ENDMDL
MODEL      266
REMARK  Name = ZINC000003865752
REMARK                            x       y       z     vdW  Elec       q    Type
REMARK                         _______ _______ _______ _____ _____    ______ ____
ROOT
ATOM      1  C   LIG    1       -1.843   1.139   1.653  0.00  0.00    +0.230 C 
ATOM      2  C   LIG    1       -1.485  -0.013   2.608  0.00  0.00    +0.080 C 
ATOM      3  C   LIG    1       -2.823  -0.547   3.180  0.00  0.00    -0.300 C 
ATOM      4  S   LIG    1       -3.750   0.994   3.533  0.00  0.00    +2.400 S 
ATOM      5  O   LIG    1       -3.477   1.415   4.862  0.00  0.00    -0.940 OA
ATOM      6  O   LIG    1       -5.095   0.844   3.100  0.00  0.00    -0.940 OA
ATOM      7  C   LIG    1       -2.850   2.068   2.360  0.00  0.00    -0.290 C 
ENDROOT
BRANCH   1   8
ATOM      8  O   LIG    1       -0.662   1.873   1.322  0.00  0.00    -0.760 OA
BRANCH   8  10
ATOM      9  O   LIG    1        0.002  -0.004   0.002  0.00  0.00    -1.090 OA
ATOM     10  S   LIG    1       -0.018   1.450   0.010  0.00  0.00    +2.770 S 
ATOM     11  O   LIG    1       -0.845   1.991  -1.057  0.00  0.00    -1.090 OA
ATOM     12  O   LIG    1        1.323   2.015   0.000  0.00  0.00    -1.060 OA
ENDBRANCH   8  10
ENDBRANCH   1   8
TORSDOF 2
ENDMDL
MODEL      267
REMARK  Name = ZINC000004110721
REMARK                            x       y       z     vdW  Elec       q    Type
REMARK                         _______ _______ _______ _____ _____    ______ ____
ROOT
ATOM      1  C   LIG    1       -0.848   2.016   1.520  0.00  0.00    -0.510 C 
ATOM      2  C   LIG    1       -0.906   3.566   1.535  0.00  0.00    -0.240 C 
ATOM      3  S   LIG    1       -2.227   3.862   2.778  0.00  0.00    +2.390 S 
ATOM      4  C   LIG    1       -3.239   2.411   2.300  0.00  0.00    -0.330 C 
ATOM      5  O   LIG    1       -2.922   5.059   2.460  0.00  0.00    -0.950 OA
ATOM      6  O   LIG    1       -1.704   3.668   4.085  0.00  0.00    -0.940 OA
ATOM      7  C   LIG    1       -2.279   1.475   1.554  0.00  0.00    +0.230 C 
ENDROOT
BRANCH   1   9
ATOM      8  O   LIG    1        0.002  -0.004   0.002  0.00  0.00    -1.060 OA
ATOM      9  S   LIG    1       -0.018   1.450   0.010  0.00  0.00    +2.660 S 
ATOM     10  O   LIG    1       -0.752   1.947  -1.143  0.00  0.00    -1.030 OA
ATOM     11  O   LIG    1        1.341   1.970  -0.000  0.00  0.00    -1.060 OA
ENDBRANCH   1   9
BRANCH   7  12
ATOM     12  O   LIG    1       -2.743   1.307   0.213  0.00  0.00    -0.530 OA
ATOM     13  H   LIG    1       -3.620   0.905   0.147  0.00  0.00    +0.380 HD
ENDBRANCH   7  12
TORSDOF 2
ENDMDL
MODEL      268
REMARK  Name = ZINC000002371867
REMARK                            x       y       z     vdW  Elec       q    Type
REMARK                         _______ _______ _______ _____ _____    ______ ____
ROOT
ATOM      1  C   LIG    1       -0.848   2.016   1.520  0.00  0.00    -0.520 C 
ATOM      2  C   LIG    1       -0.063   1.504   2.745  0.00  0.00    -0.250 C 
ATOM      3  S   LIG    1       -1.389   1.186   3.978  0.00  0.00    +2.380 S 
ATOM      4  C   LIG    1       -2.609   0.624   2.723  0.00  0.00    -0.330 C 
ATOM      5  O   LIG    1       -1.817   2.413   4.551  0.00  0.00    -0.940 OA
ATOM      6  O   LIG    1       -1.020   0.096   4.812  0.00  0.00    -0.940 OA
ATOM      7  C   LIG    1       -2.288   1.516   1.509  0.00  0.00    +0.230 C 
ENDROOT
BRANCH   1   9
ATOM      8  O   LIG    1        0.002  -0.004   0.002  0.00  0.00    -1.040 OA
ATOM      9  S   LIG    1       -0.018   1.450   0.010  0.00  0.00    +2.660 S 
ATOM     10  O   LIG    1       -0.752   1.947  -1.143  0.00  0.00    -1.040 OA
ATOM     11  O   LIG    1        1.341   1.970  -0.000  0.00  0.00    -1.070 OA
ENDBRANCH   1   9
BRANCH   7  12
ATOM     12  O   LIG    1       -2.507   0.766   0.313  0.00  0.00    -0.530 OA
ATOM     13  H   LIG    1       -3.419   0.468   0.197  0.00  0.00    +0.380 HD
ENDBRANCH   7  12
TORSDOF 2
ENDMDL
MODEL      269
REMARK  Name = ZINC000075260152
REMARK                            x       y       z     vdW  Elec       q    Type
REMARK                         _______ _______ _______ _____ _____    ______ ____
ROOT
ATOM      1  C   LIG    1        0.205   1.455   0.005  0.00  0.00    +0.330 C 
ATOM      2  N   LIG    1        0.111  -0.007  -0.001  0.00  0.00    -0.560 N 
ATOM      3  C   LIG    1        0.016  -0.666  -1.177  0.00  0.00    +0.570 A 
ATOM      4  C   LIG    1       -0.077  -2.129  -1.145  0.00  0.00    -0.270 A 
ATOM      5  C   LIG    1       -0.063  -2.773   0.088  0.00  0.00    +0.400 A 
ATOM      6  N   LIG    1        0.036  -2.017   1.228  0.00  0.00    -0.540 N 
ATOM      7  C   LIG    1        0.052  -2.678   2.535  0.00  0.00    +0.330 C 
ATOM      8  N   LIG    1       -0.148  -4.133   0.144  0.00  0.00    -0.430 N 
ATOM      9  C   LIG    1       -0.160  -5.026   1.179  0.00  0.00    +0.250 A 
ATOM     10  N   LIG    1       -0.260  -6.221   0.662  0.00  0.00    -0.240 NA
ATOM     11  N   LIG    1       -0.313  -6.152  -0.620  0.00  0.00    -0.370 NA
ATOM     12  C   LIG    1       -0.248  -4.885  -1.002  0.00  0.00    +0.310 A 
ATOM     13  C   LIG    1       -0.265  -4.275  -2.271  0.00  0.00    -0.190 A 
ATOM     14  C   LIG    1       -0.181  -2.916  -2.372  0.00  0.00    +0.350 A 
ATOM     15  O   LIG    1       -0.196  -2.308  -3.585  0.00  0.00    -0.640 OA
ATOM     16  O   LIG    1        0.008  -0.062  -2.233  0.00  0.00    -0.460 OA
ATOM     17  C   LIG    1        0.124  -0.677   1.163  0.00  0.00    +0.710 A 
ATOM     18  O   LIG    1        0.211  -0.047   2.199  0.00  0.00    -0.550 OA
ENDROOT
TORSDOF 0
ENDMDL
MODEL      270
REMARK  Name = ZINC000012660693
REMARK                            x       y       z     vdW  Elec       q    Type
REMARK                         _______ _______ _______ _____ _____    ______ ____
ROOT
ATOM      1  N   LIG    1        0.688  -0.476  -1.203  0.00  0.00    -0.610 N 
ATOM      2  C   LIG    1        1.979  -0.225  -1.573  0.00  0.00    +0.710 C 
ATOM      3  N   LIG    1        2.205  -0.530  -2.895  0.00  0.00    -0.740 N 
ATOM      4  H   LIG    1        3.056  -0.659  -3.342  0.00  0.00    +0.420 HD
ATOM      5  C   LIG    1        0.915  -0.611  -3.446  0.00  0.00    +0.380 C 
ATOM      6  N   LIG    1        0.205  -1.092  -4.555  0.00  0.00    -0.720 N 
ATOM      7  H   LIG    1        0.559  -1.336  -5.425  0.00  0.00    +0.430 HD
ATOM      8  C   LIG    1       -1.101  -1.141  -4.137  0.00  0.00    +0.730 C 
ATOM      9  N   LIG    1       -1.211  -1.019  -2.781  0.00  0.00    -0.740 N 
ATOM     10  H   LIG    1       -2.008  -0.799  -2.274  0.00  0.00    +0.430 HD
ATOM     11  O   LIG    1       -2.049  -1.278  -4.886  0.00  0.00    -0.560 OA
ATOM     12  O   LIG    1        2.828   0.216  -0.822  0.00  0.00    -0.480 OA
ATOM     13  C   LIG    1        0.136  -1.323  -2.263  0.00  0.00    +0.420 C 
ENDROOT
BRANCH   1  15
ATOM     14  C   LIG    1       -0.019   1.526   0.010  0.00  0.00    +0.030 C 
ATOM     15  C   LIG    1        0.002  -0.004   0.002  0.00  0.00    +0.190 C 
BRANCH  15  16
ATOM     16  C   LIG    1        0.731  -0.503   1.223  0.00  0.00    +0.480 C 
ATOM     17  O   LIG    1        1.935  -0.690   1.180  0.00  0.00    -0.650 OA
ATOM     18  O   LIG    1        0.117  -0.721   2.253  0.00  0.00    -0.700 OA
ENDBRANCH  15  16
ENDBRANCH   1  15
TORSDOF 2
ENDMDL
MODEL      271
REMARK  Name = ZINC000005356858
REMARK                            x       y       z     vdW  Elec       q    Type
REMARK                         _______ _______ _______ _____ _____    ______ ____
ROOT
ATOM      1  C   LIG    1        0.366  -0.562  -1.269  0.00  0.00    +0.230 C 
ENDROOT
BRANCH   1   2
ATOM      2  C   LIG    1        1.834  -0.293  -1.481  0.00  0.00    +0.480 C 
ATOM      3  N   LIG    1        2.263   0.964  -1.707  0.00  0.00    -0.720 N 
ATOM      4  H   LIG    1        1.640   1.706  -1.659  0.00  0.00    +0.400 HD
ATOM      5  O   LIG    1        2.629  -1.209  -1.450  0.00  0.00    -0.540 OA
BRANCH   3   6
ATOM      6  C   LIG    1        3.672   1.211  -2.025  0.00  0.00    +0.280 C 
BRANCH   6   7
ATOM      7  C   LIG    1        3.892   2.711  -2.234  0.00  0.00    -0.080 C 
BRANCH   7   8
ATOM      8  C   LIG    1        5.341   2.965  -2.561  0.00  0.00    +0.500 C 
ATOM      9  O   LIG    1        5.730   4.103  -2.765  0.00  0.00    -0.700 OA
ATOM     10  O   LIG    1        6.125   2.033  -2.621  0.00  0.00    -0.690 OA
ENDBRANCH   7   8
ENDBRANCH   6   7
ENDBRANCH   3   6
ENDBRANCH   1   2
BRANCH   1  12
ATOM     11  C   LIG    1       -1.508  -0.428   0.378  0.00  0.00    +0.060 C 
ATOM     12  C   LIG    1       -0.055  -0.035   0.104  0.00  0.00    -0.090 C 
ATOM     13  C   LIG    1        0.074   1.490   0.127  0.00  0.00    +0.050 C 
BRANCH  12  14
ATOM     14  C   LIG    1        0.849  -0.639   1.181  0.00  0.00    +0.180 C 
BRANCH  14  15
ATOM     15  O   LIG    1        0.455  -0.147   2.464  0.00  0.00    -0.570 OA
ATOM     16  H   LIG    1        0.986  -0.489   3.196  0.00  0.00    +0.380 HD
ENDBRANCH  14  15
ENDBRANCH  12  14
ENDBRANCH   1  12
BRANCH   1  17
ATOM     17  O   LIG    1        0.125  -1.969  -1.334  0.00  0.00    -0.540 OA
ATOM     18  H   LIG    1        0.608  -2.481  -0.671  0.00  0.00    +0.380 HD
ENDBRANCH   1  17
TORSDOF 8
ENDMDL
MODEL      272
REMARK  Name = ZINC000164509468
REMARK                            x       y       z     vdW  Elec       q    Type
REMARK                         _______ _______ _______ _____ _____    ______ ____
ROOT
ATOM      1  C   LIG    1       -0.018   1.461   0.010  0.00  0.00    +0.320 C 
ATOM      2  N   LIG    1        0.002  -0.004   0.002  0.00  0.00    -0.520 N 
ATOM      3  C   LIG    1       -1.185  -0.700   0.004  0.00  0.00    +0.270 A 
ATOM      4  C   LIG    1       -1.156  -2.089  -0.004  0.00  0.00    -0.090 A 
ATOM      5  C   LIG    1        0.147  -2.756  -0.014  0.00  0.00    +0.590 A 
ATOM      6  N   LIG    1        1.262  -1.993  -0.015  0.00  0.00    -0.550 N 
ATOM      7  O   LIG    1        0.225  -3.971  -0.021  0.00  0.00    -0.480 OA
ATOM      8  N   LIG    1       -2.440  -2.521   0.001  0.00  0.00    -0.410 NA
ATOM      9  C   LIG    1       -3.235  -1.491   0.010  0.00  0.00    +0.430 A 
ATOM     10  N   LIG    1       -2.497  -0.344   0.013  0.00  0.00    -0.560 N 
ATOM     11  H   LIG    1       -2.844   0.562   0.020  0.00  0.00    +0.430 HD
ATOM     12  C   LIG    1        1.180  -0.652  -0.013  0.00  0.00    +0.710 A 
ATOM     13  O   LIG    1        2.208  -0.002  -0.014  0.00  0.00    -0.520 OA
ENDROOT
BRANCH   6  14
ATOM     14  C   LIG    1        2.578  -2.637  -0.025  0.00  0.00    +0.340 C 
BRANCH  14  15
ATOM     15  C   LIG    1        3.029  -2.853  -1.471  0.00  0.00    -0.080 C 
BRANCH  15  16
ATOM     16  C   LIG    1        4.382  -3.514  -1.482  0.00  0.00    +0.500 C 
ATOM     17  O   LIG    1        4.925  -3.776  -2.542  0.00  0.00    -0.700 OA
ATOM     18  O   LIG    1        4.935  -3.788  -0.430  0.00  0.00    -0.700 OA
ENDBRANCH  15  16
ENDBRANCH  14  15
ENDBRANCH   6  14
TORSDOF 3
ENDMDL
MODEL      273
REMARK  Name = ZINC000002042987
REMARK                            x       y       z     vdW  Elec       q    Type
REMARK                         _______ _______ _______ _____ _____    ______ ____
ROOT
ATOM      1  C   LIG    1       -1.330   1.951   0.019  0.00  0.00    +0.220 C 
ATOM      2  C   LIG    1       -1.366   2.915   1.208  0.00  0.00    +0.030 C 
ATOM      3  C   LIG    1       -2.728   3.614   1.246  0.00  0.00    +0.140 C 
ATOM      4  C   LIG    1       -3.832   2.555   1.323  0.00  0.00    +0.160 C 
ATOM      5  C   LIG    1       -3.700   1.605   0.130  0.00  0.00    +0.140 C 
ATOM      6  O   LIG    1       -2.400   1.011   0.136  0.00  0.00    -0.350 OA
ENDROOT
BRANCH   1   8
ATOM      7  O   LIG    1        0.002  -0.004   0.002  0.00  0.00    -0.670 OA
ATOM      8  C   LIG    1       -0.015   1.215   0.009  0.00  0.00    +0.500 C 
ATOM      9  O   LIG    1        1.033   1.839   0.002  0.00  0.00    -0.670 OA
ENDBRANCH   1   8
BRANCH   4  10
ATOM     10  O   LIG    1       -3.701   1.817   2.540  0.00  0.00    -0.530 OA
ATOM     11  H   LIG    1       -3.771   2.359   3.338  0.00  0.00    +0.370 HD
ENDBRANCH   4  10
BRANCH   3  12
ATOM     12  O   LIG    1       -2.797   4.463   2.393  0.00  0.00    -0.570 OA
ATOM     13  H   LIG    1       -2.122   5.155   2.412  0.00  0.00    +0.380 HD
ENDBRANCH   3  12
BRANCH   1  14
ATOM     14  O   LIG    1       -1.473   2.687  -1.197  0.00  0.00    -0.570 OA
ATOM     15  H   LIG    1       -1.459   2.139  -1.993  0.00  0.00    +0.380 HD
ENDBRANCH   1  14
BRANCH   5  16
ATOM     16  C   LIG    1       -4.762   0.508   0.232  0.00  0.00    +0.230 C 
BRANCH  16  17
ATOM     17  O   LIG    1       -4.651  -0.147   1.497  0.00  0.00    -0.530 OA
ATOM     18  H   LIG    1       -3.793  -0.566   1.649  0.00  0.00    +0.380 HD
ENDBRANCH  16  17
BRANCH  16  19
ATOM     19  C   LIG    1       -4.552  -0.511  -0.890  0.00  0.00    +0.160 C 
BRANCH  19  20
ATOM     20  O   LIG    1       -5.611  -1.470  -0.867  0.00  0.00    -0.570 OA
ATOM     21  H   LIG    1       -5.543  -2.148  -1.553  0.00  0.00    +0.370 HD
ENDBRANCH  19  20
ENDBRANCH  16  19
ENDBRANCH   5  16
TORSDOF 8
ENDMDL
MODEL      274
REMARK  Name = ZINC000012296982
REMARK                            x       y       z     vdW  Elec       q    Type
REMARK                         _______ _______ _______ _____ _____    ______ ____
ROOT
ATOM      1  O   LIG    1        0.002  -0.004   0.002  0.00  0.00    -0.530 OA
ATOM      2  C   LIG    1       -0.014   1.214   0.009  0.00  0.00    +0.560 A 
ATOM      3  C   LIG    1       -1.246   1.911   0.030  0.00  0.00    -0.140 A 
ATOM      4  C   LIG    1       -1.236   3.261   0.038  0.00  0.00    +0.250 A 
ATOM      5  N   LIG    1       -0.043   3.930   0.025  0.00  0.00    -0.620 N 
ATOM      6  H   LIG    1       -0.036   4.901   0.030  0.00  0.00    +0.440 HD
ATOM      7  C   LIG    1        1.121   3.256   0.004  0.00  0.00    +0.710 A 
ATOM      8  O   LIG    1        2.170   3.870  -0.008  0.00  0.00    -0.550 OA
ATOM      9  N   LIG    1        1.140   1.910   0.001  0.00  0.00    -0.660 N 
ATOM     10  H   LIG    1        1.988   1.439  -0.013  0.00  0.00    +0.430 HD
ENDROOT
BRANCH   4  11
ATOM     11  C   LIG    1       -2.534   4.028   0.061  0.00  0.00    -0.480 C 
BRANCH  11  12
ATOM     12  P   LIG    1       -2.956   4.456   1.782  0.00  0.00    +2.240 P 
ATOM     13  O   LIG    1       -3.230   3.163   2.582  0.00  0.00    -1.070 OA
ATOM     14  O   LIG    1       -1.777   5.220   2.426  0.00  0.00    -1.080 OA
BRANCH  12  15
ATOM     15  O   LIG    1       -4.270   5.386   1.797  0.00  0.00    -0.900 OA
ATOM     16  H   LIG    1       -4.553   5.653   2.682  0.00  0.00    +0.420 HD
ENDBRANCH  12  15
ENDBRANCH  11  12
ENDBRANCH   4  11
TORSDOF 3
ENDMDL
MODEL      275
REMARK  Name = ZINC000019437815
REMARK                            x       y       z     vdW  Elec       q    Type
REMARK                         _______ _______ _______ _____ _____    ______ ____
ROOT
ATOM      1  N   LIG    1        1.590  -0.473  -0.016  0.00  0.00    -1.000 NA
ATOM      2  C   LIG    1        2.298  -0.672  -1.288  0.00  0.00    +0.280 C 
ATOM      3  C   LIG    1        2.919  -2.072  -1.293  0.00  0.00    +0.000 C 
ATOM      4  C   LIG    1        3.798  -2.240  -0.051  0.00  0.00    +0.030 C 
ATOM      5  C   LIG    1        2.940  -2.097   1.207  0.00  0.00    -0.100 C 
ATOM      6  C   LIG    1        2.320  -0.691   1.240  0.00  0.00    +0.300 C 
ENDROOT
BRANCH   1   7
ATOM      7  S   LIG    1        0.002  -0.004   0.002  0.00  0.00    +2.790 S 
ATOM      8  O   LIG    1       -0.549  -0.406  -1.245  0.00  0.00    -0.990 OA
ATOM      9  O   LIG    1       -0.525  -0.419   1.255  0.00  0.00    -0.980 OA
BRANCH   7  10
ATOM     10  N   LIG    1       -0.020   1.652   0.011  0.00  0.00    -1.270 NA
ATOM     11  H   LIG    1       -0.867   2.125   0.018  0.00  0.00    +0.410 HD
ATOM     12  H   LIG    1        0.813   2.148   0.006  0.00  0.00    +0.410 HD
ENDBRANCH   7  10
ENDBRANCH   1   7
BRANCH   5  13
ATOM     13  C   LIG    1        3.800  -2.295   2.429  0.00  0.00    +0.500 C 
ATOM     14  O   LIG    1        3.306  -2.221   3.541  0.00  0.00    -0.700 OA
ATOM     15  O   LIG    1        4.990  -2.529   2.304  0.00  0.00    -0.690 OA
ENDBRANCH   5  13
TORSDOF 3
ENDMDL
MODEL      276
REMARK  Name = ZINC000019437817
REMARK                            x       y       z     vdW  Elec       q    Type
REMARK                         _______ _______ _______ _____ _____    ______ ____
ROOT
ATOM      1  N   LIG    1        1.590  -0.473  -0.016  0.00  0.00    -1.000 NA
ATOM      2  C   LIG    1        2.298  -0.672  -1.288  0.00  0.00    +0.270 C 
ATOM      3  C   LIG    1        3.580   0.167  -1.276  0.00  0.00    +0.000 C 
ATOM      4  C   LIG    1        4.404  -0.186  -0.036  0.00  0.00    +0.030 C 
ATOM      5  C   LIG    1        3.600   0.142   1.224  0.00  0.00    -0.110 C 
ATOM      6  C   LIG    1        2.320  -0.691   1.240  0.00  0.00    +0.310 C 
ENDROOT
BRANCH   1   7
ATOM      7  S   LIG    1        0.002  -0.004   0.002  0.00  0.00    +2.790 S 
ATOM      8  O   LIG    1       -0.549  -0.406  -1.245  0.00  0.00    -0.990 OA
ATOM      9  O   LIG    1       -0.525  -0.419   1.255  0.00  0.00    -0.980 OA
BRANCH   7  10
ATOM     10  N   LIG    1       -0.020   1.652   0.011  0.00  0.00    -1.270 NA
ATOM     11  H   LIG    1       -0.867   2.125   0.018  0.00  0.00    +0.410 HD
ATOM     12  H   LIG    1        0.813   2.148   0.006  0.00  0.00    +0.410 HD
ENDBRANCH   7  10
ENDBRANCH   1   7
BRANCH   5  13
ATOM     13  C   LIG    1        4.425  -0.175   2.445  0.00  0.00    +0.500 C 
ATOM     14  O   LIG    1        4.026  -0.994   3.255  0.00  0.00    -0.690 OA
ATOM     15  O   LIG    1        5.493   0.387   2.622  0.00  0.00    -0.700 OA
ENDBRANCH   5  13
TORSDOF 3
ENDMDL
MODEL      277
REMARK  Name = ZINC000019483131
REMARK                            x       y       z     vdW  Elec       q    Type
REMARK                         _______ _______ _______ _____ _____    ______ ____
ROOT
ATOM      1  N   LIG    1       -0.795  -0.498  -1.363  0.00  0.00    -1.000 NA
ATOM      2  C   LIG    1       -2.245  -0.733  -1.339  0.00  0.00    +0.270 C 
ATOM      3  C   LIG    1       -2.896   0.086  -2.458  0.00  0.00    +0.030 C 
ATOM      4  C   LIG    1       -2.226  -0.256  -3.791  0.00  0.00    -0.090 C 
ATOM      5  C   LIG    1       -0.741   0.110  -3.726  0.00  0.00    +0.030 C 
ATOM      6  C   LIG    1       -0.067  -0.702  -2.623  0.00  0.00    +0.270 C 
ENDROOT
BRANCH   1   7
ATOM      7  S   LIG    1        0.002  -0.004   0.002  0.00  0.00    +2.790 S 
ATOM      8  O   LIG    1       -0.792  -0.422   1.104  0.00  0.00    -0.990 OA
ATOM      9  O   LIG    1        1.360  -0.386  -0.166  0.00  0.00    -0.990 OA
BRANCH   7  10
ATOM     10  N   LIG    1       -0.020   1.652   0.011  0.00  0.00    -1.260 NA
ATOM     11  H   LIG    1       -0.867   2.125   0.018  0.00  0.00    +0.420 HD
ATOM     12  H   LIG    1        0.813   2.148   0.006  0.00  0.00    +0.420 HD
ENDBRANCH   7  10
ENDBRANCH   1   7
BRANCH   4  13
ATOM     13  C   LIG    1       -2.887   0.523  -4.899  0.00  0.00    +0.490 C 
ATOM     14  O   LIG    1       -4.064   0.827  -4.812  0.00  0.00    -0.700 OA
ATOM     15  O   LIG    1       -2.244   0.849  -5.882  0.00  0.00    -0.700 OA
ENDBRANCH   4  13
TORSDOF 3
ENDMDL
MODEL      278
REMARK  Name = ZINC000019506538
REMARK                            x       y       z     vdW  Elec       q    Type
REMARK                         _______ _______ _______ _____ _____    ______ ____
ROOT
ATOM      1  N   LIG    1       -1.372  -0.511   0.012  0.00  0.00    -0.610 N 
ATOM      2  C   LIG    1       -2.047  -0.765   1.286  0.00  0.00    +0.270 C 
ATOM      3  C   LIG    1       -3.521  -0.381   1.197  0.00  0.00    +0.280 C 
ATOM      4  N   LIG    1       -4.146  -1.008   0.031  0.00  0.00    -0.570 N 
ATOM      5  C   LIG    1       -3.458  -1.130  -1.122  0.00  0.00    +0.510 C 
ATOM      6  O   LIG    1       -4.003  -1.548  -2.122  0.00  0.00    -0.490 OA
ATOM      7  C   LIG    1       -2.014  -0.738  -1.151  0.00  0.00    +0.520 C 
ATOM      8  O   LIG    1       -1.427  -0.632  -2.208  0.00  0.00    -0.500 OA
ENDROOT
BRANCH   1  10
ATOM      9  C   LIG    1       -0.019   1.526   0.010  0.00  0.00    +0.020 C 
ATOM     10  C   LIG    1        0.002  -0.004   0.002  0.00  0.00    +0.280 C 
ENDBRANCH   1  10
BRANCH   4  11
ATOM     11  C   LIG    1       -5.521  -1.503   0.118  0.00  0.00    +0.200 C 
BRANCH  11  12
ATOM     12  C   LIG    1       -6.476  -0.406  -0.276  0.00  0.00    +0.480 C 
ATOM     13  O   LIG    1       -7.678  -0.612  -0.271  0.00  0.00    -0.700 OA
ATOM     14  O   LIG    1       -6.047   0.689  -0.599  0.00  0.00    -0.680 OA
ENDBRANCH  11  12
ENDBRANCH   4  11
TORSDOF 3
ENDMDL
MODEL      279
REMARK  Name = ZINC000005126685
REMARK                            x       y       z     vdW  Elec       q    Type
REMARK                         _______ _______ _______ _____ _____    ______ ____
ROOT
ATOM      1  C   LIG    1       -0.018   1.461   0.010  0.00  0.00    +0.320 C 
ATOM      2  N   LIG    1        0.002  -0.004   0.002  0.00  0.00    -0.570 N 
ATOM      3  C   LIG    1        0.005  -0.661  -1.178  0.00  0.00    +0.570 A 
ATOM      4  C   LIG    1        0.025  -2.129  -1.157  0.00  0.00    -0.410 A 
ATOM      5  C   LIG    1        0.040  -2.785   0.092  0.00  0.00    +0.470 A 
ATOM      6  N   LIG    1        0.035  -2.011   1.242  0.00  0.00    -0.530 N 
ATOM      7  C   LIG    1        0.050  -2.663   2.554  0.00  0.00    +0.330 C 
ATOM      8  N   LIG    1        0.058  -4.103   0.159  0.00  0.00    -0.600 NA
ATOM      9  C   LIG    1        0.062  -4.857  -0.934  0.00  0.00    +0.300 A 
ATOM     10  N   LIG    1        0.079  -6.218  -1.137  0.00  0.00    -0.590 N 
ATOM     11  H   LIG    1        0.092  -6.901  -0.448  0.00  0.00    +0.420 HD
ATOM     12  C   LIG    1        0.075  -6.432  -2.484  0.00  0.00    +0.390 A 
ATOM     13  N   LIG    1        0.057  -5.296  -3.115  0.00  0.00    -0.440 NA
ATOM     14  C   LIG    1        0.049  -4.280  -2.215  0.00  0.00    -0.110 A 
ATOM     15  C   LIG    1        0.029  -2.882  -2.336  0.00  0.00    +0.400 A 
ATOM     16  O   LIG    1        0.015  -2.283  -3.550  0.00  0.00    -0.610 OA
ATOM     17  O   LIG    1       -0.007  -0.053  -2.232  0.00  0.00    -0.490 OA
ATOM     18  C   LIG    1        0.022  -0.670   1.167  0.00  0.00    +0.710 A 
ATOM     19  O   LIG    1        0.019  -0.030   2.201  0.00  0.00    -0.570 OA
ENDROOT
TORSDOF 0
ENDMDL
MODEL      280
REMARK  Name = ZINC000000517234
REMARK                            x       y       z     vdW  Elec       q    Type
REMARK                         _______ _______ _______ _____ _____    ______ ____
ROOT
ATOM      1  C   LIG    1       -6.176   1.669   0.147  0.00  0.00    -0.010 A 
ATOM      2  C   LIG    1       -7.186   1.421  -0.721  0.00  0.00    +0.320 A 
ATOM      3  N   LIG    1       -8.373   2.097  -0.591  0.00  0.00    -0.630 N 
ATOM      4  H   LIG    1       -9.096   1.920  -1.212  0.00  0.00    +0.440 HD
ATOM      5  C   LIG    1       -8.542   3.002   0.389  0.00  0.00    +0.700 A 
ATOM      6  N   LIG    1       -7.556   3.269   1.265  0.00  0.00    -0.650 N 
ATOM      7  H   LIG    1       -7.697   3.925   1.965  0.00  0.00    +0.430 HD
ATOM      8  O   LIG    1       -9.602   3.590   0.484  0.00  0.00    -0.550 OA
ATOM      9  C   LIG    1       -6.375   2.624   1.179  0.00  0.00    +0.550 A 
ATOM     10  O   LIG    1       -5.484   2.865   1.973  0.00  0.00    -0.480 OA
ENDROOT
BRANCH   1  12
ATOM     11  C   LIG    1       -3.809   1.679  -0.140  0.00  0.00    +0.520 C 
ATOM     12  N   LIG    1       -4.952   0.987   0.031  0.00  0.00    -0.670 N 
ATOM     13  H   LIG    1       -4.931   0.018   0.074  0.00  0.00    +0.410 HD
ATOM     14  O   LIG    1       -3.845   2.883  -0.285  0.00  0.00    -0.520 OA
BRANCH  11  15
ATOM     15  C   LIG    1       -2.485   0.958  -0.151  0.00  0.00    +0.080 C 
BRANCH  15  16
ATOM     16  C   LIG    1       -1.356   1.968  -0.361  0.00  0.00    -0.050 C 
BRANCH  16  18
ATOM     17  O   LIG    1        0.004   0.037  -0.226  0.00  0.00    -0.700 OA
ATOM     18  C   LIG    1       -0.033   1.247  -0.372  0.00  0.00    +0.490 C 
ATOM     19  O   LIG    1        1.002   1.873  -0.532  0.00  0.00    -0.700 OA
ENDBRANCH  16  18
ENDBRANCH  15  16
ENDBRANCH  11  15
ENDBRANCH   1  12
TORSDOF 4
ENDMDL
MODEL      281
REMARK  Name = ZINC000019797617
REMARK                            x       y       z     vdW  Elec       q    Type
REMARK                         _______ _______ _______ _____ _____    ______ ____
ROOT
ATOM      1  O   LIG    1        0.002  -0.004   0.002  0.00  0.00    -0.580 OA
ATOM      2  C   LIG    1       -0.014   1.212   0.009  0.00  0.00    +0.700 A 
ATOM      3  N   LIG    1       -1.195   1.857   0.029  0.00  0.00    -0.650 N 
ATOM      4  H   LIG    1       -2.021   1.349   0.038  0.00  0.00    +0.420 HD
ATOM      5  C   LIG    1       -1.238   3.216   0.037  0.00  0.00    +0.510 A 
ATOM      6  C   LIG    1       -0.051   3.938   0.024  0.00  0.00    -0.440 A 
ATOM      7  C   LIG    1        1.154   3.249   0.004  0.00  0.00    +0.500 A 
ATOM      8  O   LIG    1        2.311   3.916  -0.009  0.00  0.00    -0.650 OA
ATOM      9  O   LIG    1       -2.412   3.852   0.057  0.00  0.00    -0.640 OA
ATOM     10  N   LIG    1        1.148   1.889   0.001  0.00  0.00    -0.650 N 
ATOM     11  H   LIG    1        1.988   1.404  -0.013  0.00  0.00    +0.420 HD
ENDROOT
BRANCH   6  12
ATOM     12  C   LIG    1       -0.072   5.444   0.033  0.00  0.00    +0.280 C 
BRANCH  12  13
ATOM     13  N   LIG    1       -0.219   5.940  -1.342  0.00  0.00    -0.530 NA
ATOM     14  C   LIG    1        0.697   5.240  -2.255  0.00  0.00    +0.160 C 
ATOM     15  C   LIG    1        0.469   5.744  -3.683  0.00  0.00    +0.200 C 
ATOM     16  O   LIG    1        0.650   7.162  -3.717  0.00  0.00    -0.390 OA
ATOM     17  C   LIG    1       -0.227   7.876  -2.840  0.00  0.00    +0.210 C 
ATOM     18  C   LIG    1       -0.006   7.393  -1.404  0.00  0.00    +0.140 C 
ENDBRANCH  12  13
ENDBRANCH   6  12
TORSDOF 2
ENDMDL
MODEL      282
REMARK  Name = ZINC000002384921
REMARK                            x       y       z     vdW  Elec       q    Type
REMARK                         _______ _______ _______ _____ _____    ______ ____
ROOT
ATOM      1  CA  LEU A  2       -1.416  -2.058  -0.121  0.00  0.00    +0.250 C 
ENDROOT
BRANCH   1   2
ATOM      2  C   LEU A  2       -2.819  -2.590   0.013  0.00  0.00    +0.500 C 
ATOM      3  N   GLY A  3       -3.518  -2.371   1.144  0.00  0.00    -0.690 N 
ATOM      4  H   GLY A  3       -3.118  -1.870   1.872  0.00  0.00    +0.410 HD
ATOM      5  O   LEU A  2       -3.320  -3.216  -0.898  0.00  0.00    -0.560 OA
BRANCH   3   6
ATOM      6  CA  GLY A  3       -4.882  -2.888   1.274  0.00  0.00    +0.190 C 
BRANCH   6   7
ATOM      7  C   GLY A  3       -5.437  -2.509   2.623  0.00  0.00    +0.490 C 
ATOM      8  OXT GLY A  3       -6.567  -2.845   2.934  0.00  0.00    -0.690 OA
ATOM      9  O   GLY A  3       -4.756  -1.866   3.403  0.00  0.00    -0.690 OA
ENDBRANCH   6   7
ENDBRANCH   3   6
ENDBRANCH   1   2
BRANCH   1  10
ATOM     10  N   LEU A  2       -0.876  -2.426  -1.433  0.00  0.00    -0.710 N 
ATOM     11  H   LEU A  2       -1.478  -2.600  -2.173  0.00  0.00    +0.410 HD
ATOM     12  C   GLY A  1        0.456  -2.525  -1.610  0.00  0.00    +0.510 C 
ATOM     13  O   GLY A  1        1.209  -2.308  -0.684  0.00  0.00    -0.520 OA
BRANCH  12  14
ATOM     14  CA  GLY A  1        1.011  -2.904  -2.959  0.00  0.00    +0.200 C 
BRANCH  14  15
ATOM     15  N   GLY A  1        2.478  -2.942  -2.892  0.00  0.00    -0.830 NA
ATOM     16  H1  GLY A  1        2.874  -3.194  -3.785  0.00  0.00    +0.350 HD
ATOM     17  H2  GLY A  1        2.790  -3.571  -2.167  0.00  0.00    +0.350 HD
ENDBRANCH  14  15
ENDBRANCH  12  14
ENDBRANCH   1  10
BRANCH   1  18
ATOM     18  CB  LEU A  2       -1.433  -0.534   0.013  0.00  0.00    +0.030 C 
BRANCH  18  20
ATOM     19  CD1 LEU A  2       -0.019   1.526   0.010  0.00  0.00    +0.000 C 
ATOM     20  CG  LEU A  2        0.002  -0.004   0.002  0.00  0.00    -0.010 C 
ATOM     21  CD2 LEU A  2        0.742  -0.511   1.242  0.00  0.00    +0.020 C 
ENDBRANCH  18  20
ENDBRANCH   1  18
TORSDOF 8
ENDMDL
MODEL      283
REMARK  Name = ZINC000002505749
REMARK                            x       y       z     vdW  Elec       q    Type
REMARK                         _______ _______ _______ _____ _____    ______ ____
ROOT
ATOM      1  N   LIG    1        0.688  -0.476  -1.203  0.00  0.00    -0.610 N 
ATOM      2  C   LIG    1        1.979  -0.225  -1.573  0.00  0.00    +0.730 C 
ATOM      3  N   LIG    1        2.404  -1.074  -2.568  0.00  0.00    -0.730 N 
ATOM      4  H   LIG    1        3.171  -0.972  -3.154  0.00  0.00    +0.420 HD
ATOM      5  C   LIG    1        1.469  -2.122  -2.538  0.00  0.00    +0.380 C 
ATOM      6  N   LIG    1        0.978  -3.199  -3.288  0.00  0.00    -0.720 N 
ATOM      7  H   LIG    1        1.405  -3.643  -4.038  0.00  0.00    +0.420 HD
ATOM      8  C   LIG    1       -0.240  -3.487  -2.727  0.00  0.00    +0.730 C 
ATOM      9  N   LIG    1       -0.670  -2.493  -1.895  0.00  0.00    -0.740 N 
ATOM     10  H   LIG    1       -1.366  -2.550  -1.222  0.00  0.00    +0.430 HD
ATOM     11  O   LIG    1       -0.864  -4.508  -2.943  0.00  0.00    -0.550 OA
ATOM     12  O   LIG    1        2.670   0.646  -1.080  0.00  0.00    -0.520 OA
ATOM     13  C   LIG    1        0.136  -1.323  -2.263  0.00  0.00    +0.410 C 
ENDROOT
BRANCH   1  15
ATOM     14  C   LIG    1       -0.019   1.526   0.010  0.00  0.00    +0.020 C 
ATOM     15  C   LIG    1        0.002  -0.004   0.002  0.00  0.00    +0.190 C 
BRANCH  15  16
ATOM     16  C   LIG    1        0.731  -0.503   1.223  0.00  0.00    +0.490 C 
ATOM     17  O   LIG    1        1.935  -0.690   1.180  0.00  0.00    -0.670 OA
ATOM     18  O   LIG    1        0.117  -0.721   2.253  0.00  0.00    -0.700 OA
ENDBRANCH  15  16
ENDBRANCH   1  15
TORSDOF 2
ENDMDL
MODEL      284
REMARK  Name = ZINC000002457182
REMARK                            x       y       z     vdW  Elec       q    Type
REMARK                         _______ _______ _______ _____ _____    ______ ____
ROOT
ATOM      1  C   LIG    1       -3.794   1.676   0.029  0.00  0.00    +0.510 C 
ATOM      2  N   LIG    1       -4.952   0.987   0.031  0.00  0.00    -0.620 N 
ATOM      3  C   LIG    1       -4.955  -0.484   0.029  0.00  0.00    +0.290 C 
ATOM      4  C   LIG    1       -5.864  -0.971   1.163  0.00  0.00    +0.170 C 
ATOM      5  N   LIG    1       -7.187  -0.347   1.027  0.00  0.00    -0.530 NA
ATOM      6  C   LIG    1       -7.105   1.113   1.168  0.00  0.00    +0.160 C 
ATOM      7  C   LIG    1       -6.247   1.685   0.041  0.00  0.00    +0.280 C 
ATOM      8  O   LIG    1       -3.811   2.889   0.036  0.00  0.00    -0.550 OA
ENDROOT
BRANCH   1   9
ATOM      9  C   LIG    1       -2.479   0.941   0.019  0.00  0.00    +0.070 C 
BRANCH   9  10
ATOM     10  C   LIG    1       -1.330   1.951   0.019  0.00  0.00    -0.050 C 
BRANCH  10  12
ATOM     11  O   LIG    1        0.002  -0.004   0.002  0.00  0.00    -0.700 OA
ATOM     12  C   LIG    1       -0.015   1.215   0.009  0.00  0.00    +0.490 C 
ATOM     13  O   LIG    1        1.033   1.839   0.002  0.00  0.00    -0.700 OA
ENDBRANCH  10  12
ENDBRANCH   9  10
ENDBRANCH   1   9
BRANCH   5  14
ATOM     14  C   LIG    1       -8.139  -0.916   1.990  0.00  0.00    +0.180 C 
BRANCH  14  15
ATOM     15  C   LIG    1       -9.551  -0.431   1.659  0.00  0.00    +0.180 C 
BRANCH  15  16
ATOM     16  O   LIG    1       -9.947  -0.948   0.387  0.00  0.00    -0.560 OA
ATOM     17  H   LIG    1      -10.834  -0.680   0.112  0.00  0.00    +0.370 HD
ENDBRANCH  15  16
ENDBRANCH  14  15
ENDBRANCH   5  14
TORSDOF 6
ENDMDL
MODEL      285
REMARK  Name = ZINC000002457179
REMARK                            x       y       z     vdW  Elec       q    Type
REMARK                         _______ _______ _______ _____ _____    ______ ____
ROOT
ATOM      1  C   LIG    1       -1.321   1.947   0.019  0.00  0.00    +0.450 C 
ATOM      2  N   LIG    1       -1.341   3.290   0.128  0.00  0.00    -0.600 N 
ATOM      3  C   LIG    1       -0.092   4.066   0.122  0.00  0.00    +0.300 C 
ATOM      4  C   LIG    1       -0.218   5.184  -0.918  0.00  0.00    +0.150 C 
ATOM      5  N   LIG    1       -1.433   5.964  -0.649  0.00  0.00    -0.530 NA
ATOM      6  C   LIG    1       -2.639   5.138  -0.790  0.00  0.00    +0.150 C 
ATOM      7  C   LIG    1       -2.613   4.019   0.250  0.00  0.00    +0.260 C 
ATOM      8  O   LIG    1       -2.358   1.335  -0.127  0.00  0.00    -0.550 OA
ENDROOT
BRANCH   1  10
ATOM      9  O   LIG    1        0.015   0.012  -0.148  0.00  0.00    -0.640 OA
ATOM     10  C   LIG    1       -0.019   1.210   0.077  0.00  0.00    +0.500 C 
ATOM     11  O   LIG    1        1.010   1.810   0.345  0.00  0.00    -0.660 OA
ENDBRANCH   1  10
BRANCH   5  12
ATOM     12  C   LIG    1       -1.502   7.148  -1.517  0.00  0.00    +0.170 C 
BRANCH  12  13
ATOM     13  C   LIG    1       -2.635   8.061  -1.045  0.00  0.00    +0.170 C 
BRANCH  13  14
ATOM     14  O   LIG    1       -2.331   8.564   0.258  0.00  0.00    -0.560 OA
ATOM     15  H   LIG    1       -3.007   9.152   0.620  0.00  0.00    +0.370 HD
ENDBRANCH  13  14
ENDBRANCH  12  13
ENDBRANCH   5  12
TORSDOF 4
ENDMDL
MODEL      286
REMARK  Name = ZINC000205361401
REMARK                            x       y       z     vdW  Elec       q    Type
REMARK                         _______ _______ _______ _____ _____    ______ ____
ROOT
ATOM      1  C   LIG    1       -0.018   1.461   0.010  0.00  0.00    +0.290 C 
ATOM      2  N   LIG    1        0.002  -0.004   0.002  0.00  0.00    -0.610 N 
ATOM      3  C   LIG    1        0.005  -0.694  -1.281  0.00  0.00    +0.310 C 
ATOM      4  C   LIG    1       -0.440  -2.118  -1.135  0.00  0.00    +0.510 C 
ATOM      5  N   LIG    1       -0.419  -2.764   0.035  0.00  0.00    -0.700 N 
ATOM      6  H   LIG    1       -0.722  -3.686   0.061  0.00  0.00    +0.410 HD
ATOM      7  C   LIG    1        0.036  -2.145   1.272  0.00  0.00    +0.240 C 
ATOM      8  O   LIG    1       -0.834  -2.708  -2.118  0.00  0.00    -0.540 OA
ATOM      9  C   LIG    1        0.022  -0.650   1.172  0.00  0.00    +0.520 C 
ATOM     10  O   LIG    1        0.020   0.001   2.196  0.00  0.00    -0.530 OA
ENDROOT
BRANCH   7  11
ATOM     11  C   LIG    1        1.465  -2.607   1.567  0.00  0.00    +0.050 C 
BRANCH  11  12
ATOM     12  C   LIG    1        1.468  -4.113   1.837  0.00  0.00    -0.060 C 
BRANCH  12  13
ATOM     13  C   LIG    1        2.875  -4.568   2.127  0.00  0.00    +0.490 C 
ATOM     14  O   LIG    1        3.098  -5.742   2.371  0.00  0.00    -0.700 OA
ATOM     15  O   LIG    1        3.791  -3.763   2.118  0.00  0.00    -0.700 OA
ENDBRANCH  12  13
ENDBRANCH  11  12
ENDBRANCH   7  11
TORSDOF 3
ENDMDL
MODEL      287
REMARK  Name = ZINC000002562340
REMARK                            x       y       z     vdW  Elec       q    Type
REMARK                         _______ _______ _______ _____ _____    ______ ____
ROOT
ATOM      1  C   LIG    1       -1.306   2.341   3.675  0.00  0.00    +0.170 C 
ATOM      2  O   LIG    1       -1.075   3.765   3.709  0.00  0.00    -0.330 OA
ATOM      3  C   LIG    1       -1.559   4.239   4.977  0.00  0.00    +0.150 C 
ATOM      4  C   LIG    1       -1.478   3.062   5.968  0.00  0.00    +0.130 C 
ATOM      5  C   LIG    1       -0.955   1.879   5.113  0.00  0.00    +0.170 C 
ENDROOT
BRANCH   4   6
ATOM      6  O   LIG    1       -0.565   3.361   7.026  0.00  0.00    -0.550 OA
ATOM      7  H   LIG    1       -0.818   4.129   7.558  0.00  0.00    +0.380 HD
ENDBRANCH   4   6
BRANCH   5   8
ATOM      8  O   LIG    1       -1.637   0.669   5.447  0.00  0.00    -0.550 OA
ATOM      9  H   LIG    1       -1.517   0.391   6.365  0.00  0.00    +0.380 HD
ENDBRANCH   5   8
BRANCH   1  10
ATOM     10  C   LIG    1       -0.386   1.669   2.654  0.00  0.00    +0.290 C 
BRANCH  10  11
ATOM     11  O   LIG    1       -0.772   2.060   1.335  0.00  0.00    -0.750 OA
BRANCH  11  13
ATOM     12  O   LIG    1        0.002  -0.004   0.002  0.00  0.00    -1.110 OA
ATOM     13  P   LIG    1       -0.019   1.541   0.011  0.00  0.00    +2.210 P 
ATOM     14  O   LIG    1        1.431   2.075  -0.001  0.00  0.00    -1.110 OA
BRANCH  13  15
ATOM     15  O   LIG    1       -0.798   2.074  -1.294  0.00  0.00    -0.900 OA
ATOM     16  H   LIG    1       -0.398   1.799  -2.130  0.00  0.00    +0.410 HD
ENDBRANCH  13  15
ENDBRANCH  11  13
ENDBRANCH  10  11
ENDBRANCH   1  10
BRANCH   3  17
ATOM     17  C   LIG    1       -3.010   4.707   4.838  0.00  0.00    +0.160 C 
BRANCH  17  18
ATOM     18  O   LIG    1       -3.060   5.861   3.997  0.00  0.00    -0.560 OA
ATOM     19  H   LIG    1       -3.951   6.213   3.864  0.00  0.00    +0.380 HD
ENDBRANCH  17  18
ENDBRANCH   3  17
TORSDOF 8
ENDMDL
MODEL      288
REMARK  Name = ZINC000001005034
REMARK                            x       y       z     vdW  Elec       q    Type
REMARK                         _______ _______ _______ _____ _____    ______ ____
ROOT
ATOM      1  CA  LIG    1       -1.308   1.942   0.019  0.00  0.00    +0.140 A 
ATOM      2  C   LIG    1       -2.478   1.253   0.026  0.00  0.00    -0.110 A 
ATOM      3  C   LIG    1       -3.737   2.013   0.037  0.00  0.00    +0.550 A 
ATOM      4  N   LIG    1       -3.682   3.361   0.038  0.00  0.00    -0.550 N 
ATOM      5  C   LIG    1       -2.496   3.994   0.031  0.00  0.00    +0.700 A 
ATOM      6  O   LIG    1       -2.474   5.210   0.033  0.00  0.00    -0.540 OA
ATOM      7  O   LIG    1       -4.808   1.437   0.044  0.00  0.00    -0.530 OA
ATOM      8  N   LIG    1       -1.334   3.320   0.026  0.00  0.00    -0.620 N 
ATOM      9  H   LIG    1       -0.498   3.812   0.022  0.00  0.00    +0.440 HD
ENDROOT
BRANCH   1  11
ATOM     10  O   LIG    1        0.002  -0.004   0.002  0.00  0.00    -0.650 OA
ATOM     11  C   LIG    1       -0.015   1.218   0.009  0.00  0.00    +0.530 C 
ATOM     12  OXT LIG    1        1.035   1.843   0.002  0.00  0.00    -0.660 OA
ENDBRANCH   1  11
BRANCH   4  13
ATOM     13  C   LIG    1       -4.923   4.140   0.049  0.00  0.00    +0.320 C 
BRANCH  13  14
ATOM     14  C   LIG    1       -5.344   4.409   1.495  0.00  0.00    +0.170 C 
BRANCH  14  15
ATOM     15  O   LIG    1       -4.370   5.241   2.128  0.00  0.00    -0.560 OA
ATOM     16  H   LIG    1       -4.573   5.453   3.049  0.00  0.00    +0.370 HD
ENDBRANCH  14  15
ENDBRANCH  13  14
ENDBRANCH   4  13
TORSDOF 4
ENDMDL
MODEL      289
REMARK  Name = ZINC000004775485
REMARK                            x       y       z     vdW  Elec       q    Type
REMARK                         _______ _______ _______ _____ _____    ______ ____
ROOT
ATOM      1  O   LIG    1        0.002  -0.004   0.002  0.00  0.00    -0.560 OA
ATOM      2  C   LIG    1       -0.014   1.209   0.009  0.00  0.00    +0.620 C 
ATOM      3  N   LIG    1        1.143   1.898   0.001  0.00  0.00    -0.620 N 
ATOM      4  C   LIG    1        2.433   1.194  -0.021  0.00  0.00    +0.260 C 
ATOM      5  C   LIG    1        3.246   1.698  -1.220  0.00  0.00    +0.280 C 
ATOM      6  N   LIG    1        3.241   3.168  -1.206  0.00  0.00    -0.620 N 
ATOM      7  C   LIG    1        1.952   3.872  -1.184  0.00  0.00    +0.270 C 
ATOM      8  C   LIG    1        4.399   3.857  -1.215  0.00  0.00    +0.520 C 
ATOM      9  O   LIG    1        5.458   3.265  -1.234  0.00  0.00    -0.500 OA
ATOM     10  C   LIG    1        1.139   3.368   0.009  0.00  0.00    +0.280 C 
ENDROOT
BRANCH   8  11
ATOM     11  C   LIG    1        4.379   5.364  -1.201  0.00  0.00    +0.180 C 
BRANCH  11  12
ATOM     12  O   LIG    1        5.720   5.859  -1.213  0.00  0.00    -0.330 OA
BRANCH  12  13
ATOM     13  C   LIG    1        5.813   7.285  -1.201  0.00  0.00    +0.100 C 
BRANCH  13  14
ATOM     14  C   LIG    1        7.264   7.693  -1.216  0.00  0.00    +0.500 C 
ATOM     15  O   LIG    1        7.564   8.874  -1.208  0.00  0.00    -0.700 OA
ATOM     16  O   LIG    1        8.136   6.842  -1.234  0.00  0.00    -0.670 OA
ENDBRANCH  13  14
ENDBRANCH  12  13
ENDBRANCH  11  12
ENDBRANCH   8  11
TORSDOF 4
ENDMDL
MODEL      290
REMARK  Name = ZINC000004009633
REMARK                            x       y       z     vdW  Elec       q    Type
REMARK                         _______ _______ _______ _____ _____    ______ ____
ROOT
ATOM      1  O   LIG    1        0.002  -0.004   0.002  0.00  0.00    -0.620 OA
ATOM      2  C   LIG    1       -0.014   1.211   0.009  0.00  0.00    +0.440 A 
ATOM      3  C   LIG    1       -1.304   1.933   0.031  0.00  0.00    -0.020 A 
ATOM      4  C   LIG    1       -1.301   3.278   0.039  0.00  0.00    -0.060 A 
ATOM      5  C   LIG    1       -0.007   3.993   0.024  0.00  0.00    +0.480 A 
ATOM      6  N   LIG    1        1.146   3.298   0.004  0.00  0.00    -0.390 N 
ATOM      7  O   LIG    1        0.015   5.208   0.031  0.00  0.00    -0.600 OA
ATOM      8  N   LIG    1        1.142   1.900   0.001  0.00  0.00    -0.480 NA
ENDROOT
BRANCH   6   9
ATOM      9  C   LIG    1        2.422   4.018  -0.010  0.00  0.00    +0.290 C 
ATOM     10  C   LIG    1        3.258   3.612   1.216  0.00  0.00    +0.070 C 
ATOM     11  C   LIG    1        4.695   4.138   0.968  0.00  0.00    -0.310 C 
ATOM     12  S   LIG    1        4.969   3.731  -0.798  0.00  0.00    +2.390 S 
ATOM     13  O   LIG    1        5.544   2.435  -0.898  0.00  0.00    -0.930 OA
ATOM     14  O   LIG    1        5.590   4.833  -1.445  0.00  0.00    -0.950 OA
ATOM     15  C   LIG    1        3.209   3.652  -1.284  0.00  0.00    -0.310 C 
ENDBRANCH   6   9
TORSDOF 1
ENDMDL
