MODEL        1
REMARK  Name = ZINC000005273941
REMARK                            x       y       z     vdW  Elec       q    Type
REMARK                         _______ _______ _______ _____ _____    ______ ____
ROOT
ATOM      1  C   THR A  1        0.739  -2.004  -1.265  0.00  0.00    +0.530 C 
ATOM      2  N   GLN A  2       -0.353  -2.691  -1.658  0.00  0.00    -0.700 N 
ATOM      3  H   GLN A  2       -1.151  -2.215  -1.935  0.00  0.00    +0.390 HD
ATOM      4  O   THR A  1        1.737  -2.599  -0.918  0.00  0.00    -0.530 OA
ENDROOT
BRANCH   1   5
ATOM      5  CA  THR A  1        0.718  -0.497  -1.257  0.00  0.00    +0.200 C 
BRANCH   5   6
ATOM      6  N   THR A  1        2.096   0.011  -1.267  0.00  0.00    -0.820 NA
ATOM      7  H1  THR A  1        2.606  -0.310  -0.458  0.00  0.00    +0.360 HD
ATOM      8  H2  THR A  1        2.110   1.018  -1.327  0.00  0.00    +0.340 HD
ENDBRANCH   5   6
BRANCH   5  10
ATOM      9  CG2 THR A  1       -0.019   1.526   0.010  0.00  0.00    +0.000 C 
ATOM     10  CB  THR A  1        0.002  -0.004   0.002  0.00  0.00    +0.130 C 
BRANCH  10  11
ATOM     11  OG1 THR A  1        0.693  -0.477   1.160  0.00  0.00    -0.550 OA
ATOM     12  HG1 THR A  1        0.294  -0.202   1.996  0.00  0.00    +0.370 HD
ENDBRANCH  10  11
ENDBRANCH   5  10
ENDBRANCH   1   5
BRANCH   2  13
ATOM     13  CA  GLN A  2       -0.333  -4.156  -1.666  0.00  0.00    +0.160 C 
BRANCH  13  14
ATOM     14  C   GLN A  2        0.262  -4.643  -2.962  0.00  0.00    +0.490 C 
ATOM     15  OXT GLN A  2        0.371  -5.839  -3.171  0.00  0.00    -0.700 OA
ATOM     16  O   GLN A  2        0.635  -3.841  -3.801  0.00  0.00    -0.680 OA
ENDBRANCH  13  14
BRANCH  13  17
ATOM     17  CB  GLN A  2       -1.762  -4.686  -1.529  0.00  0.00    +0.070 C 
BRANCH  17  18
ATOM     18  CG  GLN A  2       -2.321  -4.296  -0.160  0.00  0.00    +0.040 C 
BRANCH  18  19
ATOM     19  CD  GLN A  2       -3.729  -4.819  -0.025  0.00  0.00    +0.510 C 
ATOM     20  OE1 GLN A  2       -4.234  -5.441  -0.935  0.00  0.00    -0.540 OA
ATOM     21  NE2 GLN A  2       -4.426  -4.594   1.106  0.00  0.00    -0.860 N 
ATOM     22 HE21 GLN A  2       -5.331  -4.930   1.193  0.00  0.00    +0.400 HD
ATOM     23 HE22 GLN A  2       -4.021  -4.096   1.834  0.00  0.00    +0.400 HD
ENDBRANCH  18  19
ENDBRANCH  17  18
ENDBRANCH  13  17
ENDBRANCH   2  13
TORSDOF 9
ENDMDL
MODEL        2
REMARK  Name = ZINC000005273940
REMARK                            x       y       z     vdW  Elec       q    Type
REMARK                         _______ _______ _______ _____ _____    ______ ____
ROOT
ATOM      1  C   THR A  1        0.739  -2.004  -1.265  0.00  0.00    +0.490 C 
ATOM      2  N   GLN A  2        1.649  -2.670  -0.527  0.00  0.00    -0.680 N 
ATOM      3  H   GLN A  2        2.291  -2.179   0.009  0.00  0.00    +0.390 HD
ATOM      4  O   THR A  1       -0.064  -2.618  -1.936  0.00  0.00    -0.560 OA
ENDROOT
BRANCH   1   5
ATOM      5  CA  THR A  1        0.718  -0.497  -1.257  0.00  0.00    +0.180 C 
BRANCH   5   6
ATOM      6  N   THR A  1        0.008  -0.011  -2.447  0.00  0.00    -0.820 NA
ATOM      7  H1  THR A  1       -0.943  -0.347  -2.463  0.00  0.00    +0.350 HD
ATOM      8  H2  THR A  1        0.497  -0.269  -3.291  0.00  0.00    +0.350 HD
ENDBRANCH   5   6
BRANCH   5  10
ATOM      9  CG2 THR A  1       -0.019   1.526   0.010  0.00  0.00    +0.020 C 
ATOM     10  CB  THR A  1        0.002  -0.004   0.002  0.00  0.00    +0.180 C 
BRANCH  10  11
ATOM     11  OG1 THR A  1        0.693  -0.477   1.160  0.00  0.00    -0.550 OA
ATOM     12  HG1 THR A  1        0.294  -0.202   1.996  0.00  0.00    +0.380 HD
ENDBRANCH  10  11
ENDBRANCH   5  10
ENDBRANCH   1   5
BRANCH   2  13
ATOM     13  CA  GLN A  2        1.669  -4.135  -0.535  0.00  0.00    +0.150 C 
BRANCH  13  14
ATOM     14  C   GLN A  2        0.681  -4.656   0.476  0.00  0.00    +0.490 C 
ATOM     15  OXT GLN A  2        0.541  -5.858   0.629  0.00  0.00    -0.700 OA
ATOM     16  O   GLN A  2        0.021  -3.876   1.142  0.00  0.00    -0.680 OA
ENDBRANCH  13  14
BRANCH  13  17
ATOM     17  CB  GLN A  2        3.072  -4.628  -0.178  0.00  0.00    +0.070 C 
BRANCH  17  18
ATOM     18  CG  GLN A  2        4.056  -4.204  -1.271  0.00  0.00    +0.040 C 
BRANCH  18  19
ATOM     19  CD  GLN A  2        5.438  -4.689  -0.919  0.00  0.00    +0.510 C 
ATOM     20  OE1 GLN A  2        5.619  -5.313   0.105  0.00  0.00    -0.540 OA
ATOM     21  NE2 GLN A  2        6.473  -4.430  -1.742  0.00  0.00    -0.860 N 
ATOM     22 HE21 GLN A  2        7.363  -4.743  -1.516  0.00  0.00    +0.400 HD
ATOM     23 HE22 GLN A  2        6.328  -3.931  -2.561  0.00  0.00    +0.400 HD
ENDBRANCH  18  19
ENDBRANCH  17  18
ENDBRANCH  13  17
ENDBRANCH   2  13
TORSDOF 9
ENDMDL
MODEL        3
REMARK  Name = ZINC000018181336
REMARK                            x       y       z     vdW  Elec       q    Type
REMARK                         _______ _______ _______ _____ _____    ______ ____
ROOT
ATOM      1  C   LIG    1        0.739  -2.004  -1.265  0.00  0.00    -0.070 C 
ATOM      2  N   LIG    1        0.190  -2.647  -0.293  0.00  0.00    -0.310 NA
ATOM      3  C   LIG    1        0.207  -4.008  -0.231  0.00  0.00    -0.280 A 
ATOM      4  C   LIG    1        1.056  -4.737  -1.076  0.00  0.00    +0.460 A 
ATOM      5  N   LIG    1        1.875  -4.038  -1.943  0.00  0.00    -0.730 N 
ATOM      6  H   LIG    1        2.729  -4.397  -2.231  0.00  0.00    +0.400 HD
ATOM      7  N   LIG    1        1.065  -6.067  -1.025  0.00  0.00    -0.690 NA
ATOM      8  C   LIG    1        0.298  -6.717  -0.172  0.00  0.00    +0.620 A 
ATOM      9  N   LIG    1       -0.530  -6.064   0.689  0.00  0.00    -0.710 NA
ATOM     10  C   LIG    1       -0.595  -4.715   0.686  0.00  0.00    +0.560 A 
ATOM     11  O   LIG    1       -1.331  -4.123   1.458  0.00  0.00    -0.580 OA
ATOM     12  C   LIG    1        1.395  -2.726  -2.414  0.00  0.00    +0.280 C 
ENDROOT
BRANCH   8  13
ATOM     13  N   LIG    1        0.335  -8.085  -0.151  0.00  0.00    -0.830 N 
ATOM     14  H   LIG    1       -0.224  -8.576   0.471  0.00  0.00    +0.400 HD
ATOM     15  H   LIG    1        0.921  -8.563  -0.758  0.00  0.00    +0.400 HD
ENDBRANCH   8  13
BRANCH   1  16
ATOM     16  C   LIG    1        0.718  -0.497  -1.257  0.00  0.00    +0.250 C 
BRANCH  16  18
ATOM     17  C   LIG    1       -0.019   1.526   0.010  0.00  0.00    +0.000 C 
ATOM     18  C   LIG    1        0.002  -0.004   0.002  0.00  0.00    +0.190 C 
BRANCH  18  19
ATOM     19  O   LIG    1        0.693  -0.477   1.160  0.00  0.00    -0.530 OA
ATOM     20  H   LIG    1        1.611  -0.180   1.219  0.00  0.00    +0.360 HD
ENDBRANCH  18  19
ENDBRANCH  16  18
BRANCH  16  21
ATOM     21  O   LIG    1        0.027  -0.024  -2.414  0.00  0.00    -0.560 OA
ATOM     22  H   LIG    1       -0.891  -0.322  -2.473  0.00  0.00    +0.380 HD
ENDBRANCH  16  21
ENDBRANCH   1  16
TORSDOF 5
ENDMDL
MODEL        4
REMARK  Name = ZINC000004545917
REMARK                            x       y       z     vdW  Elec       q    Type
REMARK                         _______ _______ _______ _____ _____    ______ ____
ROOT
ATOM      1  CA  PRO A  2        2.736  -1.073  -2.455  0.00  0.00    +0.220 C 
ATOM      2  CB  PRO A  2        2.281  -2.509  -2.789  0.00  0.00    +0.050 C 
ATOM      3  CG  PRO A  2        3.590  -3.184  -3.278  0.00  0.00    +0.040 C 
ATOM      4  CD  PRO A  2        4.646  -2.512  -2.366  0.00  0.00    +0.250 C 
ATOM      5  N   PRO A  2        4.187  -1.115  -2.221  0.00  0.00    -0.610 N 
ATOM      6  C   GLY A  1        4.969  -0.058  -1.922  0.00  0.00    +0.530 C 
ATOM      7  O   GLY A  1        4.482   1.049  -1.828  0.00  0.00    -0.510 OA
ENDROOT
BRANCH   1  10
ATOM      8  N   ALA A  3        0.688  -0.476  -1.203  0.00  0.00    -0.700 N 
ATOM      9  H   ALA A  3        0.175  -0.710  -1.993  0.00  0.00    +0.400 HD
ATOM     10  C   PRO A  2        2.031  -0.587  -1.215  0.00  0.00    +0.500 C 
ATOM     11  O   PRO A  2        2.672  -0.295  -0.228  0.00  0.00    -0.540 OA
BRANCH   8  13
ATOM     12  CB  ALA A  3       -0.019   1.526   0.010  0.00  0.00    +0.020 C 
ATOM     13  CA  ALA A  3        0.002  -0.004   0.002  0.00  0.00    +0.150 C 
BRANCH  13  14
ATOM     14  C   ALA A  3       -1.412  -0.526   0.013  0.00  0.00    +0.500 C 
ATOM     15  OXT ALA A  3       -1.974  -0.742   1.073  0.00  0.00    -0.690 OA
ATOM     16  O   ALA A  3       -1.994  -0.731  -1.039  0.00  0.00    -0.690 OA
ENDBRANCH  13  14
ENDBRANCH   8  13
ENDBRANCH   1  10
BRANCH   6  17
ATOM     17  CA  GLY A  1        6.447  -0.252  -1.705  0.00  0.00    +0.210 C 
BRANCH  17  18
ATOM     18  N   GLY A  1        7.071   1.041  -1.395  0.00  0.00    -0.830 NA
ATOM     19  H1  GLY A  1        8.063   0.938  -1.245  0.00  0.00    +0.350 HD
ATOM     20  H2  GLY A  1        6.628   1.475  -0.599  0.00  0.00    +0.350 HD
ENDBRANCH  17  18
ENDBRANCH   6  17
TORSDOF 5
ENDMDL
MODEL        5
REMARK  Name = ZINC000002095024
REMARK                            x       y       z     vdW  Elec       q    Type
REMARK                         _______ _______ _______ _____ _____    ______ ____
ROOT
ATOM      1  C   LIG    1       -0.018   1.461   0.010  0.00  0.00    +0.340 C 
ATOM      2  N   LIG    1        0.002  -0.004   0.002  0.00  0.00    -0.570 N 
ATOM      3  C   LIG    1        0.005  -0.662  -1.178  0.00  0.00    +0.590 A 
ATOM      4  C   LIG    1        0.023  -2.125  -1.155  0.00  0.00    -0.290 A 
ATOM      5  C   LIG    1        0.050  -2.762   0.092  0.00  0.00    +0.430 A 
ATOM      6  N   LIG    1        0.041  -2.015   1.230  0.00  0.00    -0.520 N 
ATOM      7  C   LIG    1        0.058  -2.680   2.535  0.00  0.00    +0.330 C 
ATOM      8  N   LIG    1        0.088  -4.130   0.112  0.00  0.00    -0.560 NA
ATOM      9  C   LIG    1       -0.364  -4.767  -1.061  0.00  0.00    +0.360 A 
ATOM     10  N   LIG    1       -0.138  -4.135  -2.248  0.00  0.00    -0.370 NA
ATOM     11  N   LIG    1       -0.976  -5.920  -1.012  0.00  0.00    -0.300 NA
ATOM     12  N   LIG    1        0.022  -2.855  -2.283  0.00  0.00    -0.060 NA
ATOM     13  O   LIG    1       -0.006  -0.053  -2.233  0.00  0.00    -0.510 OA
ATOM     14  C   LIG    1        0.022  -0.671   1.168  0.00  0.00    +0.710 A 
ATOM     15  O   LIG    1        0.013  -0.036   2.205  0.00  0.00    -0.560 OA
ENDROOT
BRANCH  11  16
ATOM     16  N   LIG    1       -1.414  -6.530  -2.195  0.00  0.00    -0.790 N 
ATOM     17  H   LIG    1       -1.263  -6.097  -3.049  0.00  0.00    +0.370 HD
ATOM     18  H   LIG    1       -1.869  -7.386  -2.159  0.00  0.00    +0.400 HD
ENDBRANCH  11  16
TORSDOF 1
ENDMDL
MODEL        6
REMARK  Name = ZINC000029019636
REMARK                            x       y       z     vdW  Elec       q    Type
REMARK                         _______ _______ _______ _____ _____    ______ ____
ROOT
ATOM      1  O   LIG    1       -0.066   0.015   0.217  0.00  0.00    -0.530 OA
ATOM      2  C   LIG    1       -0.014   1.212   0.009  0.00  0.00    +0.570 C 
ATOM      3  N   LIG    1        1.175   1.809  -0.207  0.00  0.00    -0.480 N 
ATOM      4  H   LIG    1        1.211   2.751  -0.436  0.00  0.00    +0.420 HD
ENDROOT
BRANCH   2   5
ATOM      5  C   LIG    1       -1.251   2.008  -0.014  0.00  0.00    -0.260 A 
ATOM      6  C   LIG    1       -2.495   1.388   0.080  0.00  0.00    +0.210 A 
ATOM      7  C   LIG    1       -3.646   2.175   0.055  0.00  0.00    -0.080 A 
ATOM      8  C   LIG    1       -3.546   3.524  -0.060  0.00  0.00    +0.320 A 
ATOM      9  N   LIG    1       -2.340   4.134  -0.152  0.00  0.00    -0.600 N 
ATOM     10  H   LIG    1       -2.299   5.100  -0.234  0.00  0.00    +0.420 HD
ATOM     11  C   LIG    1       -1.198   3.422  -0.127  0.00  0.00    +0.530 A 
ATOM     12  O   LIG    1       -0.122   3.988  -0.211  0.00  0.00    -0.540 OA
ENDBRANCH   2   5
BRANCH   3  13
ATOM     13  N   LIG    1        2.359   1.069  -0.099  0.00  0.00    -0.470 N 
ATOM     14  C   LIG    1        3.329   1.116   1.009  0.00  0.00    +0.190 C 
ATOM     15  C   LIG    1        4.394   0.120   0.593  0.00  0.00    +0.490 C 
ATOM     16  N   LIG    1        3.992  -0.368  -0.597  0.00  0.00    -0.700 NA
ATOM     17  O   LIG    1        5.399  -0.175   1.204  0.00  0.00    -0.560 OA
ATOM     18  C   LIG    1        2.830   0.172  -0.984  0.00  0.00    +0.670 C 
ATOM     19  O   LIG    1        2.267  -0.112  -2.023  0.00  0.00    -0.600 OA
ENDBRANCH   3  13
TORSDOF 2
ENDMDL
MODEL        7
REMARK  Name = ZINC000085902748
REMARK                            x       y       z     vdW  Elec       q    Type
REMARK                         _______ _______ _______ _____ _____    ______ ____
ROOT
ATOM      1  C   LIG    1       -3.400  -2.372   0.022  0.00  0.00    -0.760 A 
ATOM      2  C   LIG    1       -4.029  -2.761   1.152  0.00  0.00    +0.460 A 
ATOM      3  N   LIG    1       -5.386  -2.934   1.146  0.00  0.00    -0.640 N 
ATOM      4  H   LIG    1       -5.838  -3.213   1.958  0.00  0.00    +0.430 HD
ATOM      5  C   LIG    1       -6.100  -2.721   0.025  0.00  0.00    +0.700 A 
ATOM      6  N   LIG    1       -5.498  -2.333  -1.115  0.00  0.00    -0.660 N 
ATOM      7  H   LIG    1       -6.028  -2.184  -1.913  0.00  0.00    +0.430 HD
ATOM      8  O   LIG    1       -7.305  -2.882   0.043  0.00  0.00    -0.550 OA
ATOM      9  C   LIG    1       -4.163  -2.146  -1.149  0.00  0.00    +0.580 A 
ATOM     10  O   LIG    1       -3.618  -1.794  -2.180  0.00  0.00    -0.470 OA
ENDROOT
BRANCH   1  11
ATOM     11  S   LIG    1       -1.653  -2.143   0.006  0.00  0.00    +2.590 S 
ATOM     12  O   LIG    1       -1.172  -2.638   1.249  0.00  0.00    -1.060 OA
ATOM     13  O   LIG    1       -1.196  -2.624  -1.250  0.00  0.00    -1.030 OA
BRANCH  11  14
ATOM     14  N   LIG    1       -1.372  -0.511   0.012  0.00  0.00    -1.160 NA
BRANCH  14  16
ATOM     15  C   LIG    1       -0.019   1.526   0.010  0.00  0.00    +0.010 C 
ATOM     16  C   LIG    1        0.002  -0.004   0.002  0.00  0.00    +0.120 C 
ENDBRANCH  14  16
ENDBRANCH  11  14
ENDBRANCH   1  11
TORSDOF 3
ENDMDL
MODEL        8
REMARK  Name = ZINC000003142463
REMARK                            x       y       z     vdW  Elec       q    Type
REMARK                         _______ _______ _______ _____ _____    ______ ____
ROOT
ATOM      1  C   LIG    1        1.819  -2.532   2.915  0.00  0.00    -0.770 A 
ATOM      2  C   LIG    1        1.144  -2.717   4.069  0.00  0.00    +0.300 A 
ATOM      3  N   LIG    1        1.811  -2.652   5.263  0.00  0.00    -0.640 N 
ATOM      4  H   LIG    1        1.326  -2.785   6.092  0.00  0.00    +0.430 HD
ATOM      5  C   LIG    1        3.133  -2.405   5.296  0.00  0.00    +0.710 A 
ATOM      6  N   LIG    1        3.830  -2.216   4.161  0.00  0.00    -0.660 N 
ATOM      7  H   LIG    1        4.783  -2.039   4.203  0.00  0.00    +0.430 HD
ATOM      8  O   LIG    1        3.705  -2.351   6.367  0.00  0.00    -0.560 OA
ATOM      9  C   LIG    1       -0.337  -2.995   4.044  0.00  0.00    +0.180 C 
ATOM     10  C   LIG    1        3.211  -2.278   2.964  0.00  0.00    +0.580 A 
ATOM     11  O   LIG    1        3.842  -2.109   1.937  0.00  0.00    -0.470 OA
ENDROOT
BRANCH   1  12
ATOM     12  S   LIG    1        0.981  -2.611   1.368  0.00  0.00    +2.600 S 
ATOM     13  O   LIG    1        1.979  -2.832   0.381  0.00  0.00    -1.030 OA
ATOM     14  O   LIG    1       -0.130  -3.478   1.557  0.00  0.00    -1.060 OA
BRANCH  12  15
ATOM     15  N   LIG    1        0.355  -1.107   1.071  0.00  0.00    -1.170 NA
BRANCH  15  17
ATOM     16  C   LIG    1       -0.868   0.600  -0.183  0.00  0.00    -0.000 C 
ATOM     17  C   LIG    1       -0.406  -0.859  -0.156  0.00  0.00    +0.120 C 
ENDBRANCH  15  17
ENDBRANCH  12  15
ENDBRANCH   1  12
TORSDOF 3
ENDMDL
MODEL        9
REMARK  Name = ZINC000004158625
REMARK                            x       y       z     vdW  Elec       q    Type
REMARK                         _______ _______ _______ _____ _____    ______ ____
ROOT
ATOM      1  C   LIG    1        0.112  -0.378   2.727  0.00  0.00    -0.550 A 
ATOM      2  N   LIG    1        0.733   0.444   3.527  0.00  0.00    -0.070 NA
ATOM      3  N   LIG    1        0.154   0.793   4.753  0.00  0.00    -0.560 N 
ATOM      4  H   LIG    1        0.620   1.405   5.345  0.00  0.00    +0.420 HD
ATOM      5  C   LIG    1       -1.038   0.291   5.121  0.00  0.00    +0.630 A 
ATOM      6  N   LIG    1       -1.708  -0.560   4.323  0.00  0.00    -0.670 NA
ATOM      7  O   LIG    1       -1.517   0.612   6.192  0.00  0.00    -0.600 OA
ATOM      8  C   LIG    1       -1.190  -0.917   3.130  0.00  0.00    +0.520 A 
ATOM      9  O   LIG    1       -1.790  -1.686   2.402  0.00  0.00    -0.550 OA
ENDROOT
BRANCH   1  10
ATOM     10  S   LIG    1        0.826  -0.828   1.179  0.00  0.00    +2.750 S 
ATOM     11  O   LIG    1        2.148  -0.309   1.181  0.00  0.00    -0.950 OA
ATOM     12  O   LIG    1        0.531  -2.204   0.987  0.00  0.00    -0.930 OA
BRANCH  10  13
ATOM     13  N   LIG    1        0.002  -0.004   0.002  0.00  0.00    -0.960 NA
ATOM     14  H   LIG    1       -0.467  -0.492  -0.693  0.00  0.00    +0.420 HD
BRANCH  13  15
ATOM     15  N   LIG    1       -0.016   1.362   0.009  0.00  0.00    -0.590 NA
ATOM     16  H   LIG    1       -0.555   1.720  -0.765  0.00  0.00    +0.360 HD
ATOM     17  H   LIG    1        0.920   1.736   0.003  0.00  0.00    +0.340 HD
ENDBRANCH  13  15
ENDBRANCH  10  13
ENDBRANCH   1  10
TORSDOF 3
ENDMDL
MODEL       10
REMARK  Name = ZINC000252624248
REMARK                            x       y       z     vdW  Elec       q    Type
REMARK                         _______ _______ _______ _____ _____    ______ ____
ROOT
ATOM      1  C   LIG    1       -1.416  -2.058  -0.121  0.00  0.00    +0.150 C 
ATOM      2  O   LIG    1       -0.817  -2.442  -1.399  0.00  0.00    -0.330 OA
ATOM      3  C   LIG    1       -1.501  -3.598  -1.738  0.00  0.00    +0.260 C 
ATOM      4  N   LIG    1       -1.641  -4.350  -2.938  0.00  0.00    -0.590 NA
ATOM      5  C   LIG    1       -2.886  -4.926  -2.851  0.00  0.00    +0.430 C 
ATOM      6  O   LIG    1       -3.557  -4.485  -1.735  0.00  0.00    -0.330 OA
ATOM      7  S   LIG    1       -3.517  -6.044  -3.982  0.00  0.00    -0.710 S 
ATOM      8  C   LIG    1       -3.011  -3.142  -1.562  0.00  0.00    +0.040 C 
ATOM      9  C   LIG    1       -2.872  -2.610  -0.130  0.00  0.00    +0.190 C 
ENDROOT
BRANCH   9  10
ATOM     10  O   LIG    1       -3.017  -3.666   0.821  0.00  0.00    -0.550 OA
ATOM     11  H   LIG    1       -3.879  -4.103   0.795  0.00  0.00    +0.390 HD
ENDBRANCH   9  10
BRANCH   1  12
ATOM     12  C   LIG    1       -1.433  -0.534   0.013  0.00  0.00    +0.240 C 
BRANCH  12  13
ATOM     13  O   LIG    1       -2.066  -0.171   1.242  0.00  0.00    -0.540 OA
ATOM     14  H   LIG    1       -1.626  -0.521   2.029  0.00  0.00    +0.380 HD
ENDBRANCH  12  13
BRANCH  12  15
ATOM     15  C   LIG    1        0.002  -0.004   0.002  0.00  0.00    +0.170 C 
BRANCH  15  16
ATOM     16  O   LIG    1       -0.017   1.425   0.010  0.00  0.00    -0.570 OA
ATOM     17  H   LIG    1        0.861   1.830   0.004  0.00  0.00    +0.380 HD
ENDBRANCH  15  16
ENDBRANCH  12  15
ENDBRANCH   1  12
TORSDOF 5
ENDMDL
MODEL       11
REMARK  Name = ZINC000001443997
REMARK                            x       y       z     vdW  Elec       q    Type
REMARK                         _______ _______ _______ _____ _____    ______ ____
ROOT
ATOM      1  C   LIG    1        0.002  -0.004   0.002  0.00  0.00    +0.280 C 
ATOM      2  C   LIG    1       -1.435  -0.550  -0.006  0.00  0.00    +0.030 C 
ATOM      3  C   LIG    1       -1.363  -2.086  -0.142  0.00  0.00    +0.260 C 
ATOM      4  N   LIG    1       -0.542  -2.566   0.976  0.00  0.00    -0.470 N 
ATOM      5  N   LIG    1       -0.530  -3.795   1.627  0.00  0.00    -0.180 NA
ATOM      6  N   LIG    1        0.386  -3.718   2.538  0.00  0.00    -0.050 NA
ATOM      7  N   LIG    1        0.944  -2.555   2.517  0.00  0.00    -0.420 NA
ATOM      8  C   LIG    1        0.410  -1.815   1.585  0.00  0.00    +0.490 A 
ATOM      9  C   LIG    1       -0.578  -2.381  -1.440  0.00  0.00    +0.160 C 
ATOM     10  C   LIG    1       -1.059  -1.392  -2.525  0.00  0.00    +0.190 C 
ATOM     11  O   LIG    1       -0.182  -0.257  -2.415  0.00  0.00    -0.400 OA
ATOM     12  O   LIG    1        0.788  -1.964  -1.185  0.00  0.00    -0.350 OA
ATOM     13  N   LIG    1        0.696  -0.506   1.202  0.00  0.00    -0.700 NA
ATOM     14  C   LIG    1        0.719  -0.513  -1.257  0.00  0.00    +0.330 C 
ENDROOT
BRANCH   1  15
ATOM     15  O   LIG    1       -0.017   1.425   0.010  0.00  0.00    -0.540 OA
ATOM     16  H   LIG    1        0.861   1.830   0.004  0.00  0.00    +0.370 HD
ENDBRANCH   1  15
TORSDOF 1
ENDMDL
MODEL       12
REMARK  Name = ZINC000033327106
REMARK                            x       y       z     vdW  Elec       q    Type
REMARK                         _______ _______ _______ _____ _____    ______ ____
ROOT
ATOM      1  C   LIG    1        0.567  -2.548   0.887  0.00  0.00    -0.750 A 
ATOM      2  C   LIG    1       -0.323  -3.296   1.574  0.00  0.00    +0.460 A 
ATOM      3  N   LIG    1       -0.446  -4.630   1.293  0.00  0.00    -0.640 N 
ATOM      4  H   LIG    1       -1.085  -5.168   1.786  0.00  0.00    +0.430 HD
ATOM      5  C   LIG    1        0.312  -5.202   0.340  0.00  0.00    +0.700 A 
ATOM      6  N   LIG    1        1.207  -4.480  -0.360  0.00  0.00    -0.660 N 
ATOM      7  H   LIG    1        1.745  -4.908  -1.043  0.00  0.00    +0.430 HD
ATOM      8  O   LIG    1        0.187  -6.389   0.107  0.00  0.00    -0.550 OA
ATOM      9  C   LIG    1        1.354  -3.161  -0.117  0.00  0.00    +0.580 A 
ATOM     10  O   LIG    1        2.163  -2.507  -0.750  0.00  0.00    -0.470 OA
ENDROOT
BRANCH   1  11
ATOM     11  S   LIG    1        0.742  -0.829   1.233  0.00  0.00    +2.600 S 
ATOM     12  O   LIG    1       -0.023  -0.575   2.403  0.00  0.00    -1.060 OA
ATOM     13  O   LIG    1        2.130  -0.539   1.133  0.00  0.00    -1.030 OA
BRANCH  11  15
ATOM     14  C   LIG    1       -0.018   1.461   0.010  0.00  0.00    +0.130 C 
ATOM     15  N   LIG    1        0.002  -0.004   0.002  0.00  0.00    -1.170 NA
ENDBRANCH  11  15
ENDBRANCH   1  11
TORSDOF 2
ENDMDL
MODEL       13
REMARK  Name = ZINC000033327113
REMARK                            x       y       z     vdW  Elec       q    Type
REMARK                         _______ _______ _______ _____ _____    ______ ____
ROOT
ATOM      1  O   LIG    1        0.002  -0.004   0.002  0.00  0.00    -0.550 OA
ATOM      2  C   LIG    1       -0.014   1.212   0.009  0.00  0.00    +0.700 A 
ATOM      3  N   LIG    1       -1.194   1.859   0.029  0.00  0.00    -0.640 N 
ATOM      4  H   LIG    1       -2.020   1.351   0.037  0.00  0.00    +0.440 HD
ATOM      5  C   LIG    1       -1.238   3.226   0.037  0.00  0.00    +0.460 A 
ATOM      6  C   LIG    1       -0.088   3.933   0.025  0.00  0.00    -0.760 A 
ATOM      7  C   LIG    1        1.146   3.239   0.004  0.00  0.00    +0.580 A 
ATOM      8  O   LIG    1        2.197   3.855  -0.008  0.00  0.00    -0.470 OA
ATOM      9  N   LIG    1        1.147   1.891   0.001  0.00  0.00    -0.660 N 
ATOM     10  H   LIG    1        1.989   1.409  -0.013  0.00  0.00    +0.430 HD
ENDROOT
BRANCH   6  11
ATOM     11  S   LIG    1       -0.122   5.695   0.036  0.00  0.00    +2.600 S 
ATOM     12  O   LIG    1       -1.491   6.070  -0.026  0.00  0.00    -1.060 OA
ATOM     13  O   LIG    1        0.845   6.120  -0.914  0.00  0.00    -1.030 OA
BRANCH  11  14
ATOM     14  N   LIG    1        0.431   6.186   1.518  0.00  0.00    -1.120 NA
BRANCH  14  15
ATOM     15  C   LIG    1        0.519   7.615   1.830  0.00  0.00    +0.180 C 
ATOM     16  C   LIG    1       -0.447   8.169   2.879  0.00  0.00    -0.080 C 
ATOM     17  C   LIG    1        1.037   8.005   3.215  0.00  0.00    -0.030 C 
ENDBRANCH  14  15
ENDBRANCH  11  14
ENDBRANCH   6  11
TORSDOF 3
ENDMDL
MODEL       14
REMARK  Name = ZINC000005014478
REMARK                            x       y       z     vdW  Elec       q    Type
REMARK                         _______ _______ _______ _____ _____    ______ ____
ROOT
ATOM      1  C   LIG    1       -2.579  -3.190   0.010  0.00  0.00    +0.340 A 
ATOM      2  N   LIG    1       -3.598  -2.355   0.018  0.00  0.00    -0.670 NA
ATOM      3  C   LIG    1       -4.859  -2.801   0.028  0.00  0.00    +0.440 A 
ATOM      4  C   LIG    1       -5.106  -4.167   0.028  0.00  0.00    -0.360 A 
ATOM      5  C   LIG    1       -4.020  -5.047   0.019  0.00  0.00    +0.510 A 
ATOM      6  O   LIG    1       -4.199  -6.255   0.019  0.00  0.00    -0.630 OA
ATOM      7  N   LIG    1       -2.769  -4.539   0.004  0.00  0.00    -0.650 NA
ENDROOT
BRANCH   3   8
ATOM      8  N   LIG    1       -5.910  -1.907   0.036  0.00  0.00    -0.860 N 
ATOM      9  H   LIG    1       -6.824  -2.232   0.043  0.00  0.00    +0.400 HD
ATOM     10  H   LIG    1       -5.735  -0.953   0.036  0.00  0.00    +0.390 HD
ENDBRANCH   3   8
BRANCH   1  11
ATOM     11  S   LIG    1       -0.938  -2.550  -0.003  0.00  0.00    +0.030 S 
BRANCH  11  12
ATOM     12  C   LIG    1       -1.293  -0.775   0.010  0.00  0.00    +0.100 C 
BRANCH  12  16
ATOM     13  N   LIG    1       -0.016   1.344   0.009  0.00  0.00    -0.850 N 
ATOM     14  H   LIG    1       -0.863   1.817   0.016  0.00  0.00    +0.400 HD
ATOM     15  H   LIG    1        0.817   1.840   0.004  0.00  0.00    +0.400 HD
ATOM     16  C   LIG    1        0.002  -0.004   0.002  0.00  0.00    +0.530 C 
ATOM     17  O   LIG    1        1.060  -0.596  -0.011  0.00  0.00    -0.530 OA
ENDBRANCH  12  16
ENDBRANCH  11  12
ENDBRANCH   1  11
TORSDOF 4
ENDMDL
MODEL       15
REMARK  Name = ZINC000007191720
REMARK                            x       y       z     vdW  Elec       q    Type
REMARK                         _______ _______ _______ _____ _____    ______ ____
ROOT
ATOM      1  S   LIG    1       -2.077  -4.587  -0.003  0.00  0.00    +0.040 S 
ENDROOT
BRANCH   1   2
ATOM      2  C   LIG    1       -3.719  -5.228   0.009  0.00  0.00    +0.340 A 
ATOM      3  N   LIG    1       -4.737  -4.392   0.018  0.00  0.00    -0.670 NA
ATOM      4  C   LIG    1       -5.998  -4.839   0.028  0.00  0.00    +0.440 A 
ATOM      5  C   LIG    1       -6.246  -6.204   0.028  0.00  0.00    -0.360 A 
ATOM      6  C   LIG    1       -5.159  -7.085   0.019  0.00  0.00    +0.510 A 
ATOM      7  O   LIG    1       -5.339  -8.292   0.019  0.00  0.00    -0.630 OA
ATOM      8  N   LIG    1       -3.909  -6.577   0.004  0.00  0.00    -0.650 NA
BRANCH   4   9
ATOM      9  N   LIG    1       -7.050  -3.944   0.036  0.00  0.00    -0.860 N 
ATOM     10  H   LIG    1       -7.963  -4.270   0.043  0.00  0.00    +0.400 HD
ATOM     11  H   LIG    1       -6.875  -2.990   0.036  0.00  0.00    +0.390 HD
ENDBRANCH   4   9
ENDBRANCH   1   2
BRANCH   1  12
ATOM     12  C   LIG    1       -2.432  -2.813   0.010  0.00  0.00    +0.100 C 
BRANCH  12  19
ATOM     13  N   LIG    1       -0.016   1.344   0.009  0.00  0.00    -0.860 N 
ATOM     14  H   LIG    1       -0.863   1.817   0.016  0.00  0.00    +0.400 HD
ATOM     15  H   LIG    1        0.817   1.840   0.004  0.00  0.00    +0.420 HD
ATOM     16  C   LIG    1        0.002  -0.004   0.002  0.00  0.00    +0.700 C 
ATOM     17  N   LIG    1       -1.156  -0.694   0.009  0.00  0.00    -0.690 N 
ATOM     18  H   LIG    1       -2.002  -0.220   0.020  0.00  0.00    +0.410 HD
ATOM     19  C   LIG    1       -1.137  -2.041   0.002  0.00  0.00    +0.530 C 
ATOM     20  O   LIG    1       -0.080  -2.633  -0.011  0.00  0.00    -0.450 OA
ATOM     21  O   LIG    1        1.063  -0.597  -0.011  0.00  0.00    -0.530 OA
ENDBRANCH  12  19
ENDBRANCH   1  12
TORSDOF 4
ENDMDL
MODEL       16
REMARK  Name = ZINC000252624249
REMARK                            x       y       z     vdW  Elec       q    Type
REMARK                         _______ _______ _______ _____ _____    ______ ____
ROOT
ATOM      1  C   LIG    1       -1.416  -2.058  -0.121  0.00  0.00    +0.140 C 
ATOM      2  O   LIG    1       -0.857  -2.450  -1.393  0.00  0.00    -0.350 OA
ATOM      3  C   LIG    1       -1.321  -3.783  -1.667  0.00  0.00    +0.300 C 
ATOM      4  N   LIG    1       -1.687  -3.879  -3.089  0.00  0.00    -0.610 NA
ATOM      5  C   LIG    1       -3.013  -4.034  -3.190  0.00  0.00    +0.450 C 
ATOM      6  O   LIG    1       -3.645  -4.074  -2.010  0.00  0.00    -0.340 OA
ATOM      7  S   LIG    1       -3.827  -4.167  -4.690  0.00  0.00    -0.740 S 
ATOM      8  C   LIG    1       -2.661  -3.962  -0.911  0.00  0.00    +0.100 C 
ATOM      9  C   LIG    1       -2.860  -2.618  -0.168  0.00  0.00    +0.170 C 
ENDROOT
BRANCH   9  10
ATOM     10  O   LIG    1       -3.400  -2.833   1.137  0.00  0.00    -0.550 OA
ATOM     11  H   LIG    1       -4.269  -3.256   1.139  0.00  0.00    +0.390 HD
ENDBRANCH   9  10
BRANCH   1  12
ATOM     12  C   LIG    1       -1.433  -0.534   0.013  0.00  0.00    +0.230 C 
BRANCH  12  13
ATOM     13  O   LIG    1       -2.066  -0.171   1.242  0.00  0.00    -0.540 OA
ATOM     14  H   LIG    1       -1.626  -0.521   2.029  0.00  0.00    +0.370 HD
ENDBRANCH  12  13
BRANCH  12  15
ATOM     15  C   LIG    1        0.002  -0.004   0.002  0.00  0.00    +0.170 C 
BRANCH  15  16
ATOM     16  O   LIG    1       -0.017   1.425   0.010  0.00  0.00    -0.570 OA
ATOM     17  H   LIG    1        0.861   1.830   0.004  0.00  0.00    +0.380 HD
ENDBRANCH  15  16
ENDBRANCH  12  15
ENDBRANCH   1  12
TORSDOF 5
ENDMDL
MODEL       17
REMARK  Name = ZINC000252624247
REMARK                            x       y       z     vdW  Elec       q    Type
REMARK                         _______ _______ _______ _____ _____    ______ ____
ROOT
ATOM      1  C   LIG    1       -1.416  -2.058  -0.121  0.00  0.00    +0.150 C 
ATOM      2  O   LIG    1       -0.817  -2.442  -1.399  0.00  0.00    -0.330 OA
ATOM      3  C   LIG    1       -1.501  -3.598  -1.738  0.00  0.00    +0.250 C 
ATOM      4  N   LIG    1       -1.641  -4.350  -2.938  0.00  0.00    -0.590 NA
ATOM      5  C   LIG    1       -2.886  -4.926  -2.851  0.00  0.00    +0.430 C 
ATOM      6  O   LIG    1       -3.557  -4.485  -1.735  0.00  0.00    -0.340 OA
ATOM      7  S   LIG    1       -3.517  -6.044  -3.982  0.00  0.00    -0.710 S 
ATOM      8  C   LIG    1       -3.011  -3.142  -1.562  0.00  0.00    +0.060 C 
ATOM      9  C   LIG    1       -2.872  -2.610  -0.130  0.00  0.00    +0.180 C 
ENDROOT
BRANCH   9  10
ATOM     10  O   LIG    1       -3.822  -1.573   0.121  0.00  0.00    -0.530 OA
ATOM     11  H   LIG    1       -4.744  -1.857   0.044  0.00  0.00    +0.380 HD
ENDBRANCH   9  10
BRANCH   1  12
ATOM     12  C   LIG    1       -1.433  -0.534   0.013  0.00  0.00    +0.250 C 
BRANCH  12  13
ATOM     13  O   LIG    1       -2.066  -0.171   1.242  0.00  0.00    -0.520 OA
ATOM     14  H   LIG    1       -1.626  -0.521   2.029  0.00  0.00    +0.360 HD
ENDBRANCH  12  13
BRANCH  12  15
ATOM     15  C   LIG    1        0.002  -0.004   0.002  0.00  0.00    +0.160 C 
BRANCH  15  16
ATOM     16  O   LIG    1       -0.017   1.425   0.010  0.00  0.00    -0.560 OA
ATOM     17  H   LIG    1        0.861   1.830   0.004  0.00  0.00    +0.380 HD
ENDBRANCH  15  16
ENDBRANCH  12  15
ENDBRANCH   1  12
TORSDOF 5
ENDMDL
MODEL       18
REMARK  Name = ZINC000001591037
REMARK                            x       y       z     vdW  Elec       q    Type
REMARK                         _______ _______ _______ _____ _____    ______ ____
ROOT
ATOM      1  N   LEU A  3       -0.290   1.103   2.662  0.00  0.00    -0.690 N 
ATOM      2  H   LEU A  3        0.382   1.702   2.302  0.00  0.00    +0.390 HD
ATOM      3  C   GLY A  2       -1.344   1.602   3.339  0.00  0.00    +0.500 C 
ATOM      4  O   GLY A  2       -2.184   0.853   3.790  0.00  0.00    -0.550 OA
ENDROOT
BRANCH   1   5
ATOM      5  CA  LEU A  3       -0.161  -0.344   2.472  0.00  0.00    +0.170 C 
BRANCH   5   6
ATOM      6  C   LEU A  3        0.510  -0.951   3.677  0.00  0.00    +0.490 C 
ATOM      7  OXT LEU A  3        0.251  -2.096   4.006  0.00  0.00    -0.690 OA
ATOM      8  O   LEU A  3        1.311  -0.297   4.324  0.00  0.00    -0.690 OA
ENDBRANCH   5   6
BRANCH   5   9
ATOM      9  CB  LEU A  3        0.683  -0.621   1.226  0.00  0.00    +0.040 C 
BRANCH   9  11
ATOM     10  CD1 LEU A  3        0.855  -0.243  -1.238  0.00  0.00    +0.010 C 
ATOM     11  CG  LEU A  3       -0.046  -0.092  -0.011  0.00  0.00    -0.030 C 
ATOM     12  CD2 LEU A  3       -1.335  -0.888  -0.224  0.00  0.00    +0.010 C 
ENDBRANCH   9  11
ENDBRANCH   5   9
ENDBRANCH   1   5
BRANCH   3  13
ATOM     13  CA  GLY A  2       -1.477   3.090   3.535  0.00  0.00    +0.290 C 
BRANCH  13  14
ATOM     14  N   GLY A  2       -2.696   3.376   4.295  0.00  0.00    -0.710 N 
ATOM     15  H   GLY A  2       -3.268   2.648   4.585  0.00  0.00    +0.410 HD
ATOM     16  C   GLY A  1       -3.023   4.649   4.592  0.00  0.00    +0.510 C 
ATOM     17  O   GLY A  1       -2.308   5.559   4.229  0.00  0.00    -0.530 OA
BRANCH  16  18
ATOM     18  CA  GLY A  1       -4.277   4.942   5.374  0.00  0.00    +0.210 C 
BRANCH  18  19
ATOM     19  N   GLY A  1       -4.407   6.393   5.565  0.00  0.00    -0.830 NA
ATOM     20  H1  GLY A  1       -5.241   6.616   6.087  0.00  0.00    +0.350 HD
ATOM     21  H2  GLY A  1       -4.395   6.877   4.679  0.00  0.00    +0.350 HD
ENDBRANCH  18  19
ENDBRANCH  16  18
ENDBRANCH  13  14
ENDBRANCH   3  13
TORSDOF 8
ENDMDL
MODEL       19
REMARK  Name = ZINC000000093092
REMARK                            x       y       z     vdW  Elec       q    Type
REMARK                         _______ _______ _______ _____ _____    ______ ____
ROOT
ATOM      1  C   LIG    1       -0.018   1.503   0.010  0.00  0.00    +0.190 C 
ATOM      2  C   LIG    1        0.002  -0.004   0.002  0.00  0.00    +0.290 A 
ATOM      3  C   LIG    1       -1.156  -0.698   0.004  0.00  0.00    -0.770 A 
ATOM      4  C   LIG    1       -1.111  -2.113  -0.005  0.00  0.00    +0.580 A 
ATOM      5  N   LIG    1        0.084  -2.737  -0.014  0.00  0.00    -0.660 N 
ATOM      6  H   LIG    1        0.123  -3.706  -0.020  0.00  0.00    +0.430 HD
ATOM      7  C   LIG    1        1.224  -2.020  -0.016  0.00  0.00    +0.710 A 
ATOM      8  O   LIG    1        2.294  -2.597  -0.024  0.00  0.00    -0.550 OA
ATOM      9  O   LIG    1       -2.142  -2.761  -0.004  0.00  0.00    -0.470 OA
ATOM     10  N   LIG    1        1.194  -0.675  -0.013  0.00  0.00    -0.640 N 
ATOM     11  H   LIG    1        2.026  -0.177  -0.014  0.00  0.00    +0.430 HD
ENDROOT
BRANCH   3  12
ATOM     12  S   LIG    1       -2.703   0.146   0.016  0.00  0.00    +2.600 S 
ATOM     13  O   LIG    1       -2.403   1.532   0.106  0.00  0.00    -1.050 OA
ATOM     14  O   LIG    1       -3.524  -0.534   0.955  0.00  0.00    -1.030 OA
BRANCH  12  15
ATOM     15  N   LIG    1       -3.399  -0.086  -1.469  0.00  0.00    -1.130 NA
BRANCH  15  16
ATOM     16  C   LIG    1       -4.708   0.503  -1.764  0.00  0.00    +0.180 C 
ATOM     17  C   LIG    1       -4.757   1.637  -2.790  0.00  0.00    -0.090 C 
ATOM     18  C   LIG    1       -5.298   0.252  -3.153  0.00  0.00    -0.030 C 
ENDBRANCH  15  16
ENDBRANCH  12  15
ENDBRANCH   3  12
TORSDOF 3
ENDMDL
MODEL       20
REMARK  Name = ZINC000001569725
REMARK                            x       y       z     vdW  Elec       q    Type
REMARK                         _______ _______ _______ _____ _____    ______ ____
ROOT
ATOM      1  C   GLY A  2        1.780  -3.817   2.493  0.00  0.00    +0.510 C 
ATOM      2  N   GLY A  3        2.451  -4.487   3.451  0.00  0.00    -0.710 N 
ATOM      3  H   GLY A  3        2.920  -3.999   4.146  0.00  0.00    +0.420 HD
ATOM      4  O   GLY A  2        1.194  -4.426   1.624  0.00  0.00    -0.540 OA
ENDROOT
BRANCH   1   5
ATOM      5  CA  GLY A  2        1.760  -2.310   2.502  0.00  0.00    +0.300 C 
BRANCH   5   7
ATOM      6  C   GLY A  1        0.814  -0.502   1.170  0.00  0.00    +0.510 C 
ATOM      7  N   GLY A  2        0.971  -1.826   1.366  0.00  0.00    -0.720 N 
ATOM      8  H   GLY A  2        0.562  -2.459   0.755  0.00  0.00    +0.410 HD
ATOM      9  O   GLY A  1        1.325   0.289   1.934  0.00  0.00    -0.530 OA
BRANCH   6  10
ATOM     10  CA  GLY A  1        0.002  -0.004   0.002  0.00  0.00    +0.210 C 
BRANCH  10  11
ATOM     11  N   GLY A  1       -0.018   1.465   0.010  0.00  0.00    -0.830 NA
ATOM     12  H1  GLY A  1       -0.556   1.823  -0.764  0.00  0.00    +0.350 HD
ATOM     13  H2  GLY A  1        0.919   1.839   0.003  0.00  0.00    +0.350 HD
ENDBRANCH  10  11
ENDBRANCH   6  10
ENDBRANCH   5   7
ENDBRANCH   1   5
BRANCH   2  14
ATOM     14  CA  GLY A  3        2.470  -5.952   3.443  0.00  0.00    +0.300 C 
BRANCH  14  15
ATOM     15  C   GLY A  3        3.282  -6.450   4.612  0.00  0.00    +0.500 C 
ATOM     16  N   GLY A  4        3.439  -7.774   4.807  0.00  0.00    -0.690 N 
ATOM     17  H   GLY A  4        3.030  -8.406   4.196  0.00  0.00    +0.410 HD
ATOM     18  O   GLY A  3        3.793  -5.659   5.376  0.00  0.00    -0.560 OA
BRANCH  16  19
ATOM     19  CA  GLY A  4        4.228  -8.258   5.943  0.00  0.00    +0.190 C 
BRANCH  19  20
ATOM     20  C   GLY A  4        4.249  -9.764   5.935  0.00  0.00    +0.490 C 
ATOM     21  OXT GLY A  4        4.855 -10.371   6.801  0.00  0.00    -0.690 OA
ATOM     22  O   GLY A  4        3.659 -10.377   5.061  0.00  0.00    -0.690 OA
ENDBRANCH  19  20
ENDBRANCH  16  19
ENDBRANCH  14  15
ENDBRANCH   2  14
TORSDOF 8
ENDMDL
MODEL       21
REMARK  Name = ZINC000035126919
REMARK                            x       y       z     vdW  Elec       q    Type
REMARK                         _______ _______ _______ _____ _____    ______ ____
ROOT
ATOM      1  N   LIG    1        0.089  -2.570  -2.591  0.00  0.00    -0.530 NA
ATOM      2  C   LIG    1       -0.837  -1.768  -3.405  0.00  0.00    +0.170 C 
ATOM      3  C   LIG    1       -0.678  -2.150  -4.878  0.00  0.00    +0.150 C 
ATOM      4  N   LIG    1       -0.947  -3.586  -5.041  0.00  0.00    -0.510 NA
ATOM      5  C   LIG    1       -0.021  -4.387  -4.228  0.00  0.00    +0.190 C 
ATOM      6  C   LIG    1       -0.180  -4.005  -2.754  0.00  0.00    +0.180 C 
ENDROOT
BRANCH   1   7
ATOM      7  C   LIG    1        0.021  -2.178  -1.177  0.00  0.00    +0.200 C 
BRANCH   7  10
ATOM      8  C   LIG    1        2.307  -3.358   1.658  0.00  0.00    +0.290 C 
ATOM      9  N   LIG    1        1.213  -2.720   0.922  0.00  0.00    -0.630 N 
ATOM     10  C   LIG    1        1.146  -2.835  -0.419  0.00  0.00    +0.510 C 
ATOM     11  O   LIG    1        1.991  -3.467  -1.017  0.00  0.00    -0.510 OA
ATOM     12  C   LIG    1        0.192  -1.956   1.643  0.00  0.00    +0.280 C 
ENDBRANCH   7  10
ENDBRANCH   1   7
BRANCH   4  13
ATOM     13  C   LIG    1       -0.878  -3.977  -6.456  0.00  0.00    +0.090 C 
BRANCH  13  14
ATOM     14  C   LIG    1       -1.395  -5.384  -6.613  0.00  0.00    +0.500 C 
ATOM     15  O   LIG    1       -1.423  -5.902  -7.716  0.00  0.00    -0.710 OA
ATOM     16  O   LIG    1       -1.783  -6.003  -5.638  0.00  0.00    -0.680 OA
ENDBRANCH  13  14
ENDBRANCH   4  13
TORSDOF 4
ENDMDL
MODEL       22
REMARK  Name = ZINC000004762124
REMARK                            x       y       z     vdW  Elec       q    Type
REMARK                         _______ _______ _______ _____ _____    ______ ____
ROOT
ATOM      1  N   ILE A  3        1.535  -2.493  -2.410  0.00  0.00    -0.690 N 
ATOM      2  H   ILE A  3        2.131  -1.900  -2.893  0.00  0.00    +0.400 HD
ATOM      3  C   GLY A  2        1.337  -3.753  -2.848  0.00  0.00    +0.500 C 
ATOM      4  O   GLY A  2        0.591  -4.495  -2.245  0.00  0.00    -0.550 OA
ENDROOT
BRANCH   1   5
ATOM      5  CA  ILE A  3        0.849  -2.021  -1.205  0.00  0.00    +0.160 C 
BRANCH   5   6
ATOM      6  C   ILE A  3        1.645  -2.416   0.013  0.00  0.00    +0.490 C 
ATOM      7  OXT ILE A  3        2.857  -2.518  -0.058  0.00  0.00    -0.690 OA
ATOM      8  O   ILE A  3        1.075  -2.633   1.069  0.00  0.00    -0.690 OA
ENDBRANCH   5   6
BRANCH   5   9
ATOM      9  CB  ILE A  3        0.718  -0.497  -1.257  0.00  0.00    -0.010 C 
ATOM     10  CG2 ILE A  3       -0.089  -0.097  -2.493  0.00  0.00    +0.010 C 
BRANCH   9  12
ATOM     11  CD1 ILE A  3       -0.019   1.526   0.010  0.00  0.00    +0.000 C 
ATOM     12  CG1 ILE A  3        0.002  -0.004   0.002  0.00  0.00    +0.020 C 
ENDBRANCH   9  12
ENDBRANCH   5   9
ENDBRANCH   1   5
BRANCH   3  13
ATOM     13  CA  GLY A  2        2.042  -4.239  -4.088  0.00  0.00    +0.290 C 
BRANCH  13  14
ATOM     14  N   GLY A  2        1.664  -5.629  -4.352  0.00  0.00    -0.710 N 
ATOM     15  H   GLY A  2        1.044  -6.084  -3.760  0.00  0.00    +0.410 HD
ATOM     16  C   GLY A  1        2.175  -6.276  -5.418  0.00  0.00    +0.510 C 
ATOM     17  O   GLY A  1        2.950  -5.707  -6.158  0.00  0.00    -0.530 OA
BRANCH  16  18
ATOM     18  CA  GLY A  1        1.786  -7.706  -5.690  0.00  0.00    +0.210 C 
BRANCH  18  19
ATOM     19  N   GLY A  1        2.473  -8.180  -6.898  0.00  0.00    -0.830 NA
ATOM     20  H1  GLY A  1        2.228  -9.137  -7.102  0.00  0.00    +0.350 HD
ATOM     21  H2  GLY A  1        3.473  -8.073  -6.811  0.00  0.00    +0.350 HD
ENDBRANCH  18  19
ENDBRANCH  16  18
ENDBRANCH  13  14
ENDBRANCH   3  13
TORSDOF 8
ENDMDL
MODEL       23
REMARK  Name = ZINC000077011352
REMARK                            x       y       z     vdW  Elec       q    Type
REMARK                         _______ _______ _______ _____ _____    ______ ____
ROOT
ATOM      1  O   LIG    1        0.003  -0.004   0.025  0.00  0.00    -0.610 OA
ATOM      2  C   LIG    1       -0.014   1.217   0.021  0.00  0.00    +0.540 A 
ATOM      3  N   LIG    1       -1.185   1.887   0.041  0.00  0.00    -0.670 N 
ATOM      4  H   LIG    1       -2.023   1.399   0.058  0.00  0.00    +0.390 HD
ATOM      5  C   LIG    1       -1.192   3.248   0.037  0.00  0.00    +0.630 A 
ATOM      6  N   LIG    1       -0.071   3.938   0.013  0.00  0.00    -0.620 NA
ATOM      7  C   LIG    1        1.117   3.328  -0.007  0.00  0.00    +0.480 A 
ATOM      8  O   LIG    1        2.256   4.060  -0.031  0.00  0.00    -0.680 OA
ATOM      9  C   LIG    1        1.181   1.945   0.001  0.00  0.00    -0.480 A 
ENDROOT
BRANCH   5  10
ATOM     10  N   LIG    1       -2.389   3.913   0.058  0.00  0.00    -0.610 N 
ATOM     11  C   LIG    1       -2.439   5.379   0.172  0.00  0.00    +0.290 C 
ATOM     12  C   LIG    1       -3.350   5.918  -0.937  0.00  0.00    +0.220 C 
ATOM     13  O   LIG    1       -4.605   5.234  -0.889  0.00  0.00    -0.380 OA
ATOM     14  C   LIG    1       -4.515   3.828  -1.131  0.00  0.00    +0.220 C 
ATOM     15  C   LIG    1       -3.663   3.182  -0.038  0.00  0.00    +0.250 C 
ENDBRANCH   5  10
BRANCH   9  16
ATOM     16  C   LIG    1        2.511   1.238  -0.021  0.00  0.00    +0.120 C 
BRANCH  16  17
ATOM     17  C   LIG    1        2.933   0.897   1.409  0.00  0.00    +0.160 C 
BRANCH  17  18
ATOM     18  O   LIG    1        4.194   0.226   1.388  0.00  0.00    -0.580 OA
ATOM     19  H   LIG    1        4.523  -0.020   2.263  0.00  0.00    +0.360 HD
ENDBRANCH  17  18
ENDBRANCH  16  17
ENDBRANCH   9  16
TORSDOF 4
ENDMDL
MODEL       24
REMARK  Name = ZINC000002563303
REMARK                            x       y       z     vdW  Elec       q    Type
REMARK                         _______ _______ _______ _____ _____    ______ ____
ROOT
ATOM      1  N   ILE A  3        1.639  -2.482  -2.350  0.00  0.00    -0.690 N 
ATOM      2  H   ILE A  3        1.679  -1.948  -3.158  0.00  0.00    +0.390 HD
ATOM      3  C   GLY A  2        2.309  -3.650  -2.279  0.00  0.00    +0.510 C 
ATOM      4  O   GLY A  2        2.259  -4.318  -1.268  0.00  0.00    -0.550 OA
ENDROOT
BRANCH   1   5
ATOM      5  CA  ILE A  3        0.849  -2.021  -1.205  0.00  0.00    +0.150 C 
BRANCH   5   6
ATOM      6  C   ILE A  3       -0.521  -2.645  -1.256  0.00  0.00    +0.500 C 
ATOM      7  OXT ILE A  3       -1.275  -2.540  -0.303  0.00  0.00    -0.690 OA
ATOM      8  O   ILE A  3       -0.877  -3.256  -2.249  0.00  0.00    -0.690 OA
ENDBRANCH   5   6
BRANCH   5   9
ATOM      9  CB  ILE A  3        0.718  -0.497  -1.257  0.00  0.00    -0.020 C 
ATOM     10  CG2 ILE A  3       -0.089  -0.097  -2.493  0.00  0.00    +0.030 C 
BRANCH   9  12
ATOM     11  CD1 ILE A  3       -0.019   1.526   0.010  0.00  0.00    -0.010 C 
ATOM     12  CG1 ILE A  3        0.002  -0.004   0.002  0.00  0.00    +0.030 C 
ENDBRANCH   9  12
ENDBRANCH   5   9
ENDBRANCH   1   5
BRANCH   3  13
ATOM     13  CA  GLY A  2        3.121  -4.124  -3.457  0.00  0.00    +0.290 C 
BRANCH  13  14
ATOM     14  N   GLY A  2        3.747  -5.408  -3.132  0.00  0.00    -0.710 N 
ATOM     15  H   GLY A  2        3.602  -5.813  -2.263  0.00  0.00    +0.410 HD
ATOM     16  C   GLY A  1        4.526  -6.027  -4.042  0.00  0.00    +0.510 C 
ATOM     17  O   GLY A  1        4.708  -5.521  -5.129  0.00  0.00    -0.530 OA
BRANCH  16  18
ATOM     18  CA  GLY A  1        5.171  -7.348  -3.708  0.00  0.00    +0.210 C 
BRANCH  18  19
ATOM     19  N   GLY A  1        5.962  -7.810  -4.856  0.00  0.00    -0.830 NA
ATOM     20  H1  GLY A  1        6.405  -8.695  -4.656  0.00  0.00    +0.350 HD
ATOM     21  H2  GLY A  1        6.644  -7.118  -5.127  0.00  0.00    +0.350 HD
ENDBRANCH  18  19
ENDBRANCH  16  18
ENDBRANCH  13  14
ENDBRANCH   3  13
TORSDOF 8
ENDMDL
MODEL       25
REMARK  Name = ZINC000050027673
REMARK                            x       y       z     vdW  Elec       q    Type
REMARK                         _______ _______ _______ _____ _____    ______ ____
ROOT
ATOM      1  C   THR A  1        0.739  -2.004  -1.265  0.00  0.00    +0.520 C 
ATOM      2  N   GLN A  2       -0.353  -2.691  -1.658  0.00  0.00    -0.700 N 
ATOM      3  H   GLN A  2       -1.151  -2.215  -1.935  0.00  0.00    +0.390 HD
ATOM      4  O   THR A  1        1.737  -2.599  -0.918  0.00  0.00    -0.530 OA
ENDROOT
BRANCH   1   5
ATOM      5  CA  THR A  1        0.718  -0.497  -1.257  0.00  0.00    +0.190 C 
BRANCH   5   6
ATOM      6  N   THR A  1        2.096   0.011  -1.267  0.00  0.00    -0.820 NA
ATOM      7  H1  THR A  1        2.606  -0.310  -0.458  0.00  0.00    +0.360 HD
ATOM      8  H2  THR A  1        2.110   1.018  -1.327  0.00  0.00    +0.340 HD
ENDBRANCH   5   6
BRANCH   5  10
ATOM      9  CG2 THR A  1       -0.019   1.526   0.010  0.00  0.00    +0.000 C 
ATOM     10  CB  THR A  1        0.002  -0.004   0.002  0.00  0.00    +0.140 C 
BRANCH  10  11
ATOM     11  OG1 THR A  1        0.693  -0.477   1.160  0.00  0.00    -0.550 OA
ATOM     12  HG1 THR A  1        0.294  -0.202   1.996  0.00  0.00    +0.380 HD
ENDBRANCH  10  11
ENDBRANCH   5  10
ENDBRANCH   1   5
BRANCH   2  13
ATOM     13  CA  GLN A  2       -0.333  -4.156  -1.666  0.00  0.00    +0.160 C 
BRANCH  13  14
ATOM     14  C   GLN A  2       -0.681  -4.670  -0.293  0.00  0.00    +0.490 C 
ATOM     15  OXT GLN A  2       -0.222  -5.732   0.095  0.00  0.00    -0.700 OA
ATOM     16  O   GLN A  2       -1.420  -4.025   0.431  0.00  0.00    -0.690 OA
ENDBRANCH  13  14
BRANCH  13  17
ATOM     17  CB  GLN A  2       -1.355  -4.674  -2.679  0.00  0.00    +0.060 C 
BRANCH  17  18
ATOM     18  CG  GLN A  2       -0.934  -4.256  -4.089  0.00  0.00    +0.040 C 
BRANCH  18  19
ATOM     19  CD  GLN A  2       -1.941  -4.766  -5.087  0.00  0.00    +0.510 C 
ATOM     20  OE1 GLN A  2       -2.902  -5.402  -4.707  0.00  0.00    -0.540 OA
ATOM     21  NE2 GLN A  2       -1.774  -4.516  -6.400  0.00  0.00    -0.860 N 
ATOM     22 HE21 GLN A  2       -2.423  -4.845  -7.043  0.00  0.00    +0.400 HD
ATOM     23 HE22 GLN A  2       -1.006  -4.008  -6.704  0.00  0.00    +0.400 HD
ENDBRANCH  18  19
ENDBRANCH  17  18
ENDBRANCH  13  17
ENDBRANCH   2  13
TORSDOF 9
ENDMDL
MODEL       26
REMARK  Name = ZINC000069486009
REMARK                            x       y       z     vdW  Elec       q    Type
REMARK                         _______ _______ _______ _____ _____    ______ ____
ROOT
ATOM      1  C   THR A  1        0.739  -2.004  -1.265  0.00  0.00    +0.480 C 
ATOM      2  N   GLN A  2        1.649  -2.670  -0.527  0.00  0.00    -0.680 N 
ATOM      3  H   GLN A  2        2.291  -2.179   0.009  0.00  0.00    +0.400 HD
ATOM      4  O   THR A  1       -0.064  -2.618  -1.936  0.00  0.00    -0.560 OA
ENDROOT
BRANCH   1   5
ATOM      5  CA  THR A  1        0.718  -0.497  -1.257  0.00  0.00    +0.190 C 
BRANCH   5   6
ATOM      6  N   THR A  1        0.008  -0.011  -2.447  0.00  0.00    -0.820 NA
ATOM      7  H1  THR A  1       -0.943  -0.347  -2.463  0.00  0.00    +0.350 HD
ATOM      8  H2  THR A  1        0.497  -0.269  -3.291  0.00  0.00    +0.350 HD
ENDBRANCH   5   6
BRANCH   5  10
ATOM      9  CG2 THR A  1       -0.019   1.526   0.010  0.00  0.00    +0.020 C 
ATOM     10  CB  THR A  1        0.002  -0.004   0.002  0.00  0.00    +0.180 C 
BRANCH  10  11
ATOM     11  OG1 THR A  1        0.693  -0.477   1.160  0.00  0.00    -0.560 OA
ATOM     12  HG1 THR A  1        0.294  -0.202   1.996  0.00  0.00    +0.380 HD
ENDBRANCH  10  11
ENDBRANCH   5  10
ENDBRANCH   1   5
BRANCH   2  13
ATOM     13  CA  GLN A  2        1.669  -4.135  -0.535  0.00  0.00    +0.150 C 
BRANCH  13  14
ATOM     14  C   GLN A  2        2.479  -4.620  -1.709  0.00  0.00    +0.490 C 
ATOM     15  OXT GLN A  2        2.211  -5.686  -2.236  0.00  0.00    -0.690 OA
ATOM     16  O   GLN A  2        3.403  -3.946  -2.132  0.00  0.00    -0.690 OA
ENDBRANCH  13  14
BRANCH  13  17
ATOM     17  CB  GLN A  2        2.298  -4.644   0.764  0.00  0.00    +0.060 C 
BRANCH  17  18
ATOM     18  CG  GLN A  2        1.408  -4.257   1.947  0.00  0.00    +0.050 C 
BRANCH  18  19
ATOM     19  CD  GLN A  2        2.027  -4.758   3.226  0.00  0.00    +0.520 C 
ATOM     20  OE1 GLN A  2        3.077  -5.365   3.194  0.00  0.00    -0.540 OA
ATOM     21  NE2 GLN A  2        1.415  -4.533   4.405  0.00  0.00    -0.860 N 
ATOM     22 HE21 GLN A  2        1.813  -4.855   5.228  0.00  0.00    +0.400 HD
ATOM     23 HE22 GLN A  2        0.575  -4.048   4.430  0.00  0.00    +0.400 HD
ENDBRANCH  18  19
ENDBRANCH  17  18
ENDBRANCH  13  17
ENDBRANCH   2  13
TORSDOF 9
ENDMDL
MODEL       27
REMARK  Name = ZINC000095617488
REMARK                            x       y       z     vdW  Elec       q    Type
REMARK                         _______ _______ _______ _____ _____    ______ ____
ROOT
ATOM      1  C   LIG    1       -1.413  -2.041   0.005  0.00  0.00    -0.070 C 
ATOM      2  N   LIG    1       -0.281  -2.655  -0.004  0.00  0.00    -0.310 NA
ATOM      3  C   LIG    1       -0.202  -4.014  -0.045  0.00  0.00    -0.280 A 
ATOM      4  C   LIG    1       -1.339  -4.773  -0.355  0.00  0.00    +0.460 A 
ATOM      5  N   LIG    1       -2.517  -4.104  -0.634  0.00  0.00    -0.730 N 
ATOM      6  H   LIG    1       -3.184  -4.483  -1.228  0.00  0.00    +0.400 HD
ATOM      7  N   LIG    1       -1.266  -6.102  -0.384  0.00  0.00    -0.690 NA
ATOM      8  C   LIG    1       -0.128  -6.723  -0.144  0.00  0.00    +0.620 A 
ATOM      9  N   LIG    1        1.015  -6.040   0.141  0.00  0.00    -0.710 NA
ATOM     10  C   LIG    1        1.011  -4.690   0.194  0.00  0.00    +0.560 A 
ATOM     11  O   LIG    1        2.032  -4.071   0.443  0.00  0.00    -0.580 OA
ATOM     12  C   LIG    1       -2.717  -2.795   0.013  0.00  0.00    +0.280 C 
ENDROOT
BRANCH   8  13
ATOM     13  N   LIG    1       -0.094  -8.091  -0.182  0.00  0.00    -0.830 N 
ATOM     14  H   LIG    1        0.736  -8.560  -0.007  0.00  0.00    +0.400 HD
ATOM     15  H   LIG    1       -0.901  -8.590  -0.384  0.00  0.00    +0.400 HD
ENDBRANCH   8  13
BRANCH   1  16
ATOM     16  C   LIG    1       -1.433  -0.534   0.013  0.00  0.00    +0.250 C 
BRANCH  16  18
ATOM     17  C   LIG    1       -0.019   1.526   0.010  0.00  0.00    +0.000 C 
ATOM     18  C   LIG    1        0.002  -0.004   0.002  0.00  0.00    +0.190 C 
BRANCH  18  19
ATOM     19  O   LIG    1        0.693  -0.477   1.160  0.00  0.00    -0.520 OA
ATOM     20  H   LIG    1        0.294  -0.202   1.996  0.00  0.00    +0.360 HD
ENDBRANCH  18  19
ENDBRANCH  16  18
BRANCH  16  21
ATOM     21  O   LIG    1       -2.124  -0.060  -1.145  0.00  0.00    -0.560 OA
ATOM     22  H   LIG    1       -1.725  -0.336  -1.981  0.00  0.00    +0.380 HD
ENDBRANCH  16  21
ENDBRANCH   1  16
TORSDOF 5
ENDMDL
MODEL       28
REMARK  Name = ZINC000095180228
REMARK                            x       y       z     vdW  Elec       q    Type
REMARK                         _______ _______ _______ _____ _____    ______ ____
ROOT
ATOM      1  C   LIG    1        0.000  -0.688  -1.197  0.00  0.00    +0.620 A 
ATOM      2  N   LIG    1        0.013  -2.016  -1.205  0.00  0.00    -0.660 NA
ATOM      3  C   LIG    1        0.010  -2.670  -2.362  0.00  0.00    +0.620 A 
ATOM      4  N   LIG    1       -0.005  -1.992  -3.507  0.00  0.00    -0.620 NA
ATOM      5  C   LIG    1       -0.017  -0.670  -3.495  0.00  0.00    +0.450 A 
ATOM      6  N   LIG    1       -0.020  -0.017  -2.346  0.00  0.00    -0.620 NA
ENDROOT
BRANCH   1   8
ATOM      7  C   LIG    1       -0.018   1.461   0.010  0.00  0.00    +0.310 C 
ATOM      8  N   LIG    1        0.002  -0.004   0.002  0.00  0.00    -0.590 N 
ATOM      9  C   LIG    1        0.024  -0.743   1.267  0.00  0.00    +0.300 C 
ENDBRANCH   1   8
BRANCH   3  10
ATOM     10  N   LIG    1        0.022  -4.049  -2.376  0.00  0.00    -0.810 N 
ATOM     11  H   LIG    1        0.021  -4.526  -3.220  0.00  0.00    +0.420 HD
ATOM     12  H   LIG    1        0.033  -4.543  -1.541  0.00  0.00    +0.410 HD
ENDBRANCH   3  10
BRANCH   5  13
ATOM     13  C   LIG    1       -0.034   0.093  -4.794  0.00  0.00    +0.260 C 
BRANCH  13  14
ATOM     14  C   LIG    1       -1.461   0.334  -5.216  0.00  0.00    +0.060 A 
ATOM     15  N   LIG    1       -2.206  -0.459  -5.972  0.00  0.00    -0.370 NA
ATOM     16  N   LIG    1       -3.361   0.099  -6.103  0.00  0.00    -0.200 NA
ATOM     17  N   LIG    1       -3.364   1.212  -5.456  0.00  0.00    -0.200 NA
ATOM     18  N   LIG    1       -2.213   1.378  -4.899  0.00  0.00    -0.370 NA
ENDBRANCH  13  14
ENDBRANCH   5  13
TORSDOF 4
ENDMDL
MODEL       29
REMARK  Name = ZINC000095180228
REMARK                            x       y       z     vdW  Elec       q    Type
REMARK                         _______ _______ _______ _____ _____    ______ ____
ROOT
ATOM      1  C   LIG    1        0.000  -0.688  -1.197  0.00  0.00    +0.620 A 
ATOM      2  N   LIG    1        0.013  -2.016  -1.205  0.00  0.00    -0.660 NA
ATOM      3  C   LIG    1        0.010  -2.670  -2.362  0.00  0.00    +0.620 A 
ATOM      4  N   LIG    1       -0.005  -1.992  -3.507  0.00  0.00    -0.620 NA
ATOM      5  C   LIG    1       -0.017  -0.670  -3.495  0.00  0.00    +0.450 A 
ATOM      6  N   LIG    1       -0.020  -0.017  -2.346  0.00  0.00    -0.620 NA
ENDROOT
BRANCH   1   8
ATOM      7  C   LIG    1       -0.018   1.461   0.010  0.00  0.00    +0.310 C 
ATOM      8  N   LIG    1        0.002  -0.004   0.002  0.00  0.00    -0.590 N 
ATOM      9  C   LIG    1        0.024  -0.743   1.267  0.00  0.00    +0.300 C 
ENDBRANCH   1   8
BRANCH   3  10
ATOM     10  N   LIG    1        0.022  -4.049  -2.376  0.00  0.00    -0.810 N 
ATOM     11  H   LIG    1        0.021  -4.526  -3.220  0.00  0.00    +0.420 HD
ATOM     12  H   LIG    1        0.033  -4.543  -1.541  0.00  0.00    +0.410 HD
ENDBRANCH   3  10
BRANCH   5  13
ATOM     13  C   LIG    1       -0.034   0.093  -4.794  0.00  0.00    +0.260 C 
BRANCH  13  14
ATOM     14  C   LIG    1       -1.461   0.334  -5.216  0.00  0.00    +0.060 A 
ATOM     15  N   LIG    1       -2.202  -0.458  -5.970  0.00  0.00    -0.370 NA
ATOM     16  N   LIG    1       -3.358   0.098  -6.102  0.00  0.00    -0.200 NA
ATOM     17  N   LIG    1       -3.361   1.212  -5.455  0.00  0.00    -0.200 NA
ATOM     18  N   LIG    1       -2.209   1.375  -4.899  0.00  0.00    -0.370 NA
ENDBRANCH  13  14
ENDBRANCH   5  13
TORSDOF 4
ENDMDL
MODEL       30
REMARK  Name = ZINC000028568295
REMARK                            x       y       z     vdW  Elec       q    Type
REMARK                         _______ _______ _______ _____ _____    ______ ____
ROOT
ATOM      1  C   LIG    1       -1.136  -2.159   0.001  0.00  0.00    +0.410 C 
ATOM      2  N   LIG    1       -1.474  -2.660   1.339  0.00  0.00    -0.700 NA
ATOM      3  H   LIG    1       -0.871  -2.256   2.040  0.00  0.00    +0.340 HD
ATOM      4  C   LIG    1       -1.425  -4.127   1.385  0.00  0.00    +0.210 C 
ATOM      5  C   LIG    1       -2.456  -4.704   0.412  0.00  0.00    -0.110 C 
ATOM      6  C   LIG    1       -2.148  -4.208  -1.003  0.00  0.00    +0.160 C 
ATOM      7  C   LIG    1       -2.159  -2.677  -1.012  0.00  0.00    +0.180 C 
ENDROOT
BRANCH   1  10
ATOM      8  C   LIG    1       -0.018   1.503   0.010  0.00  0.00    +0.100 C 
ATOM      9  C   LIG    1        0.002  -0.004   0.002  0.00  0.00    +0.510 C 
ATOM     10  N   LIG    1       -1.156  -0.694   0.009  0.00  0.00    -0.710 N 
ATOM     11  H   LIG    1       -2.002  -0.220   0.020  0.00  0.00    +0.400 HD
ATOM     12  O   LIG    1        1.060  -0.596  -0.011  0.00  0.00    -0.550 OA
ENDBRANCH   1  10
BRANCH   5  13
ATOM     13  C   LIG    1       -2.391  -6.209   0.445  0.00  0.00    +0.500 C 
ATOM     14  O   LIG    1       -2.126  -6.830  -0.571  0.00  0.00    -0.690 OA
ATOM     15  O   LIG    1       -2.602  -6.806   1.486  0.00  0.00    -0.690 OA
ENDBRANCH   5  13
BRANCH   6  16
ATOM     16  O   LIG    1       -0.861  -4.681  -1.406  0.00  0.00    -0.570 OA
ATOM     17  H   LIG    1       -0.783  -5.645  -1.418  0.00  0.00    +0.390 HD
ENDBRANCH   6  16
BRANCH   7  18
ATOM     18  O   LIG    1       -1.818  -2.205  -2.318  0.00  0.00    -0.560 OA
ATOM     19  H   LIG    1       -2.424  -2.499  -3.012  0.00  0.00    +0.380 HD
ENDBRANCH   7  18
TORSDOF 4
ENDMDL
MODEL       31
REMARK  Name = ZINC000001748134
REMARK                            x       y       z     vdW  Elec       q    Type
REMARK                         _______ _______ _______ _____ _____    ______ ____
ROOT
ATOM      1  C   LIG    1        0.631  -2.613   1.087  0.00  0.00    -0.770 A 
ATOM      2  C   LIG    1        1.619  -3.266   0.440  0.00  0.00    +0.300 A 
ATOM      3  N   LIG    1        1.402  -4.534  -0.026  0.00  0.00    -0.640 N 
ATOM      4  H   LIG    1        2.112  -5.004  -0.491  0.00  0.00    +0.430 HD
ATOM      5  C   LIG    1        0.212  -5.136   0.155  0.00  0.00    +0.710 A 
ATOM      6  N   LIG    1       -0.790  -4.508   0.797  0.00  0.00    -0.660 N 
ATOM      7  H   LIG    1       -1.642  -4.957   0.918  0.00  0.00    +0.430 HD
ATOM      8  O   LIG    1        0.040  -6.263  -0.268  0.00  0.00    -0.560 OA
ATOM      9  C   LIG    1        2.956  -2.602   0.232  0.00  0.00    +0.180 C 
ATOM     10  C   LIG    1       -0.614  -3.260   1.276  0.00  0.00    +0.580 A 
ATOM     11  O   LIG    1       -1.520  -2.692   1.858  0.00  0.00    -0.470 OA
ENDROOT
BRANCH   1  12
ATOM     12  S   LIG    1        0.889  -0.980   1.696  0.00  0.00    +2.600 S 
ATOM     13  O   LIG    1       -0.111  -0.755   2.680  0.00  0.00    -1.030 OA
ATOM     14  O   LIG    1        2.280  -0.866   1.961  0.00  0.00    -1.060 OA
BRANCH  12  16
ATOM     15  C   LIG    1        0.691   1.509   0.656  0.00  0.00    +0.130 C 
ATOM     16  N   LIG    1        0.563   0.064   0.452  0.00  0.00    -1.170 NA
ENDBRANCH  12  16
ENDBRANCH   1  12
TORSDOF 2
ENDMDL
MODEL       32
REMARK  Name = ZINC000002561107
REMARK                            x       y       z     vdW  Elec       q    Type
REMARK                         _______ _______ _______ _____ _____    ______ ____
ROOT
ATOM      1  C   SER A  1        0.621  -0.491  -1.283  0.00  0.00    +0.480 C 
ATOM      2  N   GLY A  2        1.114  -1.743  -1.362  0.00  0.00    -0.710 N 
ATOM      3  H   GLY A  2        1.071  -2.330  -0.591  0.00  0.00    +0.410 HD
ATOM      4  O   SER A  1        0.674   0.243  -2.247  0.00  0.00    -0.540 OA
ENDROOT
BRANCH   1   5
ATOM      5  CA  SER A  1        0.002  -0.004   0.002  0.00  0.00    +0.190 C 
BRANCH   5   6
ATOM      6  N   SER A  1       -0.018   1.465   0.010  0.00  0.00    -0.810 NA
ATOM      7  H1  SER A  1       -0.556   1.823  -0.764  0.00  0.00    +0.350 HD
ATOM      8  H2  SER A  1        0.919   1.839   0.003  0.00  0.00    +0.350 HD
ENDBRANCH   5   6
BRANCH   5   9
ATOM      9  CB  SER A  1       -1.429  -0.534   0.112  0.00  0.00    +0.200 C 
BRANCH   9  10
ATOM     10  OG  SER A  1       -1.975  -0.170   1.382  0.00  0.00    -0.560 OA
ATOM     11  H   SER A  1       -2.882  -0.474   1.521  0.00  0.00    +0.380 HD
ENDBRANCH   9  10
ENDBRANCH   5   9
ENDBRANCH   1   5
BRANCH   2  12
ATOM     12  CA  GLY A  2        1.715  -2.216  -2.611  0.00  0.00    +0.300 C 
BRANCH  12  13
ATOM     13  C   GLY A  2        2.185  -3.637  -2.435  0.00  0.00    +0.500 C 
ATOM     14  N   GLY A  3        2.775  -4.283  -3.461  0.00  0.00    -0.690 N 
ATOM     15  H   GLY A  3        2.897  -3.834  -4.311  0.00  0.00    +0.410 HD
ATOM     16  O   GLY A  2        2.033  -4.199  -1.371  0.00  0.00    -0.560 OA
BRANCH  14  17
ATOM     17  CA  GLY A  3        3.232  -5.665  -3.290  0.00  0.00    +0.190 C 
BRANCH  17  18
ATOM     18  C   GLY A  3        3.850  -6.152  -4.575  0.00  0.00    +0.490 C 
ATOM     19  OXT GLY A  3        4.297  -7.284  -4.646  0.00  0.00    -0.690 OA
ATOM     20  O   GLY A  3        3.904  -5.413  -5.544  0.00  0.00    -0.690 OA
ENDBRANCH  17  18
ENDBRANCH  14  17
ENDBRANCH  12  13
ENDBRANCH   2  12
TORSDOF 8
ENDMDL
MODEL       33
REMARK  Name = ZINC000020135885
REMARK                            x       y       z     vdW  Elec       q    Type
REMARK                         _______ _______ _______ _____ _____    ______ ____
ROOT
ATOM      1  C   LIG    1       -2.479   0.941   0.019  0.00  0.00    +0.130 C 
ENDROOT
BRANCH   1   2
ATOM      2  N   LIG    1       -2.466   0.185  -1.240  0.00  0.00    -0.480 NA
ATOM      3  C   LIG    1       -2.538   1.088  -2.398  0.00  0.00    +0.210 C 
ATOM      4  C   LIG    1       -2.463   0.267  -3.687  0.00  0.00    +0.250 C 
ATOM      5  N   LIG    1       -3.575  -0.692  -3.723  0.00  0.00    -0.500 N 
ATOM      6  C   LIG    1       -3.475  -1.603  -2.575  0.00  0.00    +0.260 C 
ATOM      7  H   LIG    1       -3.531  -1.225  -4.579  0.00  0.00    +0.410 HD
ATOM      8  H   LIG    1       -4.450  -0.193  -3.682  0.00  0.00    +0.420 HD
ATOM      9  C   LIG    1       -3.559  -0.797  -1.276  0.00  0.00    +0.200 C 
ENDBRANCH   1   2
BRANCH   1  10
ATOM     10  C   LIG    1       -3.790   1.672   0.153  0.00  0.00    +0.470 C 
ATOM     11  O   LIG    1       -4.082   2.212   1.206  0.00  0.00    -0.690 OA
ATOM     12  O   LIG    1       -4.559   1.723  -0.792  0.00  0.00    -0.720 OA
ENDBRANCH   1  10
BRANCH   1  13
ATOM     13  C   LIG    1       -1.330   1.951   0.019  0.00  0.00    -0.050 C 
BRANCH  13  15
ATOM     14  O   LIG    1        0.002  -0.004   0.002  0.00  0.00    -0.680 OA
ATOM     15  C   LIG    1       -0.015   1.215   0.009  0.00  0.00    +0.500 C 
ATOM     16  O   LIG    1        1.033   1.839   0.002  0.00  0.00    -0.720 OA
ENDBRANCH  13  15
ENDBRANCH   1  13
TORSDOF 4
ENDMDL
MODEL       34
REMARK  Name = ZINC000020135881
REMARK                            x       y       z     vdW  Elec       q    Type
REMARK                         _______ _______ _______ _____ _____    ______ ____
ROOT
ATOM      1  C   LIG    1       -2.552   1.032   0.065  0.00  0.00    +0.080 C 
ENDROOT
BRANCH   1   2
ATOM      2  N   LIG    1       -2.601   0.346   1.363  0.00  0.00    -0.510 NA
ATOM      3  C   LIG    1       -1.261  -0.091   1.778  0.00  0.00    +0.180 C 
ATOM      4  C   LIG    1       -1.347  -0.746   3.158  0.00  0.00    +0.250 C 
ATOM      5  N   LIG    1       -2.259  -1.896   3.099  0.00  0.00    -0.500 N 
ATOM      6  C   LIG    1       -3.599  -1.440   2.707  0.00  0.00    +0.270 C 
ATOM      7  H   LIG    1       -2.306  -2.335   4.006  0.00  0.00    +0.420 HD
ATOM      8  H   LIG    1       -1.918  -2.561   2.421  0.00  0.00    +0.420 HD
ATOM      9  C   LIG    1       -3.532  -0.791   1.323  0.00  0.00    +0.200 C 
ENDBRANCH   1   2
BRANCH   1  10
ATOM     10  C   LIG    1       -3.886   1.678  -0.213  0.00  0.00    +0.510 C 
ATOM     11  O   LIG    1       -4.580   2.065   0.711  0.00  0.00    -0.710 OA
ATOM     12  O   LIG    1       -4.270   1.812  -1.362  0.00  0.00    -0.650 OA
ENDBRANCH   1  10
BRANCH   1  13
ATOM     13  C   LIG    1       -1.463   2.106   0.096  0.00  0.00    -0.060 C 
BRANCH  13  15
ATOM     14  O   LIG    1       -1.950   2.264  -2.213  0.00  0.00    -0.650 OA
ATOM     15  C   LIG    1       -1.328   2.724  -1.272  0.00  0.00    +0.480 C 
ATOM     16  O   LIG    1       -0.599   3.688  -1.435  0.00  0.00    -0.730 OA
ENDBRANCH  13  15
ENDBRANCH   1  13
TORSDOF 4
ENDMDL
MODEL       35
REMARK  Name = ZINC000098179607
REMARK                            x       y       z     vdW  Elec       q    Type
REMARK                         _______ _______ _______ _____ _____    ______ ____
ROOT
ATOM      1  C   LIG    1        0.771  -2.068  -1.074  0.00  0.00    +0.090 A 
ATOM      2  C   LIG    1        1.178  -2.684  -2.221  0.00  0.00    +0.000 A 
ATOM      3  C   LIG    1        1.095  -4.155  -2.291  0.00  0.00    +0.510 A 
ATOM      4  N   LIG    1        0.623  -4.832  -1.224  0.00  0.00    -0.680 NA
ATOM      5  C   LIG    1        0.235  -4.177  -0.117  0.00  0.00    +0.650 A 
ATOM      6  O   LIG    1       -0.186  -4.815   0.829  0.00  0.00    -0.600 OA
ATOM      7  O   LIG    1        1.447  -4.748  -3.294  0.00  0.00    -0.570 OA
ATOM      8  N   LIG    1        0.303  -2.839  -0.021  0.00  0.00    -0.660 N 
ATOM      9  H   LIG    1        0.013  -2.404   0.795  0.00  0.00    +0.400 HD
ENDROOT
BRANCH   1  10
ATOM     10  C   LIG    1        0.834  -0.600  -0.953  0.00  0.00    +0.510 C 
ATOM     11  O   LIG    1        1.338   0.061  -1.839  0.00  0.00    -0.480 OA
BRANCH  10  13
ATOM     12  C   LIG    1        0.429   1.456   0.192  0.00  0.00    +0.260 C 
ATOM     13  O   LIG    1        0.333   0.008   0.140  0.00  0.00    -0.360 OA
ENDBRANCH  10  13
ENDBRANCH   1  10
BRANCH   2  14
ATOM     14  O   LIG    1        1.647  -1.963  -3.270  0.00  0.00    -0.310 OA
ATOM     15  C   LIG    1        3.023  -2.138  -3.614  0.00  0.00    +0.230 C 
ENDBRANCH   2  14
TORSDOF 3
ENDMDL
MODEL       36
REMARK  Name = ZINC000070817945
REMARK                            x       y       z     vdW  Elec       q    Type
REMARK                         _______ _______ _______ _____ _____    ______ ____
ROOT
ATOM      1  C   LIG    1        1.419  -2.501  -2.460  0.00  0.00    +0.010 C 
ATOM      2  C   LIG    1        2.950  -2.583  -2.323  0.00  0.00    +0.310 C 
ATOM      3  N   LIG    1        2.831  -3.924  -2.929  0.00  0.00    -1.040 NA
ATOM      4  C   LIG    1        1.436  -4.040  -2.462  0.00  0.00    +0.310 C 
ENDROOT
BRANCH   3   5
ATOM      5  S   LIG    1        3.853  -4.904  -3.788  0.00  0.00    +2.630 S 
ATOM      6  O   LIG    1        4.765  -4.005  -4.404  0.00  0.00    -0.960 OA
ATOM      7  O   LIG    1        2.986  -5.716  -4.567  0.00  0.00    -0.960 OA
ATOM      8  C   LIG    1        4.694  -5.898  -2.526  0.00  0.00    -0.310 C 
ENDBRANCH   3   5
BRANCH   1  10
ATOM      9  N   LIG    1        0.646  -0.565  -1.127  0.00  0.00    -0.600 NA
ATOM     10  C   LIG    1        0.733  -1.904  -1.258  0.00  0.00    +0.410 C 
ATOM     11  O   LIG    1        0.261  -2.628  -0.407  0.00  0.00    -0.680 OA
BRANCH   9  13
ATOM     12  C   LIG    1       -0.017   1.425   0.010  0.00  0.00    +0.160 C 
ATOM     13  O   LIG    1        0.002  -0.004   0.002  0.00  0.00    -0.280 OA
ENDBRANCH   9  13
ENDBRANCH   1  10
TORSDOF 3
ENDMDL
MODEL       37
REMARK  Name = ZINC000001400450
REMARK                            x       y       z     vdW  Elec       q    Type
REMARK                         _______ _______ _______ _____ _____    ______ ____
ROOT
ATOM      1  C   LIG    1        0.679  -2.115   1.088  0.00  0.00    +0.030 C 
ATOM      2  C   LIG    1       -0.741  -2.684   1.130  0.00  0.00    +0.000 C 
ATOM      3  C   LIG    1       -0.706  -4.157   1.427  0.00  0.00    +0.430 C 
ATOM      4  N   LIG    1        0.345  -4.748   2.014  0.00  0.00    -0.490 NA
ATOM      5  N   LIG    1        1.492  -4.019   2.357  0.00  0.00    -0.830 NA
ATOM      6  O   LIG    1       -1.663  -4.836   1.124  0.00  0.00    -0.640 OA
ATOM      7  C   LIG    1        1.426  -2.550   2.356  0.00  0.00    +0.260 C 
ENDROOT
BRANCH   5   8
ATOM      8  S   LIG    1        2.899  -4.797   2.754  0.00  0.00    +2.650 S 
ATOM      9  O   LIG    1        3.911  -3.821   2.546  0.00  0.00    -0.980 OA
ATOM     10  O   LIG    1        2.866  -5.994   1.988  0.00  0.00    -0.950 OA
ATOM     11  C   LIG    1        2.728  -5.169   4.521  0.00  0.00    -0.320 C 
ENDBRANCH   5   8
BRANCH   1  12
ATOM     12  C   LIG    1        0.618  -0.611   1.029  0.00  0.00    +0.470 C 
ATOM     13  O   LIG    1        1.124   0.049   1.905  0.00  0.00    -0.510 OA
BRANCH  12  15
ATOM     14  C   LIG    1       -0.018   1.448   0.010  0.00  0.00    +0.250 C 
ATOM     15  O   LIG    1        0.002  -0.004   0.002  0.00  0.00    -0.360 OA
ENDBRANCH  12  15
ENDBRANCH   1  12
TORSDOF 3
ENDMDL
MODEL       38
REMARK  Name = ZINC000001575500
REMARK                            x       y       z     vdW  Elec       q    Type
REMARK                         _______ _______ _______ _____ _____    ______ ____
ROOT
ATOM      1  N   ALA A  3       -1.372  -0.511   0.012  0.00  0.00    -0.690 N 
ATOM      2  H   ALA A  3       -1.794  -0.752   0.852  0.00  0.00    +0.410 HD
ATOM      3  C   GLY A  2       -2.051  -0.643  -1.145  0.00  0.00    +0.500 C 
ATOM      4  O   GLY A  2       -1.524  -0.341  -2.194  0.00  0.00    -0.560 OA
ENDROOT
BRANCH   1   6
ATOM      5  CB  ALA A  3       -0.019   1.526   0.010  0.00  0.00    +0.030 C 
ATOM      6  CA  ALA A  3        0.002  -0.004   0.002  0.00  0.00    +0.150 C 
BRANCH   6   7
ATOM      7  C   ALA A  3        0.731  -0.503   1.223  0.00  0.00    +0.500 C 
ATOM      8  OXT ALA A  3        1.937  -0.350   1.318  0.00  0.00    -0.690 OA
ATOM      9  O   ALA A  3        0.115  -1.060   2.115  0.00  0.00    -0.690 OA
ENDBRANCH   6   7
ENDBRANCH   1   6
BRANCH   3  10
ATOM     10  CA  GLY A  2       -3.465  -1.164  -1.134  0.00  0.00    +0.300 C 
BRANCH  10  11
ATOM     11  N   GLY A  2       -3.978  -1.213  -2.505  0.00  0.00    -0.720 N 
ATOM     12  H   GLY A  2       -3.416  -0.931  -3.244  0.00  0.00    +0.410 HD
ATOM     13  C   GLY A  1       -5.231  -1.650  -2.741  0.00  0.00    +0.510 C 
ATOM     14  O   GLY A  1       -5.933  -2.003  -1.818  0.00  0.00    -0.530 OA
BRANCH  13  15
ATOM     15  CA  GLY A  1       -5.758  -1.700  -4.152  0.00  0.00    +0.210 C 
BRANCH  15  16
ATOM     16  N   GLY A  1       -7.136  -2.209  -4.141  0.00  0.00    -0.830 NA
ATOM     17  H1  GLY A  1       -7.513  -2.252  -5.077  0.00  0.00    +0.350 HD
ATOM     18  H2  GLY A  1       -7.723  -1.650  -3.541  0.00  0.00    +0.350 HD
ENDBRANCH  15  16
ENDBRANCH  13  15
ENDBRANCH  10  11
ENDBRANCH   3  10
TORSDOF 6
ENDMDL
MODEL       39
REMARK  Name = ZINC000001576193
REMARK                            x       y       z     vdW  Elec       q    Type
REMARK                         _______ _______ _______ _____ _____    ______ ____
ROOT
ATOM      1  C   LIG    1       -0.023   0.089  -2.470  0.00  0.00    +0.300 C 
ENDROOT
BRANCH   1   4
ATOM      2  C   LIG    1       -0.018   1.461   0.010  0.00  0.00    +0.270 C 
ATOM      3  N   LIG    1        0.002  -0.004   0.002  0.00  0.00    -0.580 N 
ATOM      4  C   LIG    1        0.000  -0.672  -1.169  0.00  0.00    +0.510 C 
ATOM      5  O   LIG    1        0.017  -1.884  -1.175  0.00  0.00    -0.550 OA
BRANCH   3   6
ATOM      6  C   LIG    1        0.024  -0.743   1.267  0.00  0.00    +0.200 C 
BRANCH   6   7
ATOM      7  C   LIG    1       -1.389  -1.016   1.714  0.00  0.00    +0.480 C 
ATOM      8  O   LIG    1       -1.594  -1.624   2.751  0.00  0.00    -0.700 OA
ATOM      9  O   LIG    1       -2.327  -0.629   1.039  0.00  0.00    -0.690 OA
ENDBRANCH   6   7
ENDBRANCH   3   6
ENDBRANCH   1   4
BRANCH   1  10
ATOM     10  N   LIG    1       -0.020  -0.857  -3.588  0.00  0.00    -0.720 N 
ATOM     11  H   LIG    1       -0.006  -1.812  -3.416  0.00  0.00    +0.410 HD
ATOM     12  C   LIG    1       -0.039  -0.401  -4.856  0.00  0.00    +0.510 C 
ATOM     13  O   LIG    1       -0.057   0.792  -5.072  0.00  0.00    -0.530 OA
BRANCH  12  14
ATOM     14  C   LIG    1       -0.036  -1.374  -6.007  0.00  0.00    +0.210 C 
BRANCH  14  15
ATOM     15  N   LIG    1       -0.058  -0.633  -7.275  0.00  0.00    -0.830 NA
ATOM     16  H   LIG    1       -0.057  -1.264  -8.063  0.00  0.00    +0.350 HD
ATOM     17  H   LIG    1        0.714   0.014  -7.329  0.00  0.00    +0.350 HD
ENDBRANCH  14  15
ENDBRANCH  12  14
ENDBRANCH   1  10
TORSDOF 6
ENDMDL
MODEL       40
REMARK  Name = ZINC000001575520
REMARK                            x       y       z     vdW  Elec       q    Type
REMARK                         _______ _______ _______ _____ _____    ______ ____
ROOT
ATOM      1  CA  LEU A  2       -1.788  -1.344  -0.925  0.00  0.00    +0.240 C 
ENDROOT
BRANCH   1   2
ATOM      2  C   LEU A  2       -3.265  -1.545  -1.149  0.00  0.00    +0.510 C 
ATOM      3  N   GLY A  3       -3.941  -0.716  -1.970  0.00  0.00    -0.690 N 
ATOM      4  H   GLY A  3       -3.477   0.009  -2.416  0.00  0.00    +0.410 HD
ATOM      5  O   LEU A  2       -3.845  -2.452  -0.591  0.00  0.00    -0.560 OA
BRANCH   3   6
ATOM      6  CA  GLY A  3       -5.377  -0.911  -2.187  0.00  0.00    +0.190 C 
BRANCH   6   7
ATOM      7  C   GLY A  3       -5.888   0.140  -3.139  0.00  0.00    +0.490 C 
ATOM      8  OXT GLY A  3       -7.065   0.156  -3.454  0.00  0.00    -0.690 OA
ATOM      9  O   GLY A  3       -5.124   0.975  -3.593  0.00  0.00    -0.690 OA
ENDBRANCH   6   7
ENDBRANCH   3   6
ENDBRANCH   1   2
BRANCH   1  10
ATOM     10  N   LEU A  2       -1.285  -2.384  -0.024  0.00  0.00    -0.710 N 
ATOM     11  H   LEU A  2       -1.880  -2.792   0.625  0.00  0.00    +0.410 HD
ATOM     12  C   GLY A  1        0.003  -2.773  -0.096  0.00  0.00    +0.510 C 
ATOM     13  O   GLY A  1        0.769  -2.198  -0.841  0.00  0.00    -0.530 OA
BRANCH  12  14
ATOM     14  CA  GLY A  1        0.492  -3.921   0.748  0.00  0.00    +0.210 C 
BRANCH  14  15
ATOM     15  N   GLY A  1        1.920  -4.146   0.489  0.00  0.00    -0.830 NA
ATOM     16  H1  GLY A  1        2.272  -4.912   1.044  0.00  0.00    +0.350 HD
ATOM     17  H2  GLY A  1        2.454  -3.306   0.652  0.00  0.00    +0.350 HD
ENDBRANCH  14  15
ENDBRANCH  12  14
ENDBRANCH   1  10
BRANCH   1  18
ATOM     18  CB  LEU A  2       -1.549   0.032  -0.301  0.00  0.00    +0.040 C 
BRANCH  18  20
ATOM     19  CD1 LEU A  2       -1.767   1.370   1.798  0.00  0.00    +0.020 C 
ATOM     20  CG  LEU A  2       -2.177   0.075   1.094  0.00  0.00    -0.020 C 
ATOM     21  CD2 LEU A  2       -3.701   0.023   0.969  0.00  0.00    +0.010 C 
ENDBRANCH  18  20
ENDBRANCH   1  18
TORSDOF 8
ENDMDL
MODEL       41
REMARK  Name = ZINC000001580038
REMARK                            x       y       z     vdW  Elec       q    Type
REMARK                         _______ _______ _______ _____ _____    ______ ____
ROOT
ATOM      1  C   THR A  1       -1.414  -2.036   0.129  0.00  0.00    +0.490 C 
ATOM      2  N   GLY A  2       -1.178  -2.793  -0.962  0.00  0.00    -0.710 N 
ATOM      3  H   GLY A  2       -1.022  -2.370  -1.821  0.00  0.00    +0.410 HD
ATOM      4  O   THR A  1       -1.609  -2.564   1.202  0.00  0.00    -0.540 OA
ENDROOT
BRANCH   1   5
ATOM      5  CA  THR A  1       -1.433  -0.534   0.013  0.00  0.00    +0.150 C 
BRANCH   5   6
ATOM      6  N   THR A  1       -2.157   0.036   1.157  0.00  0.00    -0.820 NA
ATOM      7  H1  THR A  1       -1.712  -0.216   2.028  0.00  0.00    +0.350 HD
ATOM      8  H2  THR A  1       -3.125  -0.247   1.151  0.00  0.00    +0.350 HD
ENDBRANCH   5   6
BRANCH   5  10
ATOM      9  CG2 THR A  1       -0.019   1.526   0.010  0.00  0.00    +0.030 C 
ATOM     10  CB  THR A  1        0.002  -0.004   0.002  0.00  0.00    +0.220 C 
BRANCH  10  11
ATOM     11  OG1 THR A  1        0.693  -0.477   1.160  0.00  0.00    -0.560 OA
ATOM     12  HG1 THR A  1        0.294  -0.202   1.996  0.00  0.00    +0.380 HD
ENDBRANCH  10  11
ENDBRANCH   5  10
ENDBRANCH   1   5
BRANCH   2  13
ATOM     13  CA  GLY A  2       -1.159  -4.253  -0.849  0.00  0.00    +0.300 C 
BRANCH  13  14
ATOM     14  C   GLY A  2       -0.877  -4.857  -2.201  0.00  0.00    +0.500 C 
ATOM     15  N   GLY A  3       -0.812  -6.196  -2.340  0.00  0.00    -0.690 N 
ATOM     16  H   GLY A  3       -0.947  -6.771  -1.571  0.00  0.00    +0.410 HD
ATOM     17  O   GLY A  2       -0.709  -4.139  -3.163  0.00  0.00    -0.560 OA
BRANCH  15  18
ATOM     18  CA  GLY A  3       -0.538  -6.784  -3.654  0.00  0.00    +0.190 C 
BRANCH  18  19
ATOM     19  C   GLY A  3       -0.518  -8.286  -3.538  0.00  0.00    +0.490 C 
ATOM     20  OXT GLY A  3       -0.305  -8.971  -4.525  0.00  0.00    -0.690 OA
ATOM     21  O   GLY A  3       -0.715  -8.817  -2.459  0.00  0.00    -0.690 OA
ENDBRANCH  18  19
ENDBRANCH  15  18
ENDBRANCH  13  14
ENDBRANCH   2  13
TORSDOF 8
ENDMDL
MODEL       42
REMARK  Name = ZINC000001659810
REMARK                            x       y       z     vdW  Elec       q    Type
REMARK                         _______ _______ _______ _____ _____    ______ ____
ROOT
ATOM      1  N   LIG    1       -2.741   1.912   2.730  0.00  0.00    -0.510 NA
ENDROOT
BRANCH   1   2
ATOM      2  C   LIG    1       -1.959   1.378   1.607  0.00  0.00    +0.200 C 
BRANCH   2   3
ATOM      3  C   LIG    1       -0.503   1.829   1.739  0.00  0.00    -0.460 C 
BRANCH   3   5
ATOM      4  O   LIG    1        0.393  -0.283   0.381  0.00  0.00    -1.070 OA
ATOM      5  S   LIG    1        0.463   1.170   0.352  0.00  0.00    +2.640 S 
ATOM      6  O   LIG    1       -0.098   1.674  -0.892  0.00  0.00    -1.070 OA
ATOM      7  O   LIG    1        1.843   1.607   0.492  0.00  0.00    -1.070 OA
ENDBRANCH   3   5
ENDBRANCH   2   3
ENDBRANCH   1   2
BRANCH   1   8
ATOM      8  C   LIG    1       -4.081   1.312   2.771  0.00  0.00    +0.180 C 
BRANCH   8   9
ATOM      9  C   LIG    1       -3.987  -0.109   3.330  0.00  0.00    +0.170 C 
BRANCH   9  10
ATOM     10  O   LIG    1       -3.561  -0.057   4.693  0.00  0.00    -0.560 OA
ATOM     11  H   LIG    1       -3.406  -0.925   5.090  0.00  0.00    +0.370 HD
ENDBRANCH   9  10
ENDBRANCH   8   9
ENDBRANCH   1   8
BRANCH   1  12
ATOM     12  C   LIG    1       -2.822   3.377   2.665  0.00  0.00    +0.190 C 
BRANCH  12  13
ATOM     13  C   LIG    1       -3.273   3.923   4.021  0.00  0.00    +0.170 C 
BRANCH  13  14
ATOM     14  O   LIG    1       -2.281   3.630   5.007  0.00  0.00    -0.550 OA
ATOM     15  H   LIG    1       -2.501   3.948   5.893  0.00  0.00    +0.370 HD
ENDBRANCH  13  14
ENDBRANCH  12  13
ENDBRANCH   1  12
TORSDOF 9
ENDMDL
MODEL       43
REMARK  Name = ZINC000001856588
REMARK                            x       y       z     vdW  Elec       q    Type
REMARK                         _______ _______ _______ _____ _____    ______ ____
ROOT
ATOM      1  C   LIG    1       -1.565   3.513   0.054  0.00  0.00    +0.040 C 
ENDROOT
BRANCH   1   2
ATOM      2  C   LIG    1       -1.586   5.020   0.062  0.00  0.00    +0.500 C 
ATOM      3  N   LIG    1       -2.273   5.690  -0.884  0.00  0.00    -0.700 N 
ATOM      4  H   LIG    1       -2.755   5.202  -1.570  0.00  0.00    +0.400 HD
ATOM      5  O   LIG    1       -0.984   5.630   0.920  0.00  0.00    -0.520 OA
BRANCH   3   6
ATOM      6  C   LIG    1       -2.293   7.155  -0.876  0.00  0.00    -0.330 C 
BRANCH   6   7
ATOM      7  P   LIG    1       -0.996   7.786  -1.990  0.00  0.00    +2.240 P 
ATOM      8  O   LIG    1        0.393   7.393  -1.438  0.00  0.00    -1.080 OA
ATOM      9  O   LIG    1       -1.182   7.176  -3.397  0.00  0.00    -1.090 OA
BRANCH   7  10
ATOM     10  O   LIG    1       -1.102   9.390  -2.083  0.00  0.00    -0.900 OA
ATOM     11  H   LIG    1       -0.440   9.795  -2.660  0.00  0.00    +0.410 HD
ENDBRANCH   7  10
ENDBRANCH   6   7
ENDBRANCH   3   6
ENDBRANCH   1   2
BRANCH   1  12
ATOM     12  C   LIG    1       -0.720   3.008   1.225  0.00  0.00    +0.100 C 
BRANCH  12  13
ATOM     13  CA  LIG    1       -0.699   1.479   1.216  0.00  0.00    +0.080 C 
BRANCH  13  14
ATOM     14  N   LIG    1       -0.012   1.005   0.008  0.00  0.00    -0.620 N 
ATOM     15  H1  LIG    1       -0.500   1.339  -0.810  0.00  0.00    +0.410 HD
ATOM     16  H2  LIG    1        0.935   1.354   0.000  0.00  0.00    +0.440 HD
ATOM     17  H3  LIG    1        0.002  -0.004   0.002  0.00  0.00    +0.430 HD
ENDBRANCH  13  14
BRANCH  13  18
ATOM     18  C   LIG    1        0.030   0.979   2.437  0.00  0.00    +0.490 C 
ATOM     19  OXT LIG    1       -0.585   0.762   3.467  0.00  0.00    -0.640 OA
ATOM     20  O   LIG    1        1.234   0.793   2.394  0.00  0.00    -0.670 OA
ENDBRANCH  13  18
ENDBRANCH  12  13
ENDBRANCH   1  12
TORSDOF 8
ENDMDL
MODEL       44
REMARK  Name = ZINC000001856587
REMARK                            x       y       z     vdW  Elec       q    Type
REMARK                         _______ _______ _______ _____ _____    ______ ____
ROOT
ATOM      1  C   LIG    1       -0.046  -0.555   2.513  0.00  0.00    +0.040 C 
ENDROOT
BRANCH   1   2
ATOM      2  C   LIG    1        0.683  -1.054   3.734  0.00  0.00    +0.500 C 
ATOM      3  N   LIG    1        0.739  -2.376   3.991  0.00  0.00    -0.700 N 
ATOM      4  H   LIG    1        0.310  -3.006   3.391  0.00  0.00    +0.400 HD
ATOM      5  O   LIG    1        1.219  -0.266   4.484  0.00  0.00    -0.520 OA
BRANCH   3   6
ATOM      6  C   LIG    1        1.448  -2.861   5.178  0.00  0.00    -0.330 C 
BRANCH   6   7
ATOM      7  P   LIG    1        0.262  -3.087   6.544  0.00  0.00    +2.230 P 
ATOM      8  O   LIG    1       -0.324  -1.716   6.950  0.00  0.00    -1.080 OA
ATOM      9  O   LIG    1       -0.881  -4.020   6.085  0.00  0.00    -1.090 OA
BRANCH   7  10
ATOM     10  O   LIG    1        1.015  -3.744   7.806  0.00  0.00    -0.900 OA
ATOM     11  H   LIG    1        0.444  -3.893   8.572  0.00  0.00    +0.410 HD
ENDBRANCH   7  10
ENDBRANCH   6   7
ENDBRANCH   3   6
ENDBRANCH   1   2
BRANCH   1  12
ATOM     12  C   LIG    1        0.041   0.972   2.456  0.00  0.00    +0.100 C 
BRANCH  12  13
ATOM     13  CA  LIG    1       -0.699   1.479   1.216  0.00  0.00    +0.090 C 
BRANCH  13  14
ATOM     14  N   LIG    1       -0.012   1.005   0.008  0.00  0.00    -0.610 N 
ATOM     15  H1  LIG    1       -0.500   1.339  -0.810  0.00  0.00    +0.430 HD
ATOM     16  H2  LIG    1        0.935   1.354   0.000  0.00  0.00    +0.430 HD
ATOM     17  H3  LIG    1        0.002  -0.004   0.002  0.00  0.00    +0.410 HD
ENDBRANCH  13  14
BRANCH  13  18
ATOM     18  C   LIG    1       -0.720   2.985   1.224  0.00  0.00    +0.490 C 
ATOM     19  OXT LIG    1       -0.057   3.608   0.413  0.00  0.00    -0.680 OA
ATOM     20  O   LIG    1       -1.399   3.581   2.043  0.00  0.00    -0.630 OA
ENDBRANCH  13  18
ENDBRANCH  12  13
ENDBRANCH   1  12
TORSDOF 8
ENDMDL
MODEL       45
REMARK  Name = ZINC000002165165
REMARK                            x       y       z     vdW  Elec       q    Type
REMARK                         _______ _______ _______ _____ _____    ______ ____
ROOT
ATOM      1  N   VAL A  3       -0.008  -0.140   2.444  0.00  0.00    -0.690 N 
ATOM      2  H   VAL A  3       -0.606   0.624   2.426  0.00  0.00    +0.390 HD
ATOM      3  C   GLY A  2        0.131  -0.861   3.574  0.00  0.00    +0.500 C 
ATOM      4  O   GLY A  2        0.878  -1.816   3.596  0.00  0.00    -0.550 OA
ENDROOT
BRANCH   1   5
ATOM      5  CA  VAL A  3        0.742  -0.511   1.242  0.00  0.00    +0.150 C 
BRANCH   5   7
ATOM      6  CG1 VAL A  3       -0.019   1.526   0.010  0.00  0.00    +0.020 C 
ATOM      7  CB  VAL A  3        0.002  -0.004   0.002  0.00  0.00    -0.030 C 
ATOM      8  CG2 VAL A  3        0.718  -0.497  -1.257  0.00  0.00    +0.030 C 
ENDBRANCH   5   7
BRANCH   5   9
ATOM      9  C   VAL A  3        2.115   0.108   1.295  0.00  0.00    +0.500 C 
ATOM     10  OXT VAL A  3        3.056  -0.448   0.756  0.00  0.00    -0.690 OA
ATOM     11  O   VAL A  3        2.284   1.166   1.877  0.00  0.00    -0.690 OA
ENDBRANCH   5   9
ENDBRANCH   1   5
BRANCH   3  12
ATOM     12  CA  GLY A  2       -0.641  -0.479   4.811  0.00  0.00    +0.290 C 
BRANCH  12  13
ATOM     13  N   GLY A  2       -0.317  -1.410   5.895  0.00  0.00    -0.710 N 
ATOM     14  H   GLY A  2        0.312  -2.133   5.742  0.00  0.00    +0.410 HD
ATOM     15  C   GLY A  1       -0.894  -1.263   7.104  0.00  0.00    +0.510 C 
ATOM     16  O   GLY A  1       -1.680  -0.359   7.295  0.00  0.00    -0.530 OA
BRANCH  15  17
ATOM     17  CA  GLY A  1       -0.561  -2.220   8.220  0.00  0.00    +0.210 C 
BRANCH  17  18
ATOM     18  N   GLY A  1       -1.313  -1.849   9.425  0.00  0.00    -0.830 NA
ATOM     19  H1  GLY A  1       -1.107  -2.476  10.188  0.00  0.00    +0.350 HD
ATOM     20  H2  GLY A  1       -2.304  -1.820   9.238  0.00  0.00    +0.350 HD
ENDBRANCH  17  18
ENDBRANCH  15  17
ENDBRANCH  12  13
ENDBRANCH   3  12
TORSDOF 7
ENDMDL
MODEL       46
REMARK  Name = ZINC000033459040
REMARK                            x       y       z     vdW  Elec       q    Type
REMARK                         _______ _______ _______ _____ _____    ______ ____
ROOT
ATOM      1  C   LIG    1       -1.416  -2.058  -0.121  0.00  0.00    +0.130 C 
ATOM      2  O   LIG    1       -0.857  -2.450  -1.393  0.00  0.00    -0.350 OA
ATOM      3  C   LIG    1       -1.321  -3.783  -1.667  0.00  0.00    +0.300 C 
ATOM      4  N   LIG    1       -1.687  -3.879  -3.089  0.00  0.00    -0.610 NA
ATOM      5  C   LIG    1       -3.013  -4.034  -3.190  0.00  0.00    +0.460 C 
ATOM      6  O   LIG    1       -3.645  -4.074  -2.010  0.00  0.00    -0.330 OA
ATOM      7  S   LIG    1       -3.827  -4.167  -4.690  0.00  0.00    -0.740 S 
ATOM      8  C   LIG    1       -2.661  -3.962  -0.911  0.00  0.00    +0.090 C 
ATOM      9  C   LIG    1       -2.860  -2.618  -0.168  0.00  0.00    +0.170 C 
ENDROOT
BRANCH   9  10
ATOM     10  O   LIG    1       -3.699  -1.739  -0.921  0.00  0.00    -0.530 OA
ATOM     11  H   LIG    1       -4.591  -2.081  -1.072  0.00  0.00    +0.380 HD
ENDBRANCH   9  10
BRANCH   1  12
ATOM     12  C   LIG    1       -1.433  -0.534   0.013  0.00  0.00    +0.250 C 
BRANCH  12  13
ATOM     13  O   LIG    1       -2.066  -0.171   1.242  0.00  0.00    -0.540 OA
ATOM     14  H   LIG    1       -1.626  -0.521   2.029  0.00  0.00    +0.360 HD
ENDBRANCH  12  13
BRANCH  12  15
ATOM     15  C   LIG    1        0.002  -0.004   0.002  0.00  0.00    +0.160 C 
BRANCH  15  16
ATOM     16  O   LIG    1       -0.017   1.425   0.010  0.00  0.00    -0.560 OA
ATOM     17  H   LIG    1        0.861   1.830   0.004  0.00  0.00    +0.380 HD
ENDBRANCH  15  16
ENDBRANCH  12  15
ENDBRANCH   1  12
TORSDOF 5
ENDMDL
MODEL       47
REMARK  Name = ZINC000004762108
REMARK                            x       y       z     vdW  Elec       q    Type
REMARK                         _______ _______ _______ _____ _____    ______ ____
ROOT
ATOM      1  N   ILE A  3        1.316  -2.496  -2.534  0.00  0.00    -0.690 N 
ATOM      2  H   ILE A  3        1.412  -1.908  -3.299  0.00  0.00    +0.390 HD
ATOM      3  C   GLY A  2        1.813  -3.748  -2.579  0.00  0.00    +0.510 C 
ATOM      4  O   GLY A  2        1.693  -4.483  -1.623  0.00  0.00    -0.550 OA
ENDROOT
BRANCH   1   5
ATOM      5  CA  ILE A  3        0.630  -2.023  -1.329  0.00  0.00    +0.160 C 
BRANCH   5   6
ATOM      6  C   ILE A  3       -0.817  -2.441  -1.377  0.00  0.00    +0.490 C 
ATOM      7  OXT ILE A  3       -1.523  -2.309  -0.392  0.00  0.00    -0.690 OA
ATOM      8  O   ILE A  3       -1.281  -2.912  -2.402  0.00  0.00    -0.690 OA
ENDBRANCH   5   6
BRANCH   5   9
ATOM      9  CB  ILE A  3        0.718  -0.497  -1.257  0.00  0.00    -0.010 C 
ATOM     10  CG2 ILE A  3        2.187  -0.073  -1.207  0.00  0.00    +0.010 C 
BRANCH   9  12
ATOM     11  CD1 ILE A  3       -0.019   1.526   0.010  0.00  0.00    +0.000 C 
ATOM     12  CG1 ILE A  3        0.002  -0.004   0.002  0.00  0.00    +0.020 C 
ENDBRANCH   9  12
ENDBRANCH   5   9
ENDBRANCH   1   5
BRANCH   3  13
ATOM     13  CA  GLY A  2        2.519  -4.234  -3.819  0.00  0.00    +0.290 C 
BRANCH  13  14
ATOM     14  N   GLY A  2        2.962  -5.615  -3.619  0.00  0.00    -0.710 N 
ATOM     15  H   GLY A  2        2.782  -6.066  -2.779  0.00  0.00    +0.410 HD
ATOM     16  C   GLY A  1        3.621  -6.261  -4.602  0.00  0.00    +0.510 C 
ATOM     17  O   GLY A  1        3.846  -5.698  -5.652  0.00  0.00    -0.530 OA
BRANCH  16  18
ATOM     18  CA  GLY A  1        4.077  -7.682  -4.395  0.00  0.00    +0.210 C 
BRANCH  18  19
ATOM     19  N   GLY A  1        4.765  -8.156  -5.604  0.00  0.00    -0.830 NA
ATOM     20  H1  GLY A  1        5.081  -9.107  -5.491  0.00  0.00    +0.350 HD
ATOM     21  H2  GLY A  1        5.532  -7.547  -5.846  0.00  0.00    +0.350 HD
ENDBRANCH  18  19
ENDBRANCH  16  18
ENDBRANCH  13  14
ENDBRANCH   3  13
TORSDOF 8
ENDMDL
MODEL       48
REMARK  Name = ZINC000004762118
REMARK                            x       y       z     vdW  Elec       q    Type
REMARK                         _______ _______ _______ _____ _____    ______ ____
ROOT
ATOM      1  N   ILE A  3        1.316  -2.496  -2.534  0.00  0.00    -0.690 N 
ATOM      2  H   ILE A  3        2.019  -1.960  -2.934  0.00  0.00    +0.390 HD
ATOM      3  C   GLY A  2        0.971  -3.675  -3.087  0.00  0.00    +0.500 C 
ATOM      4  O   GLY A  2        0.092  -4.345  -2.587  0.00  0.00    -0.550 OA
ENDROOT
BRANCH   1   5
ATOM      5  CA  ILE A  3        0.630  -2.023  -1.329  0.00  0.00    +0.150 C 
BRANCH   5   6
ATOM      6  C   ILE A  3        1.285  -2.622  -0.111  0.00  0.00    +0.500 C 
ATOM      7  OXT ILE A  3        2.474  -2.893  -0.129  0.00  0.00    -0.690 OA
ATOM      8  O   ILE A  3        0.627  -2.835   0.893  0.00  0.00    -0.690 OA
ENDBRANCH   5   6
BRANCH   5   9
ATOM      9  CB  ILE A  3        0.718  -0.497  -1.257  0.00  0.00    -0.020 C 
ATOM     10  CG2 ILE A  3        2.187  -0.073  -1.207  0.00  0.00    +0.020 C 
BRANCH   9  12
ATOM     11  CD1 ILE A  3       -0.019   1.526   0.010  0.00  0.00    +0.000 C 
ATOM     12  CG1 ILE A  3        0.002  -0.004   0.002  0.00  0.00    +0.030 C 
ENDBRANCH   9  12
ENDBRANCH   5   9
ENDBRANCH   1   5
BRANCH   3  13
ATOM     13  CA  GLY A  2        1.676  -4.161  -4.327  0.00  0.00    +0.290 C 
BRANCH  13  14
ATOM     14  N   GLY A  2        1.123  -5.457  -4.728  0.00  0.00    -0.710 N 
ATOM     15  H   GLY A  2        0.410  -5.862  -4.208  0.00  0.00    +0.410 HD
ATOM     16  C   GLY A  1        1.603  -6.087  -5.817  0.00  0.00    +0.510 C 
ATOM     17  O   GLY A  1        2.494  -5.582  -6.467  0.00  0.00    -0.530 OA
BRANCH  16  18
ATOM     18  CA  GLY A  1        1.034  -7.421  -6.229  0.00  0.00    +0.210 C 
BRANCH  18  19
ATOM     19  N   GLY A  1        1.722  -7.894  -7.438  0.00  0.00    -0.830 NA
ATOM     20  H1  GLY A  1        1.357  -8.787  -7.735  0.00  0.00    +0.350 HD
ATOM     21  H2  GLY A  1        2.719  -7.941  -7.292  0.00  0.00    +0.350 HD
ENDBRANCH  18  19
ENDBRANCH  16  18
ENDBRANCH  13  14
ENDBRANCH   3  13
TORSDOF 8
ENDMDL
MODEL       49
REMARK  Name = ZINC000004899432
REMARK                            x       y       z     vdW  Elec       q    Type
REMARK                         _______ _______ _______ _____ _____    ______ ____
ROOT
ATOM      1  C   SER A  1        0.621  -0.491  -1.283  0.00  0.00    +0.500 C 
ATOM      2  N   PRO A  2        1.114  -1.743  -1.362  0.00  0.00    -0.580 N 
ATOM      3  CD  PRO A  2        1.108  -2.738  -0.274  0.00  0.00    +0.240 C 
ATOM      4  CG  PRO A  2        2.271  -3.703  -0.614  0.00  0.00    +0.020 C 
ATOM      5  CB  PRO A  2        2.176  -3.773  -2.161  0.00  0.00    +0.040 C 
ATOM      6  CA  PRO A  2        1.741  -2.344  -2.548  0.00  0.00    +0.130 C 
ATOM      7  O   SER A  1        0.674   0.243  -2.247  0.00  0.00    -0.540 OA
ENDROOT
BRANCH   6   8
ATOM      8  C   PRO A  2        0.758  -2.398  -3.688  0.00  0.00    +0.500 C 
ATOM      9  OXT PRO A  2        1.155  -2.337  -4.839  0.00  0.00    -0.700 OA
ATOM     10  O   PRO A  2       -0.435  -2.502  -3.460  0.00  0.00    -0.690 OA
ENDBRANCH   6   8
BRANCH   1  11
ATOM     11  CA  SER A  1        0.002  -0.004   0.002  0.00  0.00    +0.180 C 
BRANCH  11  12
ATOM     12  N   SER A  1       -0.018   1.465   0.010  0.00  0.00    -0.810 NA
ATOM     13  H1  SER A  1       -0.556   1.823  -0.764  0.00  0.00    +0.350 HD
ATOM     14  H2  SER A  1        0.919   1.839   0.003  0.00  0.00    +0.340 HD
ENDBRANCH  11  12
BRANCH  11  15
ATOM     15  CB  SER A  1       -1.429  -0.534   0.112  0.00  0.00    +0.200 C 
BRANCH  15  16
ATOM     16  OG  SER A  1       -1.975  -0.170   1.382  0.00  0.00    -0.560 OA
ATOM     17  H   SER A  1       -2.882  -0.474   1.521  0.00  0.00    +0.380 HD
ENDBRANCH  15  16
ENDBRANCH  11  15
ENDBRANCH   1  11
TORSDOF 5
ENDMDL
MODEL       50
REMARK  Name = ZINC000031623577
REMARK                            x       y       z     vdW  Elec       q    Type
REMARK                         _______ _______ _______ _____ _____    ______ ____
ROOT
ATOM      1  C   LIG    1        0.002  -0.004   0.002  0.00  0.00    +0.670 A 
ATOM      2  N   LIG    1       -1.147  -0.649   0.004  0.00  0.00    -0.610 NA
ATOM      3  C   LIG    1       -1.209  -1.978  -0.003  0.00  0.00    +0.420 A 
ATOM      4  C   LIG    1       -0.008  -2.728  -0.014  0.00  0.00    -0.150 A 
ATOM      5  C   LIG    1        1.267  -1.988  -0.016  0.00  0.00    +0.580 A 
ATOM      6  O   LIG    1        2.335  -2.572  -0.025  0.00  0.00    -0.480 OA
ATOM      7  N   LIG    1       -0.025  -4.051  -0.021  0.00  0.00    -0.320 NA
ATOM      8  CA  LIG    1       -1.172  -4.712  -0.019  0.00  0.00    +0.020 A 
ATOM      9  C   LIG    1       -2.441  -3.973  -0.009  0.00  0.00    +0.500 A 
ATOM     10  O   LIG    1       -3.501  -4.570  -0.007  0.00  0.00    -0.470 OA
ATOM     11  N   LIG    1       -2.416  -2.622  -0.000  0.00  0.00    -0.600 N 
ATOM     12  H   LIG    1       -3.244  -2.115   0.006  0.00  0.00    +0.410 HD
ATOM     13  N   LIG    1        1.206  -0.637  -0.013  0.00  0.00    -0.660 N 
ATOM     14  H   LIG    1        2.025  -0.117  -0.014  0.00  0.00    +0.420 HD
ENDROOT
BRANCH   1  15
ATOM     15  N   LIG    1       -0.016   1.361   0.009  0.00  0.00    -0.810 N 
ATOM     16  H   LIG    1       -0.863   1.834   0.016  0.00  0.00    +0.430 HD
ATOM     17  H   LIG    1        0.817   1.857   0.004  0.00  0.00    +0.420 HD
ENDBRANCH   1  15
BRANCH   8  18
ATOM     18  C   LIG    1       -1.175  -6.181  -0.026  0.00  0.00    +0.540 C 
ATOM     19  OXT LIG    1       -2.237  -6.790  -0.024  0.00  0.00    -0.660 OA
ATOM     20  O   LIG    1       -0.117  -6.795  -0.034  0.00  0.00    -0.660 OA
ENDBRANCH   8  18
TORSDOF 2
ENDMDL
MODEL       51
REMARK  Name = ZINC000000402058
REMARK                            x       y       z     vdW  Elec       q    Type
REMARK                         _______ _______ _______ _____ _____    ______ ____
ROOT
ATOM      1  C   LIG    1       -0.018   1.461   0.010  0.00  0.00    +0.340 C 
ATOM      2  N   LIG    1        0.002  -0.004   0.002  0.00  0.00    -0.560 N 
ATOM      3  C   LIG    1        0.005  -0.664  -1.176  0.00  0.00    +0.570 A 
ATOM      4  C   LIG    1        0.026  -2.135  -1.156  0.00  0.00    +0.070 A 
ATOM      5  C   LIG    1        0.041  -2.780   0.072  0.00  0.00    +0.140 A 
ATOM      6  N   LIG    1        0.036  -2.015   1.227  0.00  0.00    -0.510 N 
ATOM      7  C   LIG    1        0.052  -2.678   2.533  0.00  0.00    +0.330 C 
ATOM      8  N   LIG    1        0.060  -4.115   0.144  0.00  0.00    -0.440 NA
ATOM      9  C   LIG    1        0.064  -4.848  -0.939  0.00  0.00    +0.150 A 
ATOM     10  C   LIG    1        0.050  -4.205  -2.257  0.00  0.00    +0.430 A 
ATOM     11  O   LIG    1        0.054  -4.876  -3.275  0.00  0.00    -0.590 OA
ATOM     12  N   LIG    1        0.030  -2.855  -2.324  0.00  0.00    -0.540 NA
ATOM     13  O   LIG    1       -0.008  -0.056  -2.229  0.00  0.00    -0.490 OA
ATOM     14  C   LIG    1        0.022  -0.673   1.166  0.00  0.00    +0.700 A 
ATOM     15  O   LIG    1        0.018  -0.040   2.205  0.00  0.00    -0.570 OA
ENDROOT
TORSDOF 0
ENDMDL
MODEL       52
REMARK  Name = ZINC000095189085
REMARK                            x       y       z     vdW  Elec       q    Type
REMARK                         _______ _______ _______ _____ _____    ______ ____
ROOT
ATOM      1  C   LIG    1       -0.018   1.465   0.010  0.00  0.00    +0.190 C 
ATOM      2  N   LIG    1        0.002  -0.004   0.002  0.00  0.00    -0.540 NA
ATOM      3  C   LIG    1       -1.359  -0.548  -0.091  0.00  0.00    +0.160 C 
ATOM      4  C   LIG    1       -1.286  -2.068  -0.279  0.00  0.00    +0.280 C 
ATOM      5  N   LIG    1       -0.463  -2.633   0.801  0.00  0.00    -0.630 N 
ATOM      6  C   LIG    1        0.864  -2.046   1.044  0.00  0.00    +0.280 C 
ATOM      7  C   LIG    1       -0.911  -3.662   1.546  0.00  0.00    +0.520 C 
ATOM      8  O   LIG    1       -2.007  -4.135   1.331  0.00  0.00    -0.520 OA
ATOM      9  C   LIG    1        0.706  -0.527   1.180  0.00  0.00    +0.170 C 
ENDROOT
BRANCH   7  10
ATOM     10  C   LIG    1       -0.051  -4.226   2.647  0.00  0.00    +0.180 C 
BRANCH  10  11
ATOM     11  C   LIG    1       -0.778  -5.360   3.323  0.00  0.00    +0.070 A 
ATOM     12  N   LIG    1       -1.592  -5.266   4.359  0.00  0.00    -0.380 NA
ATOM     13  N   LIG    1       -2.011  -6.453   4.637  0.00  0.00    -0.200 NA
ATOM     14  N   LIG    1       -1.484  -7.286   3.807  0.00  0.00    -0.200 NA
ATOM     15  N   LIG    1       -0.728  -6.637   2.988  0.00  0.00    -0.380 NA
ENDBRANCH  10  11
ENDBRANCH   7  10
TORSDOF 2
ENDMDL
MODEL       53
REMARK  Name = ZINC000001400449
REMARK                            x       y       z     vdW  Elec       q    Type
REMARK                         _______ _______ _______ _____ _____    ______ ____
ROOT
ATOM      1  C   LIG    1        0.679  -2.115   1.088  0.00  0.00    +0.020 C 
ATOM      2  C   LIG    1        1.415  -2.648  -0.142  0.00  0.00    -0.010 C 
ATOM      3  C   LIG    1        1.695  -4.116   0.011  0.00  0.00    +0.430 C 
ATOM      4  N   LIG    1        1.716  -4.725   1.205  0.00  0.00    -0.490 NA
ATOM      5  N   LIG    1        1.444  -4.020   2.386  0.00  0.00    -0.820 NA
ATOM      6  O   LIG    1        1.910  -4.776  -0.984  0.00  0.00    -0.640 OA
ATOM      7  C   LIG    1        1.438  -2.550   2.349  0.00  0.00    +0.270 C 
ENDROOT
BRANCH   5   8
ATOM      8  S   LIG    1        1.131  -4.827   3.798  0.00  0.00    +2.640 S 
ATOM      9  O   LIG    1        1.401  -3.872   4.815  0.00  0.00    -0.980 OA
ATOM     10  O   LIG    1        1.892  -6.022   3.694  0.00  0.00    -0.940 OA
ATOM     11  C   LIG    1       -0.644  -5.195   3.725  0.00  0.00    -0.340 C 
ENDBRANCH   5   8
BRANCH   1  12
ATOM     12  C   LIG    1        0.618  -0.611   1.029  0.00  0.00    +0.470 C 
ATOM     13  O   LIG    1        1.124   0.049   1.905  0.00  0.00    -0.510 OA
BRANCH  12  15
ATOM     14  C   LIG    1       -0.018   1.448   0.010  0.00  0.00    +0.250 C 
ATOM     15  O   LIG    1        0.002  -0.004   0.002  0.00  0.00    -0.360 OA
ENDBRANCH  12  15
ENDBRANCH   1  12
TORSDOF 3
ENDMDL
MODEL       54
REMARK  Name = ZINC000001635604
REMARK                            x       y       z     vdW  Elec       q    Type
REMARK                         _______ _______ _______ _____ _____    ______ ____
ROOT
ATOM      1  N   VAL A  3        0.056  -0.038   2.447  0.00  0.00    -0.690 N 
ATOM      2  H   VAL A  3       -0.888   0.180   2.413  0.00  0.00    +0.390 HD
ATOM      3  C   GLY A  2        0.738   0.093   3.602  0.00  0.00    +0.510 C 
ATOM      4  O   GLY A  2        1.919  -0.179   3.644  0.00  0.00    -0.550 OA
ENDROOT
BRANCH   1   5
ATOM      5  CA  VAL A  3        0.742  -0.511   1.242  0.00  0.00    +0.160 C 
BRANCH   5   7
ATOM      6  CG1 VAL A  3       -0.019   1.526   0.010  0.00  0.00    +0.010 C 
ATOM      7  CB  VAL A  3        0.002  -0.004   0.002  0.00  0.00    -0.020 C 
ATOM      8  CG2 VAL A  3        0.718  -0.497  -1.257  0.00  0.00    +0.040 C 
ENDBRANCH   5   7
BRANCH   5   9
ATOM      9  C   VAL A  3        0.762  -2.018   1.233  0.00  0.00    +0.490 C 
ATOM     10  OXT VAL A  3        0.100  -2.641   2.045  0.00  0.00    -0.690 OA
ATOM     11  O   VAL A  3        1.442  -2.614   0.415  0.00  0.00    -0.690 OA
ENDBRANCH   5   9
ENDBRANCH   1   5
BRANCH   3  12
ATOM     12  CA  GLY A  2        0.033   0.579   4.842  0.00  0.00    +0.290 C 
BRANCH  12  13
ATOM     13  N   GLY A  2        0.984   0.635   5.955  0.00  0.00    -0.710 N 
ATOM     14  H   GLY A  2        1.909   0.378   5.816  0.00  0.00    +0.410 HD
ATOM     15  C   GLY A  1        0.574   1.044   7.172  0.00  0.00    +0.510 C 
ATOM     16  O   GLY A  1       -0.582   1.366   7.346  0.00  0.00    -0.530 OA
BRANCH  15  17
ATOM     17  CA  GLY A  1        1.552   1.102   8.316  0.00  0.00    +0.210 C 
BRANCH  17  18
ATOM     18  N   GLY A  1        0.865   1.576   9.525  0.00  0.00    -0.830 NA
ATOM     19  H1  GLY A  1        1.500   1.623  10.307  0.00  0.00    +0.350 HD
ATOM     20  H2  GLY A  1        0.069   0.994   9.740  0.00  0.00    +0.350 HD
ENDBRANCH  17  18
ENDBRANCH  15  17
ENDBRANCH  12  13
ENDBRANCH   3  12
TORSDOF 7
ENDMDL
MODEL       55
REMARK  Name = ZINC000033327139
REMARK                            x       y       z     vdW  Elec       q    Type
REMARK                         _______ _______ _______ _____ _____    ______ ____
ROOT
ATOM      1  C   LIG    1       -0.018   1.503   0.010  0.00  0.00    +0.190 C 
ATOM      2  C   LIG    1        0.002  -0.004   0.002  0.00  0.00    +0.290 A 
ATOM      3  C   LIG    1       -1.156  -0.698   0.004  0.00  0.00    -0.760 A 
ATOM      4  C   LIG    1       -1.111  -2.113  -0.005  0.00  0.00    +0.580 A 
ATOM      5  N   LIG    1        0.084  -2.737  -0.014  0.00  0.00    -0.660 N 
ATOM      6  H   LIG    1        0.123  -3.706  -0.020  0.00  0.00    +0.430 HD
ATOM      7  C   LIG    1        1.224  -2.020  -0.016  0.00  0.00    +0.710 A 
ATOM      8  O   LIG    1        2.294  -2.597  -0.024  0.00  0.00    -0.560 OA
ATOM      9  O   LIG    1       -2.142  -2.761  -0.004  0.00  0.00    -0.470 OA
ATOM     10  N   LIG    1        1.194  -0.675  -0.013  0.00  0.00    -0.640 N 
ATOM     11  H   LIG    1        2.026  -0.177  -0.014  0.00  0.00    +0.430 HD
ENDROOT
BRANCH   3  12
ATOM     12  S   LIG    1       -2.703   0.146   0.016  0.00  0.00    +2.600 S 
ATOM     13  O   LIG    1       -2.403   1.532   0.106  0.00  0.00    -1.060 OA
ATOM     14  O   LIG    1       -3.524  -0.534   0.955  0.00  0.00    -1.040 OA
BRANCH  12  15
ATOM     15  N   LIG    1       -3.399  -0.086  -1.469  0.00  0.00    -1.150 NA
BRANCH  15  16
ATOM     16  C   LIG    1       -4.708   0.503  -1.764  0.00  0.00    +0.150 C 
BRANCH  16  17
ATOM     17  C   LIG    1       -5.120   0.140  -3.192  0.00  0.00    +0.170 C 
BRANCH  17  18
ATOM     18  O   LIG    1       -5.311  -1.273  -3.288  0.00  0.00    -0.550 OA
ATOM     19  H   LIG    1       -5.574  -1.576  -4.168  0.00  0.00    +0.350 HD
ENDBRANCH  17  18
ENDBRANCH  16  17
ENDBRANCH  15  16
ENDBRANCH  12  15
ENDBRANCH   3  12
TORSDOF 5
ENDMDL
MODEL       56
REMARK  Name = ZINC000019267409
REMARK                            x       y       z     vdW  Elec       q    Type
REMARK                         _______ _______ _______ _____ _____    ______ ____
ROOT
ATOM      1  C   LIG    1       -0.018   1.461   0.010  0.00  0.00    +0.330 C 
ATOM      2  N   LIG    1        0.002  -0.004   0.002  0.00  0.00    -0.540 N 
ATOM      3  C   LIG    1       -1.177  -0.698   0.004  0.00  0.00    +0.460 A 
ATOM      4  C   LIG    1       -1.159  -2.048  -0.004  0.00  0.00    -0.750 A 
ATOM      5  C   LIG    1        0.087  -2.720  -0.014  0.00  0.00    +0.580 A 
ATOM      6  N   LIG    1        1.227  -2.000  -0.016  0.00  0.00    -0.560 N 
ATOM      7  C   LIG    1        2.522  -2.684  -0.026  0.00  0.00    +0.330 C 
ATOM      8  O   LIG    1        0.129  -3.937  -0.022  0.00  0.00    -0.470 OA
ATOM      9  C   LIG    1        1.180  -0.654  -0.013  0.00  0.00    +0.700 A 
ATOM     10  O   LIG    1        2.216  -0.018  -0.015  0.00  0.00    -0.550 OA
ENDROOT
BRANCH   4  11
ATOM     11  S   LIG    1       -2.666  -2.961  -0.002  0.00  0.00    +2.590 S 
ATOM     12  O   LIG    1       -3.714  -2.006   0.092  0.00  0.00    -1.060 OA
ATOM     13  O   LIG    1       -2.492  -4.020   0.930  0.00  0.00    -1.030 OA
BRANCH  11  14
ATOM     14  N   LIG    1       -2.811  -3.670  -1.492  0.00  0.00    -1.000 NA
BRANCH  14  15
ATOM     15  N   LIG    1       -3.898  -4.447  -1.776  0.00  0.00    -0.610 NA
ATOM     16  H   LIG    1       -3.992  -5.195  -1.105  0.00  0.00    +0.260 HD
ATOM     17  H   LIG    1       -3.849  -4.808  -2.716  0.00  0.00    +0.330 HD
ENDBRANCH  14  15
ENDBRANCH  11  14
ENDBRANCH   4  11
TORSDOF 3
ENDMDL
MODEL       57
REMARK  Name = ZINC000012296982
REMARK                            x       y       z     vdW  Elec       q    Type
REMARK                         _______ _______ _______ _____ _____    ______ ____
ROOT
ATOM      1  O   LIG    1        0.002  -0.004   0.002  0.00  0.00    -0.530 OA
ATOM      2  C   LIG    1       -0.014   1.214   0.009  0.00  0.00    +0.560 A 
ATOM      3  C   LIG    1       -1.246   1.911   0.030  0.00  0.00    -0.130 A 
ATOM      4  C   LIG    1       -1.236   3.261   0.038  0.00  0.00    +0.250 A 
ATOM      5  N   LIG    1       -0.043   3.930   0.025  0.00  0.00    -0.630 N 
ATOM      6  H   LIG    1       -0.036   4.901   0.030  0.00  0.00    +0.440 HD
ATOM      7  C   LIG    1        1.121   3.256   0.004  0.00  0.00    +0.700 A 
ATOM      8  O   LIG    1        2.170   3.870  -0.008  0.00  0.00    -0.550 OA
ATOM      9  N   LIG    1        1.140   1.910   0.001  0.00  0.00    -0.660 N 
ATOM     10  H   LIG    1        1.988   1.439  -0.013  0.00  0.00    +0.430 HD
ENDROOT
BRANCH   4  11
ATOM     11  C   LIG    1       -2.534   4.028   0.061  0.00  0.00    -0.490 C 
BRANCH  11  12
ATOM     12  P   LIG    1       -2.956   4.456   1.782  0.00  0.00    +2.240 P 
ATOM     13  O   LIG    1       -1.896   5.429   2.345  0.00  0.00    -1.080 OA
ATOM     14  O   LIG    1       -2.983   3.172   2.640  0.00  0.00    -1.070 OA
BRANCH  12  15
ATOM     15  O   LIG    1       -4.404   5.159   1.820  0.00  0.00    -0.900 OA
ATOM     16  H   LIG    1       -4.694   5.414   2.707  0.00  0.00    +0.420 HD
ENDBRANCH  12  15
ENDBRANCH  11  12
ENDBRANCH   4  11
TORSDOF 3
ENDMDL
MODEL       58
REMARK  Name = ZINC000005126685
REMARK                            x       y       z     vdW  Elec       q    Type
REMARK                         _______ _______ _______ _____ _____    ______ ____
ROOT
ATOM      1  C   LIG    1       -0.018   1.461   0.010  0.00  0.00    +0.320 C 
ATOM      2  N   LIG    1        0.002  -0.004   0.002  0.00  0.00    -0.570 N 
ATOM      3  C   LIG    1        0.006  -0.667  -1.176  0.00  0.00    +0.570 A 
ATOM      4  C   LIG    1        0.026  -2.131  -1.146  0.00  0.00    -0.460 A 
ATOM      5  C   LIG    1        0.038  -2.781   0.088  0.00  0.00    +0.470 A 
ATOM      6  N   LIG    1        0.034  -2.016   1.229  0.00  0.00    -0.530 N 
ATOM      7  C   LIG    1        0.050  -2.675   2.538  0.00  0.00    +0.330 C 
ATOM      8  N   LIG    1        0.052  -4.141   0.190  0.00  0.00    -0.620 NA
ATOM      9  C   LIG    1        0.276  -4.900  -0.931  0.00  0.00    +0.290 A 
ATOM     10  C   LIG    1        0.276  -4.346  -2.216  0.00  0.00    -0.160 A 
ATOM     11  N   LIG    1        0.519  -5.335  -3.088  0.00  0.00    -0.430 NA
ATOM     12  C   LIG    1        0.670  -6.453  -2.429  0.00  0.00    +0.340 A 
ATOM     13  N   LIG    1        0.526  -6.220  -1.090  0.00  0.00    -0.570 N 
ATOM     14  H   LIG    1        0.592  -6.880  -0.383  0.00  0.00    +0.410 HD
ATOM     15  C   LIG    1        0.035  -2.907  -2.396  0.00  0.00    +0.490 A 
ATOM     16  O   LIG    1       -0.141  -2.398  -3.491  0.00  0.00    -0.510 OA
ATOM     17  O   LIG    1       -0.007  -0.063  -2.232  0.00  0.00    -0.510 OA
ATOM     18  C   LIG    1        0.022  -0.675   1.165  0.00  0.00    +0.710 A 
ATOM     19  O   LIG    1        0.020  -0.043   2.203  0.00  0.00    -0.570 OA
ENDROOT
TORSDOF 0
ENDMDL
MODEL       59
REMARK  Name = ZINC000005126685
REMARK                            x       y       z     vdW  Elec       q    Type
REMARK                         _______ _______ _______ _____ _____    ______ ____
ROOT
ATOM      1  C   LIG    1       -0.018   1.461   0.010  0.00  0.00    +0.320 C 
ATOM      2  N   LIG    1        0.002  -0.004   0.002  0.00  0.00    -0.570 N 
ATOM      3  C   LIG    1        0.005  -0.661  -1.178  0.00  0.00    +0.570 A 
ATOM      4  C   LIG    1        0.025  -2.129  -1.157  0.00  0.00    -0.410 A 
ATOM      5  C   LIG    1        0.040  -2.785   0.092  0.00  0.00    +0.470 A 
ATOM      6  N   LIG    1        0.035  -2.011   1.242  0.00  0.00    -0.530 N 
ATOM      7  C   LIG    1        0.050  -2.663   2.554  0.00  0.00    +0.330 C 
ATOM      8  N   LIG    1        0.058  -4.103   0.159  0.00  0.00    -0.600 NA
ATOM      9  C   LIG    1        0.062  -4.857  -0.934  0.00  0.00    +0.300 A 
ATOM     10  N   LIG    1        0.079  -6.218  -1.137  0.00  0.00    -0.590 N 
ATOM     11  H   LIG    1        0.092  -6.901  -0.448  0.00  0.00    +0.420 HD
ATOM     12  C   LIG    1        0.075  -6.432  -2.484  0.00  0.00    +0.390 A 
ATOM     13  N   LIG    1        0.057  -5.296  -3.115  0.00  0.00    -0.440 NA
ATOM     14  C   LIG    1        0.049  -4.280  -2.215  0.00  0.00    -0.110 A 
ATOM     15  C   LIG    1        0.029  -2.882  -2.336  0.00  0.00    +0.400 A 
ATOM     16  O   LIG    1        0.015  -2.283  -3.550  0.00  0.00    -0.610 OA
ATOM     17  O   LIG    1       -0.007  -0.053  -2.232  0.00  0.00    -0.490 OA
ATOM     18  C   LIG    1        0.022  -0.670   1.167  0.00  0.00    +0.710 A 
ATOM     19  O   LIG    1        0.019  -0.030   2.201  0.00  0.00    -0.570 OA
ENDROOT
TORSDOF 0
ENDMDL
MODEL       60
REMARK  Name = ZINC000002384921
REMARK                            x       y       z     vdW  Elec       q    Type
REMARK                         _______ _______ _______ _____ _____    ______ ____
ROOT
ATOM      1  CA  LEU A  2       -1.416  -2.058  -0.121  0.00  0.00    +0.250 C 
ENDROOT
BRANCH   1   2
ATOM      2  C   LEU A  2       -2.819  -2.590   0.013  0.00  0.00    +0.500 C 
ATOM      3  N   GLY A  3       -3.518  -2.371   1.144  0.00  0.00    -0.690 N 
ATOM      4  H   GLY A  3       -3.118  -1.870   1.872  0.00  0.00    +0.410 HD
ATOM      5  O   LEU A  2       -3.320  -3.216  -0.898  0.00  0.00    -0.560 OA
BRANCH   3   6
ATOM      6  CA  GLY A  3       -4.882  -2.888   1.274  0.00  0.00    +0.190 C 
BRANCH   6   7
ATOM      7  C   GLY A  3       -5.437  -2.509   2.623  0.00  0.00    +0.490 C 
ATOM      8  OXT GLY A  3       -6.567  -2.845   2.934  0.00  0.00    -0.690 OA
ATOM      9  O   GLY A  3       -4.756  -1.866   3.403  0.00  0.00    -0.690 OA
ENDBRANCH   6   7
ENDBRANCH   3   6
ENDBRANCH   1   2
BRANCH   1  10
ATOM     10  N   LEU A  2       -0.876  -2.426  -1.433  0.00  0.00    -0.710 N 
ATOM     11  H   LEU A  2       -1.478  -2.600  -2.173  0.00  0.00    +0.410 HD
ATOM     12  C   GLY A  1        0.456  -2.525  -1.610  0.00  0.00    +0.510 C 
ATOM     13  O   GLY A  1        1.209  -2.308  -0.684  0.00  0.00    -0.520 OA
BRANCH  12  14
ATOM     14  CA  GLY A  1        1.011  -2.904  -2.959  0.00  0.00    +0.200 C 
BRANCH  14  15
ATOM     15  N   GLY A  1        2.478  -2.942  -2.892  0.00  0.00    -0.830 NA
ATOM     16  H1  GLY A  1        2.874  -3.194  -3.785  0.00  0.00    +0.350 HD
ATOM     17  H2  GLY A  1        2.790  -3.571  -2.167  0.00  0.00    +0.350 HD
ENDBRANCH  14  15
ENDBRANCH  12  14
ENDBRANCH   1  10
BRANCH   1  18
ATOM     18  CB  LEU A  2       -1.433  -0.534   0.013  0.00  0.00    +0.030 C 
BRANCH  18  20
ATOM     19  CD1 LEU A  2       -0.019   1.526   0.010  0.00  0.00    +0.000 C 
ATOM     20  CG  LEU A  2        0.002  -0.004   0.002  0.00  0.00    -0.010 C 
ATOM     21  CD2 LEU A  2        0.742  -0.511   1.242  0.00  0.00    +0.020 C 
ENDBRANCH  18  20
ENDBRANCH   1  18
TORSDOF 8
ENDMDL
