MODEL        1
REMARK  Name = ZINC000068604264
REMARK                            x       y       z     vdW  Elec       q    Type
REMARK                         _______ _______ _______ _____ _____    ______ ____
ROOT
ATOM      1  O   LIG    1        0.002  -0.004   0.002  0.00  0.00    -0.510 OA
ATOM      2  C   LIG    1       -0.014   1.209   0.009  0.00  0.00    +0.510 C 
ATOM      3  C   LIG    1       -1.322   1.957   0.032  0.00  0.00    +0.200 C 
ATOM      4  N   LIG    1       -2.256   1.284   0.945  0.00  0.00    -0.670 NA
ATOM      5  H   LIG    1       -3.180   1.233   0.543  0.00  0.00    +0.350 HD
ATOM      6  C   LIG    1       -2.286   1.952   2.253  0.00  0.00    +0.170 C 
ATOM      7  C   LIG    1       -1.705   1.017   3.316  0.00  0.00    +0.030 C 
ATOM      8  C   LIG    1       -1.224   1.842   4.511  0.00  0.00    +0.170 C 
ATOM      9  N   LIG    1       -0.218   1.077   5.260  0.00  0.00    -0.680 NA
ATOM     10  H   LIG    1       -0.506   0.941   6.218  0.00  0.00    +0.350 HD
ATOM     11  C   LIG    1        1.096   1.731   5.194  0.00  0.00    +0.200 C 
ATOM     12  C   LIG    1        1.956   1.029   4.174  0.00  0.00    +0.520 C 
ATOM     13  N   LIG    1        2.586   1.773   3.220  0.00  0.00    -0.740 N 
ATOM     14  H   LIG    1        2.498   2.738   3.176  0.00  0.00    +0.400 HD
ATOM     15  C   LIG    1        3.410   1.014   2.254  0.00  0.00    +0.260 C 
ATOM     16  C   LIG    1        3.411   1.759   0.917  0.00  0.00    +0.010 C 
ATOM     17  C   LIG    1        2.393   1.115  -0.026  0.00  0.00    +0.270 C 
ATOM     18  O   LIG    1        2.085  -0.177   4.202  0.00  0.00    -0.510 OA
ATOM     19  N   LIG    1        1.151   1.918   0.001  0.00  0.00    -0.740 N 
ATOM     20  H   LIG    1        1.164   2.888   0.009  0.00  0.00    +0.400 HD
ENDROOT
TORSDOF 0
ENDMDL
MODEL        2
REMARK  Name = ZINC000163791518
REMARK                            x       y       z     vdW  Elec       q    Type
REMARK                         _______ _______ _______ _____ _____    ______ ____
ROOT
ATOM      1  N   LIG    1       -1.117   4.220   1.248  0.00  0.00    -0.660 NA
ATOM      2  H   LIG    1       -2.015   3.892   1.573  0.00  0.00    +0.360 HD
ENDROOT
BRANCH   1   6
ATOM      3  O   LIG    1        0.002  -0.004   0.002  0.00  0.00    -0.480 OA
ATOM      4  C   LIG    1       -0.014   1.208   0.009  0.00  0.00    +0.530 C 
ATOM      5  C   LIG    1       -1.260   2.068   0.032  0.00  0.00    +0.100 C 
ATOM      6  C   LIG    1       -0.705   3.507   0.032  0.00  0.00    +0.160 C 
ATOM      7  C   LIG    1        0.795   3.309   0.009  0.00  0.00    +0.540 C 
ATOM      8  O   LIG    1        1.620   4.197   0.002  0.00  0.00    -0.460 OA
ATOM      9  N   LIG    1        1.066   1.998   0.003  0.00  0.00    -0.680 N 
ATOM     10  H   LIG    1        1.971   1.650  -0.012  0.00  0.00    +0.420 HD
ENDBRANCH   1   6
BRANCH   1  11
ATOM     11  C   LIG    1       -1.135   5.672   1.027  0.00  0.00    +0.200 C 
BRANCH  11  12
ATOM     12  C   LIG    1       -1.568   6.378   2.313  0.00  0.00    +0.340 C 
BRANCH  12  13
ATOM     13  N   LIG    1       -1.586   7.826   2.093  0.00  0.00    -0.290 N 
ATOM     14  C   LIG    1       -2.638   8.649   2.312  0.00  0.00    +0.140 A 
ATOM     15  C   LIG    1       -2.220   9.892   1.979  0.00  0.00    +0.140 A 
ATOM     16  N   LIG    1       -0.950   9.772   1.578  0.00  0.00    -0.270 NA
ATOM     17  N   LIG    1       -0.602   8.536   1.663  0.00  0.00    -0.080 NA
ENDBRANCH  12  13
ENDBRANCH  11  12
ENDBRANCH   1  11
TORSDOF 4
ENDMDL
MODEL        3
REMARK  Name = ZINC000163791641
REMARK                            x       y       z     vdW  Elec       q    Type
REMARK                         _______ _______ _______ _____ _____    ______ ____
ROOT
ATOM      1  N   LIG    1       -1.153   4.233  -1.164  0.00  0.00    -0.650 NA
ATOM      2  H   LIG    1       -0.581   4.002  -1.963  0.00  0.00    +0.350 HD
ENDROOT
BRANCH   1   6
ATOM      3  O   LIG    1        0.002  -0.004   0.002  0.00  0.00    -0.470 OA
ATOM      4  C   LIG    1       -0.014   1.208   0.009  0.00  0.00    +0.530 C 
ATOM      5  C   LIG    1       -1.260   2.068   0.032  0.00  0.00    +0.120 C 
ATOM      6  C   LIG    1       -0.705   3.507   0.032  0.00  0.00    +0.200 C 
ATOM      7  C   LIG    1        0.795   3.309   0.009  0.00  0.00    +0.500 C 
ATOM      8  O   LIG    1        1.620   4.197   0.002  0.00  0.00    -0.480 OA
ATOM      9  N   LIG    1        1.066   1.998   0.003  0.00  0.00    -0.680 N 
ATOM     10  H   LIG    1        1.971   1.650  -0.012  0.00  0.00    +0.420 HD
ENDBRANCH   1   6
BRANCH   1  11
ATOM     11  C   LIG    1       -1.164   5.683  -0.926  0.00  0.00    +0.200 C 
BRANCH  11  12
ATOM     12  C   LIG    1       -1.634   6.404  -2.191  0.00  0.00    +0.340 C 
BRANCH  12  13
ATOM     13  N   LIG    1       -1.645   7.849  -1.954  0.00  0.00    -0.290 N 
ATOM     14  C   LIG    1       -1.009   8.780  -2.702  0.00  0.00    +0.140 A 
ATOM     15  C   LIG    1       -1.286   9.976  -2.131  0.00  0.00    +0.140 A 
ATOM     16  N   LIG    1       -2.068   9.721  -1.076  0.00  0.00    -0.270 NA
ATOM     17  N   LIG    1       -2.267   8.452  -1.002  0.00  0.00    -0.080 NA
ENDBRANCH  12  13
ENDBRANCH  11  12
ENDBRANCH   1  11
TORSDOF 4
ENDMDL
MODEL        4
REMARK  Name = ZINC000004228257
REMARK                            x       y       z     vdW  Elec       q    Type
REMARK                         _______ _______ _______ _____ _____    ______ ____
ROOT
ATOM      1  C   LIG    1        0.849  -2.021  -1.205  0.00  0.00    +0.220 C 
ATOM      2  C   LIG    1        1.552  -2.525  -2.474  0.00  0.00    +0.290 C 
ATOM      3  N   LIG    1        0.706  -2.201  -3.631  0.00  0.00    -0.710 N 
ATOM      4  H   LIG    1        1.094  -1.810  -4.430  0.00  0.00    +0.410 HD
ATOM      5  C   LIG    1       -0.654  -2.461  -3.565  0.00  0.00    +0.410 A 
ATOM      6  C   LIG    1       -1.257  -2.676  -2.334  0.00  0.00    -0.100 A 
ATOM      7  C   LIG    1       -2.631  -2.934  -2.287  0.00  0.00    +0.540 A 
ATOM      8  N   LIG    1       -3.322  -2.966  -3.447  0.00  0.00    -0.650 N 
ATOM      9  H   LIG    1       -4.276  -3.143  -3.437  0.00  0.00    +0.410 HD
ATOM     10  C   LIG    1       -2.684  -2.750  -4.629  0.00  0.00    +0.630 A 
ATOM     11  O   LIG    1       -3.194  -3.127  -1.219  0.00  0.00    -0.550 OA
ATOM     12  N   LIG    1       -1.392  -2.507  -4.681  0.00  0.00    -0.590 NA
ATOM     13  N   LIG    1       -0.488  -2.634  -1.150  0.00  0.00    -0.720 N 
ATOM     14  H   LIG    1       -0.833  -3.000  -0.321  0.00  0.00    +0.410 HD
ENDROOT
BRANCH  10  15
ATOM     15  N   LIG    1       -3.405  -2.788  -5.796  0.00  0.00    -0.830 N 
ATOM     16  H   LIG    1       -2.961  -2.637  -6.645  0.00  0.00    +0.430 HD
ATOM     17  H   LIG    1       -4.358  -2.967  -5.771  0.00  0.00    +0.410 HD
ENDBRANCH  10  15
BRANCH   1  18
ATOM     18  C   LIG    1        0.718  -0.497  -1.257  0.00  0.00    +0.180 C 
BRANCH  18  20
ATOM     19  C   LIG    1       -0.019   1.526   0.010  0.00  0.00    +0.000 C 
ATOM     20  C   LIG    1        0.002  -0.004   0.002  0.00  0.00    +0.190 C 
BRANCH  20  21
ATOM     21  O   LIG    1        0.693  -0.477   1.160  0.00  0.00    -0.560 OA
ATOM     22  H   LIG    1        1.611  -0.180   1.219  0.00  0.00    +0.370 HD
ENDBRANCH  20  21
ENDBRANCH  18  20
BRANCH  18  23
ATOM     23  O   LIG    1        2.019   0.090  -1.326  0.00  0.00    -0.550 OA
ATOM     24  H   LIG    1        2.587  -0.122  -0.573  0.00  0.00    +0.370 HD
ENDBRANCH  18  23
ENDBRANCH   1  18
TORSDOF 5
ENDMDL
MODEL        5
REMARK  Name = ZINC000013585233
REMARK                            x       y       z     vdW  Elec       q    Type
REMARK                         _______ _______ _______ _____ _____    ______ ____
ROOT
ATOM      1  C   LIG    1        0.739  -2.027  -1.265  0.00  0.00    +0.210 C 
ATOM      2  C   LIG    1        1.472  -2.530  -2.518  0.00  0.00    +0.290 C 
ATOM      3  N   LIG    1        2.868  -2.076  -2.450  0.00  0.00    -0.710 N 
ATOM      4  H   LIG    1        3.296  -1.683  -3.227  0.00  0.00    +0.410 HD
ATOM      5  C   LIG    1        3.565  -2.219  -1.260  0.00  0.00    +0.400 A 
ATOM      6  C   LIG    1        2.875  -2.438  -0.077  0.00  0.00    -0.100 A 
ATOM      7  C   LIG    1        3.594  -2.576   1.115  0.00  0.00    +0.540 A 
ATOM      8  N   LIG    1        4.942  -2.490   1.069  0.00  0.00    -0.650 N 
ATOM      9  H   LIG    1        5.461  -2.581   1.883  0.00  0.00    +0.410 HD
ATOM     10  C   LIG    1        5.572  -2.275  -0.118  0.00  0.00    +0.630 A 
ATOM     11  O   LIG    1        3.017  -2.770   2.174  0.00  0.00    -0.540 OA
ATOM     12  N   LIG    1        4.901  -2.144  -1.243  0.00  0.00    -0.590 NA
ATOM     13  N   LIG    1        1.464  -2.521  -0.083  0.00  0.00    -0.710 N 
ATOM     14  H   LIG    1        0.985  -2.895   0.673  0.00  0.00    +0.410 HD
ENDROOT
BRANCH  10  15
ATOM     15  N   LIG    1        6.942  -2.193  -0.143  0.00  0.00    -0.830 N 
ATOM     16  H   LIG    1        7.403  -2.040  -0.982  0.00  0.00    +0.430 HD
ATOM     17  H   LIG    1        7.448  -2.287   0.679  0.00  0.00    +0.410 HD
ENDBRANCH  10  15
BRANCH   1  18
ATOM     18  C   LIG    1        0.718  -0.497  -1.257  0.00  0.00    +0.160 C 
BRANCH  18  20
ATOM     19  C   LIG    1       -0.019   1.526   0.010  0.00  0.00    +0.000 C 
ATOM     20  C   LIG    1        0.002  -0.004   0.002  0.00  0.00    +0.170 C 
BRANCH  20  21
ATOM     21  O   LIG    1        0.693  -0.477   1.160  0.00  0.00    -0.540 OA
ATOM     22  H   LIG    1        1.611  -0.180   1.219  0.00  0.00    +0.370 HD
ENDBRANCH  20  21
ENDBRANCH  18  20
BRANCH  18  23
ATOM     23  O   LIG    1        0.027  -0.024  -2.414  0.00  0.00    -0.550 OA
ATOM     24  H   LIG    1       -0.891  -0.322  -2.473  0.00  0.00    +0.370 HD
ENDBRANCH  18  23
ENDBRANCH   1  18
TORSDOF 5
ENDMDL
MODEL        6
REMARK  Name = ZINC000002539827
REMARK                            x       y       z     vdW  Elec       q    Type
REMARK                         _______ _______ _______ _____ _____    ______ ____
ROOT
ATOM      1  C   LIG    1        0.739  -2.027  -1.265  0.00  0.00    +0.230 C 
ATOM      2  C   LIG    1        1.442  -2.530  -2.535  0.00  0.00    +0.280 C 
ATOM      3  N   LIG    1        0.655  -2.099  -3.700  0.00  0.00    -0.690 N 
ATOM      4  H   LIG    1        1.093  -1.706  -4.471  0.00  0.00    +0.410 HD
ATOM      5  C   LIG    1       -0.721  -2.263  -3.681  0.00  0.00    +0.420 A 
ATOM      6  C   LIG    1       -1.375  -2.483  -2.477  0.00  0.00    -0.130 A 
ATOM      7  C   LIG    1       -2.764  -2.643  -2.476  0.00  0.00    +0.540 A 
ATOM      8  N   LIG    1       -3.421  -2.578  -3.655  0.00  0.00    -0.650 N 
ATOM      9  H   LIG    1       -4.385  -2.686  -3.678  0.00  0.00    +0.410 HD
ATOM     10  C   LIG    1       -2.734  -2.363  -4.810  0.00  0.00    +0.630 A 
ATOM     11  O   LIG    1       -3.370  -2.836  -1.433  0.00  0.00    -0.550 OA
ATOM     12  N   LIG    1       -1.427  -2.211  -4.817  0.00  0.00    -0.590 NA
ATOM     13  N   LIG    1       -0.639  -2.543  -1.271  0.00  0.00    -0.730 N 
ATOM     14  H   LIG    1       -1.034  -2.917  -0.468  0.00  0.00    +0.410 HD
ENDROOT
BRANCH  10  15
ATOM     15  N   LIG    1       -3.421  -2.302  -5.996  0.00  0.00    -0.820 N 
ATOM     16  H   LIG    1       -2.943  -2.149  -6.826  0.00  0.00    +0.430 HD
ATOM     17  H   LIG    1       -4.385  -2.412  -6.004  0.00  0.00    +0.410 HD
ENDBRANCH  10  15
BRANCH   1  18
ATOM     18  C   LIG    1        0.718  -0.497  -1.257  0.00  0.00    +0.170 C 
BRANCH  18  20
ATOM     19  C   LIG    1       -0.019   1.526   0.010  0.00  0.00    +0.010 C 
ATOM     20  C   LIG    1        0.002  -0.004   0.002  0.00  0.00    +0.170 C 
BRANCH  20  21
ATOM     21  O   LIG    1        0.693  -0.477   1.160  0.00  0.00    -0.560 OA
ATOM     22  H   LIG    1        1.611  -0.180   1.219  0.00  0.00    +0.370 HD
ENDBRANCH  20  21
ENDBRANCH  18  20
BRANCH  18  23
ATOM     23  O   LIG    1        0.027  -0.024  -2.414  0.00  0.00    -0.550 OA
ATOM     24  H   LIG    1       -0.891  -0.322  -2.473  0.00  0.00    +0.370 HD
ENDBRANCH  18  23
ENDBRANCH   1  18
TORSDOF 5
ENDMDL
MODEL        7
REMARK  Name = ZINC000584889887
REMARK                            x       y       z     vdW  Elec       q    Type
REMARK                         _______ _______ _______ _____ _____    ______ ____
ROOT
ATOM      1  O   LIG    1       -0.006   0.018   0.261  0.00  0.00    -0.520 OA
ATOM      2  C   LIG    1       -0.015   1.211   0.042  0.00  0.00    +0.510 C 
ATOM      3  N   LIG    1       -1.184   1.849  -0.169  0.00  0.00    -0.730 N 
ATOM      4  H   LIG    1       -1.191   2.803  -0.344  0.00  0.00    +0.400 HD
ENDROOT
BRANCH   3   5
ATOM      5  C   LIG    1       -2.443   1.100  -0.135  0.00  0.00    +0.280 C 
BRANCH   5   6
ATOM      6  C   LIG    1       -3.610   2.053  -0.404  0.00  0.00    +0.140 C 
BRANCH   6   7
ATOM      7  C   LIG    1       -4.905   1.283  -0.368  0.00  0.00    -0.020 A 
ATOM      8  C   LIG    1       -5.988   1.555   0.397  0.00  0.00    +0.160 A 
ATOM      9  N   LIG    1       -6.907   0.607   0.100  0.00  0.00    -0.390 N 
ATOM     10  H   LIG    1       -7.793   0.533   0.488  0.00  0.00    +0.450 HD
ATOM     11  N   LIG    1       -6.403  -0.179  -0.786  0.00  0.00    -0.080 NA
ATOM     12  N   LIG    1       -5.213   0.200  -1.090  0.00  0.00    -0.260 NA
ENDBRANCH   6   7
ENDBRANCH   5   6
ENDBRANCH   3   5
BRANCH   2  13
ATOM     13  C   LIG    1        1.280   1.980   0.001  0.00  0.00    +0.210 C 
BRANCH  13  14
ATOM     14  N   LIG    1        2.408   1.044   0.105  0.00  0.00    -0.520 NA
ATOM     15  C   LIG    1        3.674   1.765   0.306  0.00  0.00    +0.160 C 
ATOM     16  C   LIG    1        4.811   0.753   0.470  0.00  0.00    +0.220 C 
ATOM     17  O   LIG    1        4.850  -0.101  -0.676  0.00  0.00    -0.390 OA
ATOM     18  C   LIG    1        3.634  -0.819  -0.902  0.00  0.00    +0.230 C 
ATOM     19  C   LIG    1        2.485   0.177  -1.079  0.00  0.00    +0.150 C 
ENDBRANCH  13  14
ENDBRANCH   2  13
TORSDOF 5
ENDMDL
MODEL        8
REMARK  Name = ZINC000584889887
REMARK                            x       y       z     vdW  Elec       q    Type
REMARK                         _______ _______ _______ _____ _____    ______ ____
ROOT
ATOM      1  O   LIG    1       -0.006   0.018   0.261  0.00  0.00    -0.510 OA
ATOM      2  C   LIG    1       -0.015   1.211   0.042  0.00  0.00    +0.510 C 
ATOM      3  N   LIG    1       -1.184   1.849  -0.169  0.00  0.00    -0.740 N 
ATOM      4  H   LIG    1       -1.191   2.803  -0.344  0.00  0.00    +0.400 HD
ENDROOT
BRANCH   3   5
ATOM      5  C   LIG    1       -2.443   1.100  -0.135  0.00  0.00    +0.270 C 
BRANCH   5   6
ATOM      6  C   LIG    1       -3.610   2.053  -0.404  0.00  0.00    +0.130 C 
BRANCH   6   7
ATOM      7  C   LIG    1       -4.905   1.283  -0.368  0.00  0.00    -0.010 A 
ATOM      8  C   LIG    1       -5.467   0.590  -1.386  0.00  0.00    +0.150 A 
ATOM      9  N   LIG    1       -6.603   0.069  -0.908  0.00  0.00    -0.260 NA
ATOM     10  N   LIG    1       -6.735   0.416   0.323  0.00  0.00    -0.070 NA
ATOM     11  N   LIG    1       -5.737   1.141   0.690  0.00  0.00    -0.390 N 
ATOM     12  H   LIG    1       -5.606   1.524   1.571  0.00  0.00    +0.450 HD
ENDBRANCH   6   7
ENDBRANCH   5   6
ENDBRANCH   3   5
BRANCH   2  13
ATOM     13  C   LIG    1        1.280   1.980   0.001  0.00  0.00    +0.220 C 
BRANCH  13  14
ATOM     14  N   LIG    1        2.408   1.044   0.105  0.00  0.00    -0.520 NA
ATOM     15  C   LIG    1        3.674   1.765   0.306  0.00  0.00    +0.160 C 
ATOM     16  C   LIG    1        4.811   0.753   0.470  0.00  0.00    +0.220 C 
ATOM     17  O   LIG    1        4.850  -0.101  -0.676  0.00  0.00    -0.390 OA
ATOM     18  C   LIG    1        3.634  -0.819  -0.902  0.00  0.00    +0.220 C 
ATOM     19  C   LIG    1        2.485   0.177  -1.079  0.00  0.00    +0.150 C 
ENDBRANCH  13  14
ENDBRANCH   2  13
TORSDOF 5
ENDMDL
MODEL        9
REMARK  Name = ZINC000257183017
REMARK                            x       y       z     vdW  Elec       q    Type
REMARK                         _______ _______ _______ _____ _____    ______ ____
ROOT
ATOM      1  O   LIG    1       -0.225   0.222  -0.665  0.00  0.00    -0.500 OA
ATOM      2  C   LIG    1       -0.014   1.212   0.009  0.00  0.00    +0.590 C 
ATOM      3  N   LIG    1       -0.970   1.679   0.837  0.00  0.00    -0.610 N 
ATOM      4  C   LIG    1       -0.704   2.920   1.548  0.00  0.00    +0.290 C 
ATOM      5  C   LIG    1       -1.632   4.032   1.036  0.00  0.00    +0.160 C 
ATOM      6  C   LIG    1       -3.003   3.798   1.636  0.00  0.00    +0.270 A 
ATOM      7  N   LIG    1       -3.631   4.520   2.494  0.00  0.00    -0.260 NA
ATOM      8  N   LIG    1       -4.868   3.910   2.757  0.00  0.00    -0.550 N 
ATOM      9  H   LIG    1       -5.550   4.233   3.366  0.00  0.00    +0.460 HD
ATOM     10  C   LIG    1       -4.932   2.787   2.006  0.00  0.00    +0.650 A 
ATOM     11  O   LIG    1       -5.857   1.995   1.969  0.00  0.00    -0.550 OA
ATOM     12  N   LIG    1       -3.791   2.708   1.309  0.00  0.00    -0.560 N 
ATOM     13  C   LIG    1       -3.375   1.676   0.346  0.00  0.00    +0.330 C 
ATOM     14  C   LIG    1       -2.198   0.911   0.957  0.00  0.00    +0.310 C 
ENDROOT
BRANCH   2  15
ATOM     15  C   LIG    1        1.281   1.904  -0.085  0.00  0.00    -0.040 A 
ATOM     16  C   LIG    1        2.537   1.323  -0.065  0.00  0.00    +0.010 A 
ATOM     17  C   LIG    1        3.438   2.384  -0.181  0.00  0.00    +0.200 A 
ATOM     18  N   LIG    1        2.745   3.491  -0.262  0.00  0.00    -0.270 NA
ATOM     19  N   LIG    1        1.485   3.249  -0.215  0.00  0.00    -0.380 N 
ATOM     20  H   LIG    1        0.784   3.918  -0.258  0.00  0.00    +0.440 HD
ENDBRANCH   2  15
TORSDOF 1
ENDMDL
MODEL       10
REMARK  Name = ZINC000004219208
REMARK                            x       y       z     vdW  Elec       q    Type
REMARK                         _______ _______ _______ _____ _____    ______ ____
ROOT
ATOM      1  O   LIG    1       -0.080  -0.013   0.091  0.00  0.00    -0.510 OA
ATOM      2  C   LIG    1       -0.024   1.199   0.088  0.00  0.00    +0.520 C 
ATOM      3  N   LIG    1       -1.157   1.926   0.158  0.00  0.00    -0.600 N 
ATOM      4  C   LIG    1       -1.123   3.391   0.039  0.00  0.00    +0.280 C 
ATOM      5  C   LIG    1       -1.891   3.994   1.220  0.00  0.00    +0.170 C 
ATOM      6  N   LIG    1       -3.236   3.406   1.276  0.00  0.00    -0.690 NA
ATOM      7  H   LIG    1       -3.804   3.869   1.971  0.00  0.00    +0.350 HD
ATOM      8  C   LIG    1       -3.176   1.960   1.524  0.00  0.00    +0.170 C 
ATOM      9  C   LIG    1       -2.462   1.273   0.349  0.00  0.00    +0.290 C 
ENDROOT
BRANCH   2  10
ATOM     10  C   LIG    1        1.300   1.887  -0.000  0.00  0.00    +0.520 C 
ATOM     11  N   LIG    1        2.015   2.117   1.119  0.00  0.00    -0.600 N 
ATOM     12  C   LIG    1        1.570   1.599   2.422  0.00  0.00    +0.250 C 
ATOM     13  C   LIG    1        2.745   0.862   3.076  0.00  0.00    +0.220 C 
ATOM     14  O   LIG    1        3.889   1.720   3.091  0.00  0.00    -0.380 OA
ATOM     15  C   LIG    1        4.357   2.093   1.793  0.00  0.00    +0.220 C 
ATOM     16  C   LIG    1        3.268   2.888   1.072  0.00  0.00    +0.270 C 
ATOM     17  O   LIG    1        1.731   2.238  -1.079  0.00  0.00    -0.510 OA
ENDBRANCH   2  10
TORSDOF 1
ENDMDL
MODEL       11
REMARK  Name = ZINC000017283847
REMARK                            x       y       z     vdW  Elec       q    Type
REMARK                         _______ _______ _______ _____ _____    ______ ____
ROOT
ATOM      1  C   LIG    1       -0.018   1.461   0.010  0.00  0.00    +0.360 C 
ATOM      2  N   LIG    1        0.002  -0.004   0.002  0.00  0.00    -0.550 N 
ATOM      3  C   LIG    1        0.005  -0.663  -1.178  0.00  0.00    +0.590 A 
ATOM      4  C   LIG    1        0.025  -2.134  -1.149  0.00  0.00    -0.180 A 
ATOM      5  C   LIG    1        0.040  -2.772   0.102  0.00  0.00    +0.500 A 
ATOM      6  N   LIG    1        0.035  -2.014   1.235  0.00  0.00    -0.530 N 
ATOM      7  C   LIG    1        0.051  -2.671   2.544  0.00  0.00    +0.360 C 
ATOM      8  N   LIG    1        0.059  -4.129   0.140  0.00  0.00    -0.600 N 
ATOM      9  H   LIG    1        0.070  -4.602   0.987  0.00  0.00    +0.430 HD
ATOM     10  C   LIG    1        0.062  -4.805  -1.030  0.00  0.00    +0.590 A 
ATOM     11  N   LIG    1        0.048  -4.149  -2.202  0.00  0.00    -0.280 NA
ATOM     12  O   LIG    1        0.079  -6.022  -1.022  0.00  0.00    -0.480 OA
ATOM     13  N   LIG    1        0.030  -2.862  -2.263  0.00  0.00    +0.000 NA
ATOM     14  O   LIG    1       -0.007  -0.058  -2.233  0.00  0.00    -0.440 OA
ATOM     15  C   LIG    1        0.022  -0.671   1.167  0.00  0.00    +0.710 A 
ATOM     16  O   LIG    1        0.018  -0.035   2.203  0.00  0.00    -0.500 OA
ENDROOT
TORSDOF 0
ENDMDL
MODEL       12
REMARK  Name = ZINC000004704321
REMARK                            x       y       z     vdW  Elec       q    Type
REMARK                         _______ _______ _______ _____ _____    ______ ____
ROOT
ATOM      1  C   LIG    1       -0.018   1.465   0.010  0.00  0.00    +0.310 C 
ATOM      2  N   LIG    1        0.002  -0.004   0.002  0.00  0.00    -0.380 N 
ATOM      3  C   LIG    1        0.709  -0.489   1.194  0.00  0.00    +0.250 C 
ATOM      4  C   LIG    1        0.631  -2.018   1.246  0.00  0.00    +0.320 C 
ATOM      5  N   LIG    1        1.144  -2.555  -0.024  0.00  0.00    -0.640 N 
ATOM      6  C   LIG    1        0.605  -2.005  -1.277  0.00  0.00    +0.310 C 
ATOM      7  C   LIG    1        2.081  -3.523  -0.038  0.00  0.00    +0.520 C 
ATOM      8  O   LIG    1        2.514  -3.965   1.005  0.00  0.00    -0.470 OA
ATOM      9  C   LIG    1        0.686  -0.476  -1.209  0.00  0.00    +0.260 C 
ATOM     10  H   LIG    1       -0.945  -0.352   0.009  0.00  0.00    +0.420 HD
ENDROOT
BRANCH   7  11
ATOM     11  C   LIG    1        2.592  -4.058  -1.352  0.00  0.00    +0.190 C 
BRANCH  11  12
ATOM     12  O   LIG    1        3.571  -5.069  -1.106  0.00  0.00    -0.330 OA
BRANCH  12  13
ATOM     13  C   LIG    1        4.123  -5.644  -2.292  0.00  0.00    +0.100 C 
BRANCH  13  14
ATOM     14  C   LIG    1        5.138  -6.692  -1.917  0.00  0.00    +0.500 C 
ATOM     15  O   LIG    1        5.730  -7.308  -2.788  0.00  0.00    -0.690 OA
ATOM     16  O   LIG    1        5.369  -6.925  -0.742  0.00  0.00    -0.670 OA
ENDBRANCH  13  14
ENDBRANCH  12  13
ENDBRANCH  11  12
ENDBRANCH   7  11
TORSDOF 4
ENDMDL
MODEL       13
REMARK  Name = ZINC000004097426
REMARK                            x       y       z     vdW  Elec       q    Type
REMARK                         _______ _______ _______ _____ _____    ______ ____
ROOT
ATOM      1  N   LIG    1       -2.144  -0.047  -1.177  0.00  0.00    -0.530 NA
ATOM      2  C   LIG    1       -1.807   1.355  -1.454  0.00  0.00    +0.170 C 
ATOM      3  C   LIG    1       -2.448   1.783  -2.777  0.00  0.00    +0.140 C 
ATOM      4  C   LIG    1       -3.966   1.613  -2.681  0.00  0.00    +0.150 C 
ATOM      5  C   LIG    1       -4.288   0.154  -2.344  0.00  0.00    +0.210 C 
ATOM      6  C   LIG    1       -3.594  -0.227  -1.034  0.00  0.00    +0.150 C 
ENDROOT
BRANCH   5   7
ATOM      7  O   LIG    1       -5.701  -0.001  -2.199  0.00  0.00    -0.560 OA
ATOM      8  H   LIG    1       -6.205   0.226  -2.992  0.00  0.00    +0.390 HD
ENDBRANCH   5   7
BRANCH   4   9
ATOM      9  O   LIG    1       -4.565   1.958  -3.932  0.00  0.00    -0.560 OA
ATOM     10  H   LIG    1       -4.398   2.869  -4.210  0.00  0.00    +0.390 HD
ENDBRANCH   4   9
BRANCH   3  11
ATOM     11  O   LIG    1       -2.136   3.153  -3.036  0.00  0.00    -0.570 OA
ATOM     12  H   LIG    1       -1.189   3.335  -3.107  0.00  0.00    +0.390 HD
ENDBRANCH   3  11
BRANCH   1  13
ATOM     13  C   LIG    1       -1.433  -0.534   0.013  0.00  0.00    +0.230 C 
BRANCH  13  14
ATOM     14  C   LIG    1       -0.005   0.016   0.015  0.00  0.00    +0.170 C 
BRANCH  14  15
ATOM     15  O   LIG    1       -0.036   1.421   0.275  0.00  0.00    -0.570 OA
ATOM     16  H   LIG    1        0.837   1.837   0.291  0.00  0.00    +0.380 HD
ENDBRANCH  14  15
ENDBRANCH  13  14
ENDBRANCH   1  13
BRANCH   6  17
ATOM     17  C   LIG    1       -3.896  -1.690  -0.704  0.00  0.00    +0.200 C 
BRANCH  17  18
ATOM     18  O   LIG    1       -3.346  -2.013   0.575  0.00  0.00    -0.570 OA
ATOM     19  H   LIG    1       -3.501  -2.927   0.850  0.00  0.00    +0.380 HD
ENDBRANCH  17  18
ENDBRANCH   6  17
TORSDOF 8
ENDMDL
MODEL       14
REMARK  Name = ZINC000003831131
REMARK                            x       y       z     vdW  Elec       q    Type
REMARK                         _______ _______ _______ _____ _____    ______ ____
ROOT
ATOM      1  N   LIG    1       -2.158  -0.009  -1.324  0.00  0.00    -0.490 NA
ATOM      2  C   LIG    1       -1.468  -0.570  -2.493  0.00  0.00    +0.140 C 
ATOM      3  C   LIG    1       -2.216  -0.172  -3.768  0.00  0.00    +0.140 C 
ATOM      4  C   LIG    1       -3.652  -0.698  -3.697  0.00  0.00    +0.130 C 
ATOM      5  C   LIG    1       -4.332  -0.136  -2.445  0.00  0.00    +0.190 C 
ATOM      6  C   LIG    1       -3.523  -0.536  -1.209  0.00  0.00    +0.150 C 
ENDROOT
BRANCH   5   7
ATOM      7  O   LIG    1       -4.395   1.288  -2.535  0.00  0.00    -0.500 OA
ATOM      8  H   LIG    1       -4.892   1.613  -3.299  0.00  0.00    +0.370 HD
ENDBRANCH   5   7
BRANCH   4   9
ATOM      9  O   LIG    1       -4.371  -0.281  -4.860  0.00  0.00    -0.550 OA
ATOM     10  H   LIG    1       -3.992  -0.598  -5.691  0.00  0.00    +0.380 HD
ENDBRANCH   4   9
BRANCH   3  11
ATOM     11  O   LIG    1       -2.234   1.253  -3.885  0.00  0.00    -0.520 OA
ATOM     12  H   LIG    1       -1.355   1.655  -3.932  0.00  0.00    +0.370 HD
ENDBRANCH   3  11
BRANCH   1  13
ATOM     13  C   LIG    1       -1.393  -0.254  -0.094  0.00  0.00    +0.180 C 
BRANCH  13  14
ATOM     14  C   LIG    1       -0.066   0.505  -0.159  0.00  0.00    +0.170 C 
BRANCH  14  15
ATOM     15  O   LIG    1       -0.321   1.911  -0.171  0.00  0.00    -0.550 OA
ATOM     16  H   LIG    1        0.477   2.455  -0.212  0.00  0.00    +0.370 HD
ENDBRANCH  14  15
ENDBRANCH  13  14
ENDBRANCH   1  13
BRANCH   6  17
ATOM     17  C   LIG    1       -4.188   0.040   0.043  0.00  0.00    +0.170 C 
BRANCH  17  18
ATOM     18  O   LIG    1       -4.295   1.459  -0.085  0.00  0.00    -0.520 OA
ATOM     19  H   LIG    1       -4.708   1.893   0.675  0.00  0.00    +0.360 HD
ENDBRANCH  17  18
ENDBRANCH   6  17
TORSDOF 8
ENDMDL
MODEL       15
REMARK  Name = ZINC000031500056
REMARK                            x       y       z     vdW  Elec       q    Type
REMARK                         _______ _______ _______ _____ _____    ______ ____
ROOT
ATOM      1  C   LIG    1        0.013  -3.707  -3.396  0.00  0.00    +0.280 C 
ENDROOT
BRANCH   1   5
ATOM      2  C   LIG    1       -0.000  -0.730  -1.271  0.00  0.00    +0.110 A 
ATOM      3  N   LIG    1       -0.013  -0.185  -2.472  0.00  0.00    -0.420 NA
ATOM      4  C   LIG    1       -0.011  -1.148  -3.387  0.00  0.00    +0.180 A 
ATOM      5  C   LIG    1        0.004  -2.346  -2.747  0.00  0.00    -0.020 A 
ATOM      6  N   LIG    1        0.017  -2.091  -1.419  0.00  0.00    -0.520 N 
ATOM      7  H   LIG    1        0.029  -2.748  -0.706  0.00  0.00    +0.430 HD
BRANCH   2   9
ATOM      8  C   LIG    1       -0.018   1.503   0.010  0.00  0.00    +0.110 C 
ATOM      9  C   LIG    1        0.002  -0.004   0.002  0.00  0.00    +0.440 C 
ATOM     10  O   LIG    1        0.020  -0.616   1.049  0.00  0.00    -0.460 OA
ENDBRANCH   2   9
ENDBRANCH   1   5
BRANCH   1  11
ATOM     11  O   LIG    1       -0.768  -3.669  -4.592  0.00  0.00    -0.510 OA
ATOM     12  H   LIG    1       -0.449  -3.037  -5.250  0.00  0.00    +0.370 HD
ENDBRANCH   1  11
BRANCH   1  13
ATOM     13  C   LIG    1        1.451  -4.099  -3.738  0.00  0.00    +0.170 C 
BRANCH  13  14
ATOM     14  O   LIG    1        2.044  -3.080  -4.545  0.00  0.00    -0.540 OA
ATOM     15  H   LIG    1        1.584  -2.922  -5.381  0.00  0.00    +0.370 HD
ENDBRANCH  13  14
BRANCH  13  16
ATOM     16  C   LIG    1        1.450  -5.422  -4.508  0.00  0.00    +0.190 C 
BRANCH  16  17
ATOM     17  O   LIG    1        0.603  -5.305  -5.653  0.00  0.00    -0.530 OA
ATOM     18  H   LIG    1        0.873  -4.614  -6.273  0.00  0.00    +0.360 HD
ENDBRANCH  16  17
BRANCH  16  19
ATOM     19  C   LIG    1        2.874  -5.752  -4.958  0.00  0.00    +0.160 C 
BRANCH  19  20
ATOM     20  O   LIG    1        2.892  -7.041  -5.575  0.00  0.00    -0.570 OA
ATOM     21  H   LIG    1        3.765  -7.316  -5.886  0.00  0.00    +0.380 HD
ENDBRANCH  19  20
ENDBRANCH  16  19
ENDBRANCH  13  16
ENDBRANCH   1  13
TORSDOF 9
ENDMDL
MODEL       16
REMARK  Name = ZINC000031500048
REMARK                            x       y       z     vdW  Elec       q    Type
REMARK                         _______ _______ _______ _____ _____    ______ ____
ROOT
ATOM      1  C   LIG    1        0.013  -3.707  -3.396  0.00  0.00    +0.270 C 
ENDROOT
BRANCH   1   5
ATOM      2  C   LIG    1       -0.000  -0.730  -1.271  0.00  0.00    +0.110 A 
ATOM      3  N   LIG    1       -0.013  -0.185  -2.472  0.00  0.00    -0.420 NA
ATOM      4  C   LIG    1       -0.011  -1.148  -3.387  0.00  0.00    +0.170 A 
ATOM      5  C   LIG    1        0.004  -2.346  -2.747  0.00  0.00    -0.020 A 
ATOM      6  N   LIG    1        0.017  -2.091  -1.419  0.00  0.00    -0.510 N 
ATOM      7  H   LIG    1        0.029  -2.748  -0.706  0.00  0.00    +0.430 HD
BRANCH   2   9
ATOM      8  C   LIG    1       -0.018   1.503   0.010  0.00  0.00    +0.110 C 
ATOM      9  C   LIG    1        0.002  -0.004   0.002  0.00  0.00    +0.440 C 
ATOM     10  O   LIG    1        0.020  -0.616   1.049  0.00  0.00    -0.460 OA
ENDBRANCH   2   9
ENDBRANCH   1   5
BRANCH   1  11
ATOM     11  O   LIG    1       -0.768  -3.669  -4.592  0.00  0.00    -0.520 OA
ATOM     12  H   LIG    1       -0.449  -3.037  -5.250  0.00  0.00    +0.380 HD
ENDBRANCH   1  11
BRANCH   1  13
ATOM     13  C   LIG    1        1.451  -4.099  -3.738  0.00  0.00    +0.160 C 
BRANCH  13  14
ATOM     14  O   LIG    1        2.232  -4.137  -2.542  0.00  0.00    -0.540 OA
ATOM     15  H   LIG    1        1.913  -4.769  -1.884  0.00  0.00    +0.380 HD
ENDBRANCH  13  14
BRANCH  13  16
ATOM     16  C   LIG    1        1.460  -5.480  -4.397  0.00  0.00    +0.190 C 
BRANCH  16  17
ATOM     17  O   LIG    1        0.679  -5.442  -5.593  0.00  0.00    -0.530 OA
ATOM     18  H   LIG    1        0.998  -4.810  -6.251  0.00  0.00    +0.370 HD
ENDBRANCH  16  17
BRANCH  16  19
ATOM     19  C   LIG    1        2.898  -5.873  -4.739  0.00  0.00    +0.160 C 
BRANCH  19  20
ATOM     20  O   LIG    1        2.920  -7.209  -5.247  0.00  0.00    -0.560 OA
ATOM     21  H   LIG    1        3.802  -7.525  -5.486  0.00  0.00    +0.380 HD
ENDBRANCH  19  20
ENDBRANCH  16  19
ENDBRANCH  13  16
ENDBRANCH   1  13
TORSDOF 9
ENDMDL
MODEL       17
REMARK  Name = ZINC000031500058
REMARK                            x       y       z     vdW  Elec       q    Type
REMARK                         _______ _______ _______ _____ _____    ______ ____
ROOT
ATOM      1  C   LIG    1        0.013  -3.707  -3.396  0.00  0.00    +0.280 C 
ENDROOT
BRANCH   1   5
ATOM      2  C   LIG    1       -0.000  -0.730  -1.271  0.00  0.00    +0.110 A 
ATOM      3  N   LIG    1       -0.013  -0.185  -2.472  0.00  0.00    -0.420 NA
ATOM      4  C   LIG    1       -0.011  -1.148  -3.387  0.00  0.00    +0.170 A 
ATOM      5  C   LIG    1        0.004  -2.346  -2.747  0.00  0.00    -0.020 A 
ATOM      6  N   LIG    1        0.017  -2.091  -1.419  0.00  0.00    -0.510 N 
ATOM      7  H   LIG    1        0.029  -2.748  -0.706  0.00  0.00    +0.430 HD
BRANCH   2   9
ATOM      8  C   LIG    1       -0.018   1.503   0.010  0.00  0.00    +0.110 C 
ATOM      9  C   LIG    1        0.002  -0.004   0.002  0.00  0.00    +0.440 C 
ATOM     10  O   LIG    1        0.020  -0.616   1.049  0.00  0.00    -0.460 OA
ENDBRANCH   2   9
ENDBRANCH   1   5
BRANCH   1  11
ATOM     11  O   LIG    1        0.777  -3.654  -4.602  0.00  0.00    -0.530 OA
ATOM     12  H   LIG    1        0.437  -3.028  -5.256  0.00  0.00    +0.380 HD
ENDBRANCH   1  11
BRANCH   1  13
ATOM     13  C   LIG    1       -1.423  -4.126  -3.719  0.00  0.00    +0.170 C 
BRANCH  13  14
ATOM     14  O   LIG    1       -2.187  -4.179  -2.513  0.00  0.00    -0.540 OA
ATOM     15  H   LIG    1       -1.847  -4.805  -1.859  0.00  0.00    +0.370 HD
ENDBRANCH  13  14
BRANCH  13  16
ATOM     16  C   LIG    1       -1.414  -5.507  -4.378  0.00  0.00    +0.200 C 
BRANCH  16  17
ATOM     17  O   LIG    1       -0.726  -6.433  -3.534  0.00  0.00    -0.540 OA
ATOM     18  H   LIG    1       -1.123  -6.537  -2.659  0.00  0.00    +0.370 HD
ENDBRANCH  16  17
BRANCH  16  19
ATOM     19  C   LIG    1       -2.853  -5.981  -4.588  0.00  0.00    +0.170 C 
BRANCH  19  20
ATOM     20  O   LIG    1       -2.848  -7.216  -5.307  0.00  0.00    -0.560 OA
ATOM     21  H   LIG    1       -3.730  -7.576  -5.476  0.00  0.00    +0.380 HD
ENDBRANCH  19  20
ENDBRANCH  16  19
ENDBRANCH  13  16
ENDBRANCH   1  13
TORSDOF 9
ENDMDL
MODEL       18
REMARK  Name = ZINC000022865445
REMARK                            x       y       z     vdW  Elec       q    Type
REMARK                         _______ _______ _______ _____ _____    ______ ____
ROOT
ATOM      1  C   LIG    1        0.051  -4.569   2.285  0.00  0.00    +0.220 A 
ATOM      2  C   LIG    1        1.268  -5.155   2.265  0.00  0.00    -0.120 A 
ATOM      3  C   LIG    1        1.829  -5.617   3.480  0.00  0.00    +0.550 A 
ATOM      4  N   LIG    1        1.139  -5.463   4.628  0.00  0.00    -0.660 N 
ATOM      5  H   LIG    1        1.517  -5.777   5.465  0.00  0.00    +0.430 HD
ATOM      6  C   LIG    1       -0.071  -4.875   4.619  0.00  0.00    +0.700 A 
ATOM      7  O   LIG    1       -0.681  -4.743   5.662  0.00  0.00    -0.540 OA
ATOM      8  O   LIG    1        2.925  -6.149   3.488  0.00  0.00    -0.510 OA
ATOM      9  N   LIG    1       -0.614  -4.427   3.472  0.00  0.00    -0.620 N 
ATOM     10  H   LIG    1       -1.487  -4.006   3.486  0.00  0.00    +0.440 HD
ENDROOT
BRANCH   1  11
ATOM     11  C   LIG    1       -0.568  -4.068   1.006  0.00  0.00    +0.270 C 
BRANCH  11  16
ATOM     12  C   LIG    1       -0.626   1.512   0.128  0.00  0.00    +0.190 C 
ATOM     13  N   LIG    1       -0.490   0.050   0.066  0.00  0.00    -0.550 NA
ATOM     14  C   LIG    1       -1.800  -0.606   0.178  0.00  0.00    +0.170 C 
ATOM     15  C   LIG    1       -1.624  -2.119   0.030  0.00  0.00    +0.200 C 
ATOM     16  N   LIG    1       -0.704  -2.607   1.067  0.00  0.00    -0.540 NA
ATOM     17  C   LIG    1        0.606  -1.950   0.956  0.00  0.00    +0.180 C 
ATOM     18  C   LIG    1        0.430  -0.437   1.104  0.00  0.00    +0.180 C 
ENDBRANCH  11  16
ENDBRANCH   1  11
TORSDOF 2
ENDMDL
MODEL       19
REMARK  Name = ZINC000002086385
REMARK                            x       y       z     vdW  Elec       q    Type
REMARK                         _______ _______ _______ _____ _____    ______ ____
ROOT
ATOM      1  N   LIG    1        1.448  -3.871  -0.033  0.00  0.00    -0.590 N 
ATOM      2  H   LIG    1        0.635  -4.399  -0.001  0.00  0.00    +0.390 HD
ATOM      3  C   LIG    1        2.647  -4.484  -0.085  0.00  0.00    +0.570 C 
ATOM      4  O   LIG    1        3.666  -3.824  -0.126  0.00  0.00    -0.520 OA
ENDROOT
BRANCH   1   9
ATOM      5  C   LIG    1       -0.018   1.465   0.010  0.00  0.00    +0.320 C 
ATOM      6  N   LIG    1        0.002  -0.004   0.002  0.00  0.00    -0.390 N 
ATOM      7  C   LIG    1        0.712  -0.490   1.192  0.00  0.00    +0.280 C 
ATOM      8  C   LIG    1        0.717  -2.021   1.194  0.00  0.00    +0.210 C 
ATOM      9  N   LIG    1        1.378  -2.507  -0.025  0.00  0.00    -0.290 NA
ATOM     10  C   LIG    1        0.693  -2.008  -1.225  0.00  0.00    +0.210 C 
ATOM     11  C   LIG    1        0.689  -0.477  -1.207  0.00  0.00    +0.280 C 
ATOM     12  H   LIG    1       -0.945  -0.353   0.009  0.00  0.00    +0.420 HD
ENDBRANCH   1   9
BRANCH   3  13
ATOM     13  C   LIG    1        2.723  -5.961  -0.094  0.00  0.00    -0.090 C 
ATOM     14  C   LIG    1        3.917  -6.572  -0.146  0.00  0.00    +0.050 C 
BRANCH  14  15
ATOM     15  C   LIG    1        3.993  -8.044  -0.155  0.00  0.00    +0.500 C 
ATOM     16  O   LIG    1        5.080  -8.601  -0.203  0.00  0.00    -0.670 OA
ATOM     17  O   LIG    1        2.967  -8.709  -0.114  0.00  0.00    -0.680 OA
ENDBRANCH  14  15
ENDBRANCH   3  13
TORSDOF 3
ENDMDL
MODEL       20
REMARK  Name = ZINC000041157960
REMARK                            x       y       z     vdW  Elec       q    Type
REMARK                         _______ _______ _______ _____ _____    ______ ____
ROOT
ATOM      1  C   LIG    1        0.057  -3.349   1.625  0.00  0.00    +0.360 C 
ENDROOT
BRANCH   1   2
ATOM      2  C   LIG    1        1.485  -3.733   1.916  0.00  0.00    +0.500 C 
ATOM      3  N   LIG    1        1.750  -4.798   2.699  0.00  0.00    -0.610 N 
ATOM      4  C   LIG    1        0.662  -5.601   3.275  0.00  0.00    +0.290 C 
ATOM      5  C   LIG    1        0.903  -5.738   4.782  0.00  0.00    +0.170 C 
ATOM      6  N   LIG    1        2.254  -6.267   5.012  0.00  0.00    -0.690 NA
ATOM      7  H   LIG    1        2.398  -6.479   5.988  0.00  0.00    +0.350 HD
ATOM      8  C   LIG    1        3.280  -5.340   4.518  0.00  0.00    +0.170 C 
ATOM      9  C   LIG    1        3.137  -5.190   2.995  0.00  0.00    +0.300 C 
ATOM     10  O   LIG    1        2.395  -3.085   1.445  0.00  0.00    -0.530 OA
ENDBRANCH   1   2
BRANCH   1  15
ATOM     11  C   LIG    1       -0.018   1.503   0.010  0.00  0.00    +0.160 C 
ATOM     12  C   LIG    1        0.002  -0.004   0.002  0.00  0.00    -0.110 C 
ATOM     13  C   LIG    1        0.009  -0.799  -1.081  0.00  0.00    +0.030 C 
ATOM     14  C   LIG    1        0.030  -2.194  -0.587  0.00  0.00    +0.550 C 
ATOM     15  N   LIG    1        0.036  -2.168   0.758  0.00  0.00    -0.580 N 
ATOM     16  O   LIG    1        0.042  -3.192  -1.278  0.00  0.00    -0.450 OA
ATOM     17  C   LIG    1        0.025  -0.893   1.185  0.00  0.00    +0.550 C 
ATOM     18  O   LIG    1        0.027  -0.532   2.344  0.00  0.00    -0.450 OA
ENDBRANCH   1  15
TORSDOF 2
ENDMDL
MODEL       21
REMARK  Name = ZINC000003010509
REMARK                            x       y       z     vdW  Elec       q    Type
REMARK                         _______ _______ _______ _____ _____    ______ ____
ROOT
ATOM      1  N   LIG    1       -0.930  -2.548   1.294  0.00  0.00    -0.710 N 
ATOM      2  H   LIG    1       -1.018  -1.998   2.087  0.00  0.00    +0.410 HD
ATOM      3  C   LIG    1       -0.359  -3.766   1.378  0.00  0.00    +0.530 C 
ATOM      4  O   LIG    1       -0.250  -4.454   0.385  0.00  0.00    -0.520 OA
ENDROOT
BRANCH   1   5
ATOM      5  C   LIG    1       -1.419  -2.055   0.003  0.00  0.00    +0.250 C 
BRANCH   5   6
ATOM      6  C   LIG    1       -2.816  -2.568  -0.234  0.00  0.00    +0.500 C 
ATOM      7  O   LIG    1       -3.351  -3.275   0.594  0.00  0.00    -0.530 OA
ATOM      8  N   LIG    1       -3.471  -2.240  -1.365  0.00  0.00    -0.850 N 
ATOM      9  H   LIG    1       -4.371  -2.570  -1.518  0.00  0.00    +0.400 HD
ATOM     10  H   LIG    1       -3.043  -1.675  -2.027  0.00  0.00    +0.400 HD
ENDBRANCH   5   6
BRANCH   5  11
ATOM     11  C   LIG    1       -1.431  -0.526   0.013  0.00  0.00    +0.050 C 
BRANCH  11  13
ATOM     12  C   LIG    1        0.799  -0.378  -1.104  0.00  0.00    +0.030 C 
ATOM     13  C   LIG    1        0.001  -0.005   0.147  0.00  0.00    -0.030 C 
ATOM     14  C   LIG    1       -0.022   1.517   0.302  0.00  0.00    +0.030 C 
ENDBRANCH  11  13
ENDBRANCH   5  11
ENDBRANCH   1   5
BRANCH   3  15
ATOM     15  CA  LIG    1        0.143  -4.273   2.705  0.00  0.00    +0.190 C 
BRANCH  15  16
ATOM     16  N   LIG    1        0.269  -5.735   2.655  0.00  0.00    -0.820 NA
ATOM     17  H1  LIG    1        0.542  -6.106   3.553  0.00  0.00    +0.360 HD
ATOM     18  H2  LIG    1        0.916  -6.018   1.935  0.00  0.00    +0.350 HD
ENDBRANCH  15  16
BRANCH  15  19
ATOM     19  C   LIG    1        1.510  -3.653   3.003  0.00  0.00    +0.150 C 
BRANCH  19  20
ATOM     20  O   LIG    1        1.934  -4.041   4.311  0.00  0.00    -0.570 OA
ATOM     21  H   LIG    1        2.795  -3.684   4.568  0.00  0.00    +0.390 HD
ENDBRANCH  19  20
ENDBRANCH  15  19
ENDBRANCH   3  15
TORSDOF 8
ENDMDL
MODEL       22
REMARK  Name = ZINC000005114223
REMARK                            x       y       z     vdW  Elec       q    Type
REMARK                         _______ _______ _______ _____ _____    ______ ____
ROOT
ATOM      1  C   LIG    1        0.013  -3.707  -3.396  0.00  0.00    +0.280 C 
ENDROOT
BRANCH   1   5
ATOM      2  C   LIG    1       -0.000  -0.730  -1.271  0.00  0.00    +0.110 A 
ATOM      3  N   LIG    1       -0.013  -0.185  -2.472  0.00  0.00    -0.420 NA
ATOM      4  C   LIG    1       -0.011  -1.148  -3.387  0.00  0.00    +0.180 A 
ATOM      5  C   LIG    1        0.004  -2.346  -2.747  0.00  0.00    -0.020 A 
ATOM      6  N   LIG    1        0.017  -2.091  -1.419  0.00  0.00    -0.520 N 
ATOM      7  H   LIG    1        0.029  -2.748  -0.706  0.00  0.00    +0.430 HD
BRANCH   2   9
ATOM      8  C   LIG    1       -0.018   1.503   0.010  0.00  0.00    +0.110 C 
ATOM      9  C   LIG    1        0.002  -0.004   0.002  0.00  0.00    +0.440 C 
ATOM     10  O   LIG    1        0.020  -0.616   1.049  0.00  0.00    -0.460 OA
ENDBRANCH   2   9
ENDBRANCH   1   5
BRANCH   1  11
ATOM     11  O   LIG    1       -0.768  -3.669  -4.592  0.00  0.00    -0.530 OA
ATOM     12  H   LIG    1       -0.449  -3.037  -5.250  0.00  0.00    +0.380 HD
ENDBRANCH   1  11
BRANCH   1  13
ATOM     13  C   LIG    1        1.451  -4.099  -3.738  0.00  0.00    +0.160 C 
BRANCH  13  14
ATOM     14  O   LIG    1        2.044  -3.080  -4.545  0.00  0.00    -0.540 OA
ATOM     15  H   LIG    1        1.584  -2.922  -5.381  0.00  0.00    +0.380 HD
ENDBRANCH  13  14
BRANCH  13  16
ATOM     16  C   LIG    1        1.450  -5.422  -4.508  0.00  0.00    +0.200 C 
BRANCH  16  17
ATOM     17  O   LIG    1        0.857  -6.441  -3.701  0.00  0.00    -0.540 OA
ATOM     18  H   LIG    1        1.316  -6.599  -2.865  0.00  0.00    +0.370 HD
ENDBRANCH  16  17
BRANCH  16  19
ATOM     19  C   LIG    1        2.888  -5.814  -4.850  0.00  0.00    +0.160 C 
BRANCH  19  20
ATOM     20  O   LIG    1        2.880  -6.986  -5.668  0.00  0.00    -0.560 OA
ATOM     21  H   LIG    1        3.760  -7.293  -5.924  0.00  0.00    +0.380 HD
ENDBRANCH  19  20
ENDBRANCH  16  19
ENDBRANCH  13  16
ENDBRANCH   1  13
TORSDOF 9
ENDMDL
MODEL       23
REMARK  Name = ZINC000071877187
REMARK                            x       y       z     vdW  Elec       q    Type
REMARK                         _______ _______ _______ _____ _____    ______ ____
ROOT
ATOM      1  C   LIG    1        1.451  -2.612   2.345  0.00  0.00    +0.190 C 
ENDROOT
BRANCH   1   7
ATOM      2  C   LIG    1       -0.018   1.465   0.010  0.00  0.00    +0.190 C 
ATOM      3  N   LIG    1        0.002  -0.004   0.002  0.00  0.00    -0.540 NA
ATOM      4  C   LIG    1        0.607  -0.516  -1.236  0.00  0.00    +0.140 C 
ATOM      5  C   LIG    1        0.553  -2.046  -1.230  0.00  0.00    +0.220 C 
ATOM      6  O   LIG    1        1.216  -2.536  -0.061  0.00  0.00    -0.360 OA
ATOM      7  C   LIG    1        0.652  -2.058   1.164  0.00  0.00    +0.170 C 
ATOM      8  C   LIG    1        0.707  -0.528   1.181  0.00  0.00    +0.160 C 
ENDBRANCH   1   7
BRANCH   1   9
ATOM      9  N   LIG    1        1.402  -4.080   2.324  0.00  0.00    -0.670 NA
ATOM     10  H   LIG    1        0.448  -4.410   2.328  0.00  0.00    +0.340 HD
BRANCH   9  11
ATOM     11  C   LIG    1        2.160  -4.648   3.446  0.00  0.00    +0.210 C 
BRANCH  11  12
ATOM     12  C   LIG    1        2.085  -6.176   3.391  0.00  0.00    -0.340 C 
BRANCH  12  13
ATOM     13  S   LIG    1        3.022  -6.877   4.777  0.00  0.00    +2.430 S 
ATOM     14  O   LIG    1        2.377  -6.514   5.990  0.00  0.00    -0.940 OA
ATOM     15  O   LIG    1        4.396  -6.562   4.601  0.00  0.00    -0.940 OA
ATOM     16  C   LIG    1        2.799  -8.659   4.516  0.00  0.00    -0.260 C 
ENDBRANCH  12  13
ENDBRANCH  11  12
ENDBRANCH   9  11
ENDBRANCH   1   9
TORSDOF 5
ENDMDL
MODEL       24
REMARK  Name = ZINC000005167384
REMARK                            x       y       z     vdW  Elec       q    Type
REMARK                         _______ _______ _______ _____ _____    ______ ____
ROOT
ATOM      1  C   LIG    1       -1.136  -2.159   0.001  0.00  0.00    +0.220 C 
ATOM      2  C   LIG    1       -0.992  -2.675   1.435  0.00  0.00    +0.230 C 
ATOM      3  N   LIG    1       -0.993  -4.144   1.429  0.00  0.00    -0.650 NA
ATOM      4  H   LIG    1       -0.207  -4.504   0.909  0.00  0.00    +0.350 HD
ATOM      5  CA  LIG    1       -2.258  -4.672   0.903  0.00  0.00    +0.190 C 
ATOM      6  C   LIG    1       -2.440  -4.215  -0.546  0.00  0.00    +0.120 C 
ATOM      7  C   LIG    1       -2.444  -2.684  -0.597  0.00  0.00    +0.140 C 
ENDROOT
BRANCH   1  10
ATOM      8  C   LIG    1       -0.018   1.503   0.010  0.00  0.00    +0.100 C 
ATOM      9  C   LIG    1        0.002  -0.004   0.002  0.00  0.00    +0.510 C 
ATOM     10  N   LIG    1       -1.156  -0.694   0.009  0.00  0.00    -0.720 N 
ATOM     11  H   LIG    1       -2.002  -0.220   0.020  0.00  0.00    +0.400 HD
ATOM     12  O   LIG    1        1.060  -0.596  -0.011  0.00  0.00    -0.540 OA
ENDBRANCH   1  10
BRANCH   6  13
ATOM     13  O   LIG    1       -3.681  -4.712  -1.051  0.00  0.00    -0.550 OA
ATOM     14  H   LIG    1       -3.862  -4.460  -1.967  0.00  0.00    +0.380 HD
ENDBRANCH   6  13
BRANCH   7  15
ATOM     15  O   LIG    1       -2.558  -2.252  -1.955  0.00  0.00    -0.550 OA
ATOM     16  H   LIG    1       -3.363  -2.554  -2.397  0.00  0.00    +0.380 HD
ENDBRANCH   7  15
BRANCH   5  17
ATOM     17  C   LIG    1       -2.234  -6.201   0.956  0.00  0.00    +0.190 C 
BRANCH  17  18
ATOM     18  O   LIG    1       -2.182  -6.630   2.318  0.00  0.00    -0.560 OA
ATOM     19  H   LIG    1       -2.164  -7.590   2.427  0.00  0.00    +0.380 HD
ENDBRANCH  17  18
ENDBRANCH   5  17
TORSDOF 5
ENDMDL
MODEL       25
REMARK  Name = ZINC000071877186
REMARK                            x       y       z     vdW  Elec       q    Type
REMARK                         _______ _______ _______ _____ _____    ______ ____
ROOT
ATOM      1  C   LIG    1        1.417  -2.612   2.365  0.00  0.00    +0.190 C 
ENDROOT
BRANCH   1   7
ATOM      2  C   LIG    1       -0.018   1.465   0.010  0.00  0.00    +0.190 C 
ATOM      3  N   LIG    1        0.002  -0.004   0.002  0.00  0.00    -0.540 NA
ATOM      4  C   LIG    1       -1.361  -0.549  -0.075  0.00  0.00    +0.140 C 
ATOM      5  C   LIG    1       -1.291  -2.077  -0.141  0.00  0.00    +0.230 C 
ATOM      6  O   LIG    1       -0.576  -2.566   0.997  0.00  0.00    -0.380 OA
ATOM      7  C   LIG    1        0.756  -2.056   1.102  0.00  0.00    +0.170 C 
ATOM      8  C   LIG    1        0.707  -0.528   1.181  0.00  0.00    +0.150 C 
ENDBRANCH   1   7
BRANCH   1   9
ATOM      9  N   LIG    1        1.568  -4.068   2.238  0.00  0.00    -0.680 NA
ATOM     10  H   LIG    1        0.679  -4.509   2.054  0.00  0.00    +0.350 HD
BRANCH   9  11
ATOM     11  C   LIG    1        2.201  -4.638   3.434  0.00  0.00    +0.210 C 
BRANCH  11  12
ATOM     12  C   LIG    1        2.341  -6.153   3.265  0.00  0.00    -0.340 C 
BRANCH  12  13
ATOM     13  S   LIG    1        3.123  -6.857   4.742  0.00  0.00    +2.430 S 
ATOM     14  O   LIG    1        2.245  -6.682   5.846  0.00  0.00    -0.940 OA
ATOM     15  O   LIG    1        4.453  -6.364   4.829  0.00  0.00    -0.940 OA
ATOM     16  C   LIG    1        3.186  -8.622   4.328  0.00  0.00    -0.260 C 
ENDBRANCH  12  13
ENDBRANCH  11  12
ENDBRANCH   9  11
ENDBRANCH   1   9
TORSDOF 5
ENDMDL
MODEL       26
REMARK  Name = ZINC000106524341
REMARK                            x       y       z     vdW  Elec       q    Type
REMARK                         _______ _______ _______ _____ _____    ______ ____
ROOT
ATOM      1  C   LIG    1       -0.139  -0.292  -2.431  0.00  0.00    +0.160 C 
ATOM      2  C   LIG    1       -1.448  -1.070  -2.272  0.00  0.00    +0.300 C 
ATOM      3  O   LIG    1       -1.162  -2.466  -2.167  0.00  0.00    -0.380 OA
ATOM      4  C   LIG    1       -0.509  -3.015  -3.314  0.00  0.00    +0.140 C 
ATOM      5  C   LIG    1        0.838  -2.316  -3.516  0.00  0.00    +0.120 C 
ATOM      6  C   LIG    1        0.605  -0.808  -3.667  0.00  0.00    +0.200 C 
ENDROOT
BRANCH   5   7
ATOM      7  O   LIG    1        1.676  -2.559  -2.385  0.00  0.00    -0.510 OA
ATOM      8  H   LIG    1        1.802  -3.497  -2.183  0.00  0.00    +0.360 HD
ENDBRANCH   5   7
BRANCH   2   9
ATOM      9  O   LIG    1       -2.122  -0.632  -1.090  0.00  0.00    -0.530 OA
ATOM     10  H   LIG    1       -2.961  -1.083  -0.925  0.00  0.00    +0.390 HD
ENDBRANCH   2   9
BRANCH   6  11
ATOM     11  O   LIG    1        1.863  -0.140  -3.784  0.00  0.00    -0.530 OA
ATOM     12  H   LIG    1        2.390  -0.424  -4.543  0.00  0.00    +0.370 HD
ENDBRANCH   6  11
BRANCH   1  13
ATOM     13  N   LIG    1        0.696  -0.487  -1.238  0.00  0.00    -0.490 NA
BRANCH  13  15
ATOM     14  C   LIG    1        1.368   1.855  -0.986  0.00  0.00    +0.020 C 
ATOM     15  C   LIG    1        0.623   0.680  -0.349  0.00  0.00    +0.150 C 
ENDBRANCH  13  15
BRANCH  13  16
ATOM     16  C   LIG    1        0.319  -1.715  -0.527  0.00  0.00    +0.200 C 
ATOM     17  C   LIG    1        1.322  -1.982   0.597  0.00  0.00    +0.000 C 
ENDBRANCH  13  16
ENDBRANCH   1  13
BRANCH   4  18
ATOM     18  C   LIG    1       -0.280  -4.513  -3.103  0.00  0.00    +0.210 C 
BRANCH  18  19
ATOM     19  O   LIG    1       -1.541  -5.182  -3.029  0.00  0.00    -0.560 OA
ATOM     20  H   LIG    1       -1.472  -6.137  -2.896  0.00  0.00    +0.380 HD
ENDBRANCH  18  19
ENDBRANCH   4  18
TORSDOF 8
ENDMDL
MODEL       27
REMARK  Name = ZINC000106263724
REMARK                            x       y       z     vdW  Elec       q    Type
REMARK                         _______ _______ _______ _____ _____    ______ ____
ROOT
ATOM      1  O   LIG    1        0.121   0.294  -0.481  0.00  0.00    -0.540 OA
ATOM      2  C   LIG    1        0.156   1.504  -0.415  0.00  0.00    +0.530 C 
ATOM      3  N   LIG    1       -0.993   2.190  -0.471  0.00  0.00    -0.720 N 
ATOM      4  H   LIG    1       -1.817   1.697  -0.606  0.00  0.00    +0.400 HD
ATOM      5  C   LIG    1       -1.066   3.642  -0.342  0.00  0.00    +0.280 C 
ATOM      6  C   LIG    1        0.312   4.269  -0.568  0.00  0.00    +0.190 C 
ATOM      7  N   LIG    1        1.296   3.546   0.245  0.00  0.00    -0.540 NA
ATOM      8  C   LIG    1        2.579   4.252   0.330  0.00  0.00    +0.200 C 
ATOM      9  C   LIG    1        3.509   3.482   1.273  0.00  0.00    +0.180 C 
ATOM     10  N   LIG    1        3.685   2.109   0.783  0.00  0.00    -0.520 NA
ATOM     11  C   LIG    1        2.395   1.409   0.680  0.00  0.00    +0.220 C 
ATOM     12  C   LIG    1        1.485   2.184  -0.267  0.00  0.00    +0.160 C 
ENDROOT
BRANCH  10  13
ATOM     13  C   LIG    1        4.622   1.363   1.633  0.00  0.00    +0.160 C 
BRANCH  13  14
ATOM     14  C   LIG    1        6.010   2.001   1.545  0.00  0.00    +0.170 C 
BRANCH  14  15
ATOM     15  O   LIG    1        6.497   1.898   0.205  0.00  0.00    -0.530 OA
ATOM     16  H   LIG    1        7.375   2.283   0.075  0.00  0.00    +0.360 HD
ENDBRANCH  14  15
ENDBRANCH  13  14
BRANCH  13  17
ATOM     17  C   LIG    1        4.698  -0.089   1.158  0.00  0.00    +0.180 C 
BRANCH  17  18
ATOM     18  O   LIG    1        5.214  -0.128  -0.174  0.00  0.00    -0.530 OA
ATOM     19  H   LIG    1        5.289  -1.020  -0.541  0.00  0.00    +0.370 HD
ENDBRANCH  17  18
ENDBRANCH  13  17
ENDBRANCH  10  13
TORSDOF 5
ENDMDL
MODEL       28
REMARK  Name = ZINC000105102137
REMARK                            x       y       z     vdW  Elec       q    Type
REMARK                         _______ _______ _______ _____ _____    ______ ____
ROOT
ATOM      1  C   LIG    1       -2.001  -0.759  -0.356  0.00  0.00    +0.140 C 
ATOM      2  O   LIG    1       -2.323  -0.403   1.006  0.00  0.00    -0.360 OA
ATOM      3  C   LIG    1       -3.443  -1.215   1.397  0.00  0.00    +0.280 C 
ATOM      4  C   LIG    1       -3.394  -2.502   0.552  0.00  0.00    +0.200 C 
ATOM      5  C   LIG    1       -2.174  -2.299  -0.382  0.00  0.00    +0.120 C 
ENDROOT
BRANCH   4   6
ATOM      6  O   LIG    1       -4.592  -2.644  -0.214  0.00  0.00    -0.520 OA
ATOM      7  H   LIG    1       -4.614  -3.438  -0.765  0.00  0.00    +0.380 HD
ENDBRANCH   4   6
BRANCH   3   8
ATOM      8  O   LIG    1       -4.663  -0.514   1.145  0.00  0.00    -0.530 OA
ATOM      9  H   LIG    1       -4.751   0.312   1.639  0.00  0.00    +0.380 HD
ENDBRANCH   3   8
BRANCH   5  10
ATOM     10  O   LIG    1       -2.460  -2.764  -1.702  0.00  0.00    -0.540 OA
ATOM     11  H   LIG    1       -1.727  -2.658  -2.324  0.00  0.00    +0.390 HD
ENDBRANCH   5  10
BRANCH   1  12
ATOM     12  C   LIG    1       -0.558  -0.373  -0.686  0.00  0.00    +0.190 C 
BRANCH  12  13
ATOM     13  O   LIG    1       -0.441   1.050  -0.720  0.00  0.00    -0.560 OA
ATOM     14  H   LIG    1        0.450   1.367  -0.924  0.00  0.00    +0.380 HD
ENDBRANCH  12  13
ENDBRANCH   1  12
BRANCH   3  15
ATOM     15  C   LIG    1       -3.340  -1.560   2.884  0.00  0.00    +0.190 C 
BRANCH  15  16
ATOM     16  N   LIG    1       -3.542  -0.345   3.685  0.00  0.00    -0.540 NA
ATOM     17  C   LIG    1       -2.652   0.733   3.238  0.00  0.00    +0.180 C 
ATOM     18  C   LIG    1       -2.989   2.021   3.993  0.00  0.00    +0.020 C 
ATOM     19  C   LIG    1       -2.821   1.785   5.496  0.00  0.00    +0.000 C 
ATOM     20  C   LIG    1       -3.723   0.625   5.927  0.00  0.00    +0.020 C 
ATOM     21  C   LIG    1       -3.364  -0.622   5.116  0.00  0.00    +0.170 C 
ENDBRANCH  15  16
ENDBRANCH   3  15
TORSDOF 7
ENDMDL
MODEL       29
REMARK  Name = ZINC000004896145
REMARK                            x       y       z     vdW  Elec       q    Type
REMARK                         _______ _______ _______ _____ _____    ______ ____
ROOT
ATOM      1  C   LIG    1       -2.001  -0.759  -0.356  0.00  0.00    +0.140 C 
ATOM      2  O   LIG    1       -2.323  -0.403   1.006  0.00  0.00    -0.360 OA
ATOM      3  C   LIG    1       -3.443  -1.215   1.397  0.00  0.00    +0.290 C 
ATOM      4  C   LIG    1       -3.394  -2.502   0.552  0.00  0.00    +0.190 C 
ATOM      5  C   LIG    1       -2.174  -2.299  -0.382  0.00  0.00    +0.130 C 
ENDROOT
BRANCH   4   6
ATOM      6  O   LIG    1       -4.592  -2.644  -0.214  0.00  0.00    -0.520 OA
ATOM      7  H   LIG    1       -4.614  -3.438  -0.765  0.00  0.00    +0.380 HD
ENDBRANCH   4   6
BRANCH   3   8
ATOM      8  O   LIG    1       -4.663  -0.514   1.145  0.00  0.00    -0.530 OA
ATOM      9  H   LIG    1       -4.751   0.312   1.639  0.00  0.00    +0.390 HD
ENDBRANCH   3   8
BRANCH   5  10
ATOM     10  O   LIG    1       -1.015  -2.949   0.144  0.00  0.00    -0.550 OA
ATOM     11  H   LIG    1       -0.225  -2.850  -0.405  0.00  0.00    +0.380 HD
ENDBRANCH   5  10
BRANCH   1  12
ATOM     12  C   LIG    1       -0.558  -0.373  -0.686  0.00  0.00    +0.200 C 
BRANCH  12  13
ATOM     13  O   LIG    1       -0.441   1.050  -0.720  0.00  0.00    -0.560 OA
ATOM     14  H   LIG    1        0.450   1.367  -0.924  0.00  0.00    +0.380 HD
ENDBRANCH  12  13
ENDBRANCH   1  12
BRANCH   3  15
ATOM     15  C   LIG    1       -3.340  -1.560   2.884  0.00  0.00    +0.190 C 
BRANCH  15  16
ATOM     16  N   LIG    1       -3.542  -0.345   3.685  0.00  0.00    -0.540 NA
ATOM     17  C   LIG    1       -2.652   0.733   3.238  0.00  0.00    +0.180 C 
ATOM     18  C   LIG    1       -2.989   2.021   3.993  0.00  0.00    +0.020 C 
ATOM     19  C   LIG    1       -2.821   1.785   5.496  0.00  0.00    +0.000 C 
ATOM     20  C   LIG    1       -3.723   0.625   5.927  0.00  0.00    +0.020 C 
ATOM     21  C   LIG    1       -3.364  -0.622   5.116  0.00  0.00    +0.160 C 
ENDBRANCH  15  16
ENDBRANCH   3  15
TORSDOF 7
ENDMDL
MODEL       30
REMARK  Name = ZINC000105102147
REMARK                            x       y       z     vdW  Elec       q    Type
REMARK                         _______ _______ _______ _____ _____    ______ ____
ROOT
ATOM      1  C   LIG    1       -1.352  -0.769   0.011  0.00  0.00    +0.140 C 
ATOM      2  O   LIG    1       -1.904  -0.379   1.280  0.00  0.00    -0.350 OA
ATOM      3  C   LIG    1       -2.976  -1.301   1.575  0.00  0.00    +0.280 C 
ATOM      4  C   LIG    1       -2.414  -2.668   1.109  0.00  0.00    +0.200 C 
ATOM      5  C   LIG    1       -1.618  -2.277  -0.164  0.00  0.00    +0.130 C 
ENDROOT
BRANCH   4   6
ATOM      6  O   LIG    1       -1.551  -3.230   2.100  0.00  0.00    -0.540 OA
ATOM      7  H   LIG    1       -1.175  -4.086   1.855  0.00  0.00    +0.390 HD
ENDBRANCH   4   6
BRANCH   3   8
ATOM      8  O   LIG    1       -4.150  -0.961   0.835  0.00  0.00    -0.550 OA
ATOM      9  H   LIG    1       -4.503  -0.084   1.038  0.00  0.00    +0.390 HD
ENDBRANCH   3   8
BRANCH   5  10
ATOM     10  O   LIG    1       -2.398  -2.521  -1.336  0.00  0.00    -0.540 OA
ATOM     11  H   LIG    1       -1.948  -2.294  -2.162  0.00  0.00    +0.390 HD
ENDBRANCH   5  10
BRANCH   1  12
ATOM     12  C   LIG    1        0.154  -0.501  -0.005  0.00  0.00    +0.200 C 
BRANCH  12  13
ATOM     13  O   LIG    1        0.388   0.908   0.048  0.00  0.00    -0.560 OA
ATOM     14  H   LIG    1        1.324   1.151   0.041  0.00  0.00    +0.380 HD
ENDBRANCH  12  13
ENDBRANCH   1  12
BRANCH   3  15
ATOM     15  C   LIG    1       -3.273  -1.319   3.075  0.00  0.00    +0.210 C 
BRANCH  15  16
ATOM     16  N   LIG    1       -3.829  -0.021   3.481  0.00  0.00    -0.540 NA
ATOM     17  C   LIG    1       -3.117   1.084   2.826  0.00  0.00    +0.180 C 
ATOM     18  C   LIG    1       -3.813   2.406   3.155  0.00  0.00    +0.020 C 
ATOM     19  C   LIG    1       -3.822   2.609   4.673  0.00  0.00    +0.000 C 
ATOM     20  C   LIG    1       -4.527   1.421   5.334  0.00  0.00    +0.020 C 
ATOM     21  C   LIG    1       -3.810   0.126   4.941  0.00  0.00    +0.160 C 
ENDBRANCH  15  16
ENDBRANCH   3  15
TORSDOF 7
ENDMDL
MODEL       31
REMARK  Name = ZINC000239402717
REMARK                            x       y       z     vdW  Elec       q    Type
REMARK                         _______ _______ _______ _____ _____    ______ ____
ROOT
ATOM      1  C   LIG    1       -2.851  -2.587  -0.110  0.00  0.00    +0.150 C 
ENDROOT
BRANCH   1   2
ATOM      2  O   LIG    1       -3.483  -2.224   1.119  0.00  0.00    -0.510 OA
ATOM      3  H   LIG    1       -3.044  -2.575   1.906  0.00  0.00    +0.380 HD
ENDBRANCH   1   2
BRANCH   1   4
ATOM      4  C   LIG    1       -1.416  -2.058  -0.121  0.00  0.00    +0.160 C 
BRANCH   4   5
ATOM      5  O   LIG    1       -0.783  -2.420  -1.350  0.00  0.00    -0.530 OA
ATOM      6  H   LIG    1       -1.223  -2.070  -2.137  0.00  0.00    +0.370 HD
ENDBRANCH   4   5
BRANCH   4   7
ATOM      7  C   LIG    1       -1.433  -0.534   0.013  0.00  0.00    +0.180 C 
BRANCH   7   8
ATOM      8  O   LIG    1       -2.066  -0.171   1.242  0.00  0.00    -0.530 OA
ATOM      9  H   LIG    1       -1.626  -0.521   2.029  0.00  0.00    +0.370 HD
ENDBRANCH   7   8
BRANCH   7  10
ATOM     10  C   LIG    1        0.002  -0.004   0.002  0.00  0.00    +0.150 C 
BRANCH  10  11
ATOM     11  O   LIG    1       -0.017   1.425   0.010  0.00  0.00    -0.570 OA
ATOM     12  H   LIG    1        0.861   1.830   0.004  0.00  0.00    +0.380 HD
ENDBRANCH  10  11
ENDBRANCH   7  10
ENDBRANCH   4   7
ENDBRANCH   1   4
BRANCH   1  13
ATOM     13  C   LIG    1       -2.833  -4.111  -0.244  0.00  0.00    +0.230 C 
BRANCH  13  14
ATOM     14  C   LIG    1       -4.269  -4.641  -0.234  0.00  0.00    +0.150 C 
ATOM     15  N   LIG    1       -4.286  -6.129  -0.294  0.00  0.00    -0.670 NA
ATOM     16  H   LIG    1       -4.085  -6.456  -1.227  0.00  0.00    +0.350 HD
ATOM     17  C   LIG    1       -5.606  -6.606   0.160  0.00  0.00    +0.190 C 
ATOM     18  C   LIG    1       -5.973  -5.908   1.490  0.00  0.00    +0.100 C 
ATOM     19  S   LIG    1       -5.078  -4.305   1.381  0.00  0.00    -0.200 S 
ENDBRANCH  13  14
BRANCH  13  20
ATOM     20  O   LIG    1       -2.201  -4.474  -1.474  0.00  0.00    -0.530 OA
ATOM     21  H   LIG    1       -2.641  -4.123  -2.260  0.00  0.00    +0.370 HD
ENDBRANCH  13  20
ENDBRANCH   1  13
TORSDOF 10
ENDMDL
MODEL       32
REMARK  Name = ZINC000101150289
REMARK                            x       y       z     vdW  Elec       q    Type
REMARK                         _______ _______ _______ _____ _____    ______ ____
ROOT
ATOM      1  C   LIG    1       -2.851  -2.587  -0.110  0.00  0.00    +0.170 C 
ENDROOT
BRANCH   1   2
ATOM      2  O   LIG    1       -3.483  -2.224   1.119  0.00  0.00    -0.530 OA
ATOM      3  H   LIG    1       -3.044  -2.575   1.906  0.00  0.00    +0.370 HD
ENDBRANCH   1   2
BRANCH   1   4
ATOM      4  C   LIG    1       -1.416  -2.058  -0.121  0.00  0.00    +0.160 C 
BRANCH   4   5
ATOM      5  O   LIG    1       -0.783  -2.420  -1.350  0.00  0.00    -0.530 OA
ATOM      6  H   LIG    1       -1.223  -2.070  -2.137  0.00  0.00    +0.380 HD
ENDBRANCH   4   5
BRANCH   4   7
ATOM      7  C   LIG    1       -1.433  -0.534   0.013  0.00  0.00    +0.180 C 
BRANCH   7   8
ATOM      8  O   LIG    1       -2.066  -0.171   1.242  0.00  0.00    -0.530 OA
ATOM      9  H   LIG    1       -1.626  -0.521   2.029  0.00  0.00    +0.370 HD
ENDBRANCH   7   8
BRANCH   7  10
ATOM     10  C   LIG    1        0.002  -0.004   0.002  0.00  0.00    +0.160 C 
BRANCH  10  11
ATOM     11  O   LIG    1       -0.017   1.425   0.010  0.00  0.00    -0.570 OA
ATOM     12  H   LIG    1        0.861   1.830   0.004  0.00  0.00    +0.380 HD
ENDBRANCH  10  11
ENDBRANCH   7  10
ENDBRANCH   4   7
ENDBRANCH   1   4
BRANCH   1  13
ATOM     13  C   LIG    1       -2.833  -4.111  -0.244  0.00  0.00    +0.210 C 
BRANCH  13  14
ATOM     14  C   LIG    1       -4.269  -4.641  -0.234  0.00  0.00    +0.240 C 
ATOM     15  N   LIG    1       -4.274  -6.121  -0.282  0.00  0.00    -0.670 NA
ATOM     16  H   LIG    1       -3.425  -6.472  -0.700  0.00  0.00    +0.360 HD
ATOM     17  C   LIG    1       -5.462  -6.620  -1.001  0.00  0.00    +0.240 C 
ATOM     18  C   LIG    1       -5.567  -5.823  -2.331  0.00  0.00    +0.100 C 
ATOM     19  S   LIG    1       -5.153  -4.124  -1.754  0.00  0.00    -0.330 S 
ENDBRANCH  13  14
BRANCH  13  20
ATOM     20  O   LIG    1       -2.201  -4.474  -1.474  0.00  0.00    -0.530 OA
ATOM     21  H   LIG    1       -2.641  -4.123  -2.260  0.00  0.00    +0.380 HD
ENDBRANCH  13  20
ENDBRANCH   1  13
TORSDOF 10
ENDMDL
MODEL       33
REMARK  Name = ZINC000239402716
REMARK                            x       y       z     vdW  Elec       q    Type
REMARK                         _______ _______ _______ _____ _____    ______ ____
ROOT
ATOM      1  C   LIG    1       -2.851  -2.587  -0.110  0.00  0.00    +0.160 C 
ENDROOT
BRANCH   1   2
ATOM      2  O   LIG    1       -3.483  -2.224   1.119  0.00  0.00    -0.530 OA
ATOM      3  H   LIG    1       -3.044  -2.575   1.906  0.00  0.00    +0.370 HD
ENDBRANCH   1   2
BRANCH   1   4
ATOM      4  C   LIG    1       -1.416  -2.058  -0.121  0.00  0.00    +0.170 C 
BRANCH   4   5
ATOM      5  O   LIG    1       -0.783  -2.420  -1.350  0.00  0.00    -0.540 OA
ATOM      6  H   LIG    1       -1.223  -2.070  -2.137  0.00  0.00    +0.380 HD
ENDBRANCH   4   5
BRANCH   4   7
ATOM      7  C   LIG    1       -1.433  -0.534   0.013  0.00  0.00    +0.180 C 
BRANCH   7   8
ATOM      8  O   LIG    1       -2.066  -0.171   1.242  0.00  0.00    -0.530 OA
ATOM      9  H   LIG    1       -1.626  -0.521   2.029  0.00  0.00    +0.370 HD
ENDBRANCH   7   8
BRANCH   7  10
ATOM     10  C   LIG    1        0.002  -0.004   0.002  0.00  0.00    +0.160 C 
BRANCH  10  11
ATOM     11  O   LIG    1       -0.017   1.425   0.010  0.00  0.00    -0.570 OA
ATOM     12  H   LIG    1        0.861   1.830   0.004  0.00  0.00    +0.380 HD
ENDBRANCH  10  11
ENDBRANCH   7  10
ENDBRANCH   4   7
ENDBRANCH   1   4
BRANCH   1  13
ATOM     13  C   LIG    1       -2.833  -4.111  -0.244  0.00  0.00    +0.210 C 
BRANCH  13  14
ATOM     14  C   LIG    1       -4.258  -4.652  -0.109  0.00  0.00    +0.230 C 
ATOM     15  N   LIG    1       -4.256  -6.132  -0.155  0.00  0.00    -0.660 NA
ATOM     16  H   LIG    1       -3.444  -6.477  -0.645  0.00  0.00    +0.350 HD
ATOM     17  C   LIG    1       -5.498  -6.641  -0.768  0.00  0.00    +0.240 C 
ATOM     18  C   LIG    1       -5.725  -5.846  -2.084  0.00  0.00    +0.100 C 
ATOM     19  S   LIG    1       -5.275  -4.144  -1.547  0.00  0.00    -0.320 S 
ENDBRANCH  13  14
BRANCH  13  20
ATOM     20  O   LIG    1       -2.012  -4.670   0.783  0.00  0.00    -0.540 OA
ATOM     21  H   LIG    1       -2.310  -4.466   1.679  0.00  0.00    +0.370 HD
ENDBRANCH  13  20
ENDBRANCH   1  13
TORSDOF 10
ENDMDL
MODEL       34
REMARK  Name = ZINC000063607772
REMARK                            x       y       z     vdW  Elec       q    Type
REMARK                         _______ _______ _______ _____ _____    ______ ____
ROOT
ATOM      1  C   LIG    1       -2.851  -2.587  -0.110  0.00  0.00    +0.170 C 
ENDROOT
BRANCH   1   2
ATOM      2  O   LIG    1       -3.607  -1.934  -1.132  0.00  0.00    -0.530 OA
ATOM      3  H   LIG    1       -3.261  -2.068  -2.024  0.00  0.00    +0.370 HD
ENDBRANCH   1   2
BRANCH   1   4
ATOM      4  C   LIG    1       -1.416  -2.058  -0.121  0.00  0.00    +0.170 C 
BRANCH   4   5
ATOM      5  O   LIG    1       -0.783  -2.420  -1.350  0.00  0.00    -0.540 OA
ATOM      6  H   LIG    1       -1.223  -2.070  -2.137  0.00  0.00    +0.370 HD
ENDBRANCH   4   5
BRANCH   4   7
ATOM      7  C   LIG    1       -1.433  -0.534   0.013  0.00  0.00    +0.190 C 
BRANCH   7   8
ATOM      8  O   LIG    1       -2.066  -0.171   1.242  0.00  0.00    -0.540 OA
ATOM      9  H   LIG    1       -1.626  -0.521   2.029  0.00  0.00    +0.370 HD
ENDBRANCH   7   8
BRANCH   7  10
ATOM     10  C   LIG    1        0.002  -0.004   0.002  0.00  0.00    +0.150 C 
BRANCH  10  11
ATOM     11  O   LIG    1       -0.017   1.425   0.010  0.00  0.00    -0.570 OA
ATOM     12  H   LIG    1        0.861   1.830   0.004  0.00  0.00    +0.380 HD
ENDBRANCH  10  11
ENDBRANCH   7  10
ENDBRANCH   4   7
ENDBRANCH   1   4
BRANCH   1  13
ATOM     13  C   LIG    1       -2.840  -4.095  -0.369  0.00  0.00    +0.200 C 
BRANCH  13  14
ATOM     14  C   LIG    1       -4.276  -4.625  -0.358  0.00  0.00    +0.210 C 
ATOM     15  N   LIG    1       -4.285  -6.096  -0.527  0.00  0.00    -0.660 NA
ATOM     16  H   LIG    1       -3.450  -6.411  -0.998  0.00  0.00    +0.350 HD
ATOM     17  C   LIG    1       -5.495  -6.535  -1.248  0.00  0.00    +0.240 C 
ATOM     18  C   LIG    1       -5.639  -5.632  -2.505  0.00  0.00    +0.070 C 
ATOM     19  S   LIG    1       -5.204  -3.986  -1.804  0.00  0.00    -0.270 S 
ENDBRANCH  13  14
BRANCH  13  20
ATOM     20  O   LIG    1       -2.084  -4.748   0.652  0.00  0.00    -0.540 OA
ATOM     21  H   LIG    1       -2.431  -4.614   1.545  0.00  0.00    +0.380 HD
ENDBRANCH  13  20
ENDBRANCH   1  13
TORSDOF 10
ENDMDL
MODEL       35
REMARK  Name = ZINC000063607774
REMARK                            x       y       z     vdW  Elec       q    Type
REMARK                         _______ _______ _______ _____ _____    ______ ____
ROOT
ATOM      1  C   LIG    1       -2.851  -2.587  -0.110  0.00  0.00    +0.170 C 
ENDROOT
BRANCH   1   2
ATOM      2  O   LIG    1       -3.607  -1.934  -1.132  0.00  0.00    -0.540 OA
ATOM      3  H   LIG    1       -3.261  -2.068  -2.024  0.00  0.00    +0.370 HD
ENDBRANCH   1   2
BRANCH   1   4
ATOM      4  C   LIG    1       -1.416  -2.058  -0.121  0.00  0.00    +0.170 C 
BRANCH   4   5
ATOM      5  O   LIG    1       -0.783  -2.420  -1.350  0.00  0.00    -0.540 OA
ATOM      6  H   LIG    1       -1.223  -2.070  -2.137  0.00  0.00    +0.370 HD
ENDBRANCH   4   5
BRANCH   4   7
ATOM      7  C   LIG    1       -1.433  -0.534   0.013  0.00  0.00    +0.190 C 
BRANCH   7   8
ATOM      8  O   LIG    1       -2.066  -0.171   1.242  0.00  0.00    -0.540 OA
ATOM      9  H   LIG    1       -1.626  -0.521   2.029  0.00  0.00    +0.370 HD
ENDBRANCH   7   8
BRANCH   7  10
ATOM     10  C   LIG    1        0.002  -0.004   0.002  0.00  0.00    +0.150 C 
BRANCH  10  11
ATOM     11  O   LIG    1       -0.017   1.425   0.010  0.00  0.00    -0.570 OA
ATOM     12  H   LIG    1        0.861   1.830   0.004  0.00  0.00    +0.380 HD
ENDBRANCH  10  11
ENDBRANCH   7  10
ENDBRANCH   4   7
ENDBRANCH   1   4
BRANCH   1  13
ATOM     13  C   LIG    1       -2.840  -4.095  -0.369  0.00  0.00    +0.220 C 
BRANCH  13  14
ATOM     14  C   LIG    1       -4.276  -4.625  -0.358  0.00  0.00    +0.180 C 
ATOM     15  N   LIG    1       -4.297  -6.103  -0.539  0.00  0.00    -0.660 NA
ATOM     16  H   LIG    1       -4.125  -6.352  -1.502  0.00  0.00    +0.350 HD
ATOM     17  C   LIG    1       -5.605  -6.617  -0.087  0.00  0.00    +0.190 C 
ATOM     18  C   LIG    1       -5.929  -6.029   1.306  0.00  0.00    +0.130 C 
ATOM     19  S   LIG    1       -5.035  -4.423   1.302  0.00  0.00    -0.260 S 
ENDBRANCH  13  14
BRANCH  13  20
ATOM     20  O   LIG    1       -2.084  -4.748   0.652  0.00  0.00    -0.530 OA
ATOM     21  H   LIG    1       -2.431  -4.614   1.545  0.00  0.00    +0.380 HD
ENDBRANCH  13  20
ENDBRANCH   1  13
TORSDOF 10
ENDMDL
MODEL       36
REMARK  Name = ZINC000239402718
REMARK                            x       y       z     vdW  Elec       q    Type
REMARK                         _______ _______ _______ _____ _____    ______ ____
ROOT
ATOM      1  C   LIG    1       -2.851  -2.587  -0.110  0.00  0.00    +0.160 C 
ENDROOT
BRANCH   1   2
ATOM      2  O   LIG    1       -3.483  -2.224   1.119  0.00  0.00    -0.510 OA
ATOM      3  H   LIG    1       -3.044  -2.575   1.906  0.00  0.00    +0.370 HD
ENDBRANCH   1   2
BRANCH   1   4
ATOM      4  C   LIG    1       -1.416  -2.058  -0.121  0.00  0.00    +0.170 C 
BRANCH   4   5
ATOM      5  O   LIG    1       -0.783  -2.420  -1.350  0.00  0.00    -0.540 OA
ATOM      6  H   LIG    1       -1.223  -2.070  -2.137  0.00  0.00    +0.380 HD
ENDBRANCH   4   5
BRANCH   4   7
ATOM      7  C   LIG    1       -1.433  -0.534   0.013  0.00  0.00    +0.180 C 
BRANCH   7   8
ATOM      8  O   LIG    1       -2.066  -0.171   1.242  0.00  0.00    -0.530 OA
ATOM      9  H   LIG    1       -1.626  -0.521   2.029  0.00  0.00    +0.370 HD
ENDBRANCH   7   8
BRANCH   7  10
ATOM     10  C   LIG    1        0.002  -0.004   0.002  0.00  0.00    +0.150 C 
BRANCH  10  11
ATOM     11  O   LIG    1       -0.017   1.425   0.010  0.00  0.00    -0.570 OA
ATOM     12  H   LIG    1        0.861   1.830   0.004  0.00  0.00    +0.380 HD
ENDBRANCH  10  11
ENDBRANCH   7  10
ENDBRANCH   4   7
ENDBRANCH   1   4
BRANCH   1  13
ATOM     13  C   LIG    1       -2.833  -4.111  -0.244  0.00  0.00    +0.230 C 
BRANCH  13  14
ATOM     14  C   LIG    1       -4.258  -4.652  -0.109  0.00  0.00    +0.160 C 
ATOM     15  N   LIG    1       -4.269  -6.140  -0.166  0.00  0.00    -0.660 NA
ATOM     16  H   LIG    1       -4.147  -6.466  -1.113  0.00  0.00    +0.350 HD
ATOM     17  C   LIG    1       -5.542  -6.627   0.401  0.00  0.00    +0.190 C 
ATOM     18  C   LIG    1       -5.796  -5.929   1.757  0.00  0.00    +0.100 C 
ATOM     19  S   LIG    1       -4.927  -4.320   1.569  0.00  0.00    -0.210 S 
ENDBRANCH  13  14
BRANCH  13  20
ATOM     20  O   LIG    1       -2.012  -4.670   0.783  0.00  0.00    -0.530 OA
ATOM     21  H   LIG    1       -2.310  -4.466   1.679  0.00  0.00    +0.370 HD
ENDBRANCH  13  20
ENDBRANCH   1  13
TORSDOF 10
ENDMDL
MODEL       37
REMARK  Name = ZINC000000287653
REMARK                            x       y       z     vdW  Elec       q    Type
REMARK                         _______ _______ _______ _____ _____    ______ ____
ROOT
ATOM      1  N   LIG    1        0.688  -0.476  -1.203  0.00  0.00    -0.490 N 
ATOM      2  C   LIG    1        0.102  -0.746  -2.429  0.00  0.00    +0.520 A 
ATOM      3  N   LIG    1        1.103  -1.167  -3.290  0.00  0.00    -0.640 N 
ATOM      4  H   LIG    1        0.982  -1.423  -4.218  0.00  0.00    +0.430 HD
ATOM      5  C   LIG    1        2.295  -1.160  -2.611  0.00  0.00    +0.350 A 
ATOM      6  N   LIG    1        3.579  -1.484  -2.990  0.00  0.00    -0.520 N 
ATOM      7  C   LIG    1        3.843  -1.941  -4.357  0.00  0.00    +0.340 C 
ATOM      8  C   LIG    1        4.591  -1.391  -2.108  0.00  0.00    +0.710 A 
ATOM      9  O   LIG    1        5.718  -1.685  -2.459  0.00  0.00    -0.530 OA
ATOM     10  N   LIG    1        4.380  -0.974  -0.846  0.00  0.00    -0.550 N 
ATOM     11  C   LIG    1        5.507  -0.881   0.085  0.00  0.00    +0.360 C 
ATOM     12  C   LIG    1        3.141  -0.643  -0.432  0.00  0.00    +0.580 A 
ATOM     13  O   LIG    1        2.955  -0.267   0.713  0.00  0.00    -0.500 OA
ATOM     14  N   LIG    1       -1.161  -0.625  -2.721  0.00  0.00    -0.330 NA
ATOM     15  C   LIG    1        2.063  -0.735  -1.333  0.00  0.00    -0.080 A 
ENDROOT
BRANCH  14  16
ATOM     16  N   LIG    1       -1.615  -0.935  -4.009  0.00  0.00    -0.790 N 
ATOM     17  H   LIG    1       -0.989  -1.239  -4.684  0.00  0.00    +0.360 HD
ATOM     18  H   LIG    1       -2.556  -0.845  -4.226  0.00  0.00    +0.420 HD
ENDBRANCH  14  16
BRANCH   1  20
ATOM     19  C   LIG    1       -0.019   1.526   0.010  0.00  0.00    +0.020 C 
ATOM     20  C   LIG    1        0.002  -0.004   0.002  0.00  0.00    +0.330 C 
ENDBRANCH   1  20
TORSDOF 2
ENDMDL
MODEL       38
REMARK  Name = ZINC000016382889
REMARK                            x       y       z     vdW  Elec       q    Type
REMARK                         _______ _______ _______ _____ _____    ______ ____
ROOT
ATOM      1  N   LIG    1       -1.140   1.843   0.018  0.00  0.00    -0.520 NA
ATOM      2  C   LIG    1       -2.292   1.161  -0.082  0.00  0.00    +0.700 C 
ATOM      3  N   LIG    1       -2.357  -0.186  -0.090  0.00  0.00    -0.720 N 
ATOM      4  H   LIG    1       -1.621  -0.795   0.077  0.00  0.00    +0.440 HD
ATOM      5  C   LIG    1       -3.746  -0.564  -0.399  0.00  0.00    +0.460 C 
ATOM      6  N   LIG    1       -4.140  -1.764   0.306  0.00  0.00    -0.570 NA
ATOM      7  C   LIG    1       -4.884  -1.725   1.376  0.00  0.00    +0.430 A 
ATOM      8  N   LIG    1       -5.354  -2.704   2.184  0.00  0.00    -0.540 N 
ATOM      9  H   LIG    1       -5.219  -3.659   2.075  0.00  0.00    +0.480 HD
ATOM     10  O   LIG    1       -6.084  -2.065   3.222  0.00  0.00    +0.050 OA
ATOM     11  N   LIG    1       -6.058  -0.667   2.984  0.00  0.00    -0.300 NA
ATOM     12  C   LIG    1       -5.374  -0.431   1.922  0.00  0.00    +0.320 A 
ATOM     13  N   LIG    1       -5.069   0.759   1.274  0.00  0.00    -0.690 N 
ATOM     14  H   LIG    1       -5.211   1.611   1.715  0.00  0.00    +0.430 HD
ATOM     15  C   LIG    1       -4.534   0.701  -0.071  0.00  0.00    +0.490 C 
ATOM     16  N   LIG    1       -3.498   1.754  -0.178  0.00  0.00    -0.680 N 
ATOM     17  H   LIG    1       -3.658   2.701  -0.311  0.00  0.00    +0.450 HD
ENDROOT
BRANCH   1  19
ATOM     18  O   LIG    1        0.512   0.932  -1.058  0.00  0.00    -0.220 OA
ATOM     19  N   LIG    1       -0.014   1.214   0.004  0.00  0.00    +0.220 N 
ATOM     20  O   LIG    1        0.525   0.907   1.052  0.00  0.00    -0.220 OA
ENDBRANCH   1  19
TORSDOF 1
ENDMDL
MODEL       39
REMARK  Name = ZINC000218946207
REMARK                            x       y       z     vdW  Elec       q    Type
REMARK                         _______ _______ _______ _____ _____    ______ ____
ROOT
ATOM      1  O   LIG    1        0.002  -0.004   0.002  0.00  0.00    -0.520 OA
ATOM      2  C   LIG    1       -0.014   1.211   0.009  0.00  0.00    +0.610 C 
ATOM      3  N   LIG    1        1.143   1.901   0.001  0.00  0.00    -0.690 N 
ATOM      4  H   LIG    1        1.130   2.871   0.007  0.00  0.00    +0.420 HD
ENDROOT
BRANCH   2   5
ATOM      5  C   LIG    1       -1.304   1.933   0.019  0.00  0.00    +0.170 A 
ATOM      6  N   LIG    1       -1.470   3.244   0.021  0.00  0.00    -0.470 NA
ATOM      7  C   LIG    1       -2.779   3.477   0.031  0.00  0.00    +0.400 A 
ATOM      8  N   LIG    1       -3.405   2.327   0.035  0.00  0.00    -0.290 NA
ATOM      9  N   LIG    1       -2.536   1.376   0.022  0.00  0.00    -0.360 N 
ATOM     10  H   LIG    1       -2.731   0.426   0.021  0.00  0.00    +0.460 HD
ENDBRANCH   2   5
BRANCH   3  11
ATOM     11  C   LIG    1        2.422   1.186  -0.015  0.00  0.00    +0.230 C 
ATOM     12  C   LIG    1        2.822   0.821   1.417  0.00  0.00    +0.220 C 
ATOM     13  O   LIG    1        4.097   0.175   1.404  0.00  0.00    -0.370 OA
ATOM     14  C   LIG    1        5.156   0.984   0.887  0.00  0.00    +0.220 C 
ATOM     15  C   LIG    1        4.849   1.355  -0.566  0.00  0.00    -0.010 C 
ATOM     16  C   LIG    1        3.502   2.082  -0.627  0.00  0.00    +0.170 C 
BRANCH  16  17
ATOM     17  O   LIG    1        3.175   2.369  -1.989  0.00  0.00    -0.560 OA
ATOM     18  H   LIG    1        3.822   2.929  -2.439  0.00  0.00    +0.380 HD
ENDBRANCH  16  17
ENDBRANCH   3  11
TORSDOF 3
ENDMDL
MODEL       40
REMARK  Name = ZINC000218946207
REMARK                            x       y       z     vdW  Elec       q    Type
REMARK                         _______ _______ _______ _____ _____    ______ ____
ROOT
ATOM      1  O   LIG    1        0.002  -0.004   0.002  0.00  0.00    -0.500 OA
ATOM      2  C   LIG    1       -0.014   1.211   0.009  0.00  0.00    +0.620 C 
ATOM      3  N   LIG    1        1.143   1.901   0.001  0.00  0.00    -0.700 N 
ATOM      4  H   LIG    1        1.130   2.871   0.007  0.00  0.00    +0.410 HD
ENDROOT
BRANCH   2   5
ATOM      5  C   LIG    1       -1.305   1.933   0.019  0.00  0.00    +0.150 A 
ATOM      6  N   LIG    1       -1.461   3.239   0.021  0.00  0.00    -0.280 NA
ATOM      7  N   LIG    1       -2.722   3.504   0.030  0.00  0.00    -0.400 N 
ATOM      8  H   LIG    1       -3.115   4.391   0.034  0.00  0.00    +0.450 HD
ATOM      9  C   LIG    1       -3.403   2.343   0.035  0.00  0.00    +0.430 A 
ATOM     10  N   LIG    1       -2.527   1.370   0.021  0.00  0.00    -0.460 NA
ENDBRANCH   2   5
BRANCH   3  11
ATOM     11  C   LIG    1        2.422   1.186  -0.015  0.00  0.00    +0.230 C 
ATOM     12  C   LIG    1        2.822   0.821   1.417  0.00  0.00    +0.220 C 
ATOM     13  O   LIG    1        4.097   0.175   1.404  0.00  0.00    -0.370 OA
ATOM     14  C   LIG    1        5.156   0.984   0.887  0.00  0.00    +0.220 C 
ATOM     15  C   LIG    1        4.849   1.355  -0.566  0.00  0.00    -0.020 C 
ATOM     16  C   LIG    1        3.502   2.082  -0.627  0.00  0.00    +0.160 C 
BRANCH  16  17
ATOM     17  O   LIG    1        3.175   2.369  -1.989  0.00  0.00    -0.560 OA
ATOM     18  H   LIG    1        3.822   2.929  -2.439  0.00  0.00    +0.380 HD
ENDBRANCH  16  17
ENDBRANCH   3  11
TORSDOF 3
ENDMDL
MODEL       41
REMARK  Name = ZINC000001719118
REMARK                            x       y       z     vdW  Elec       q    Type
REMARK                         _______ _______ _______ _____ _____    ______ ____
ROOT
ATOM      1  C   LIG    1       -2.001  -0.759  -0.356  0.00  0.00    +0.130 C 
ATOM      2  O   LIG    1       -2.324  -0.403   1.006  0.00  0.00    -0.350 OA
ATOM      3  C   LIG    1       -3.443  -1.215   1.397  0.00  0.00    +0.280 C 
ATOM      4  C   LIG    1       -3.394  -2.502   0.552  0.00  0.00    +0.210 C 
ATOM      5  C   LIG    1       -2.174  -2.299  -0.382  0.00  0.00    +0.130 C 
ENDROOT
BRANCH   4   6
ATOM      6  O   LIG    1       -3.203  -3.644   1.390  0.00  0.00    -0.540 OA
ATOM      7  H   LIG    1       -3.164  -4.482   0.910  0.00  0.00    +0.390 HD
ENDBRANCH   4   6
BRANCH   3   8
ATOM      8  O   LIG    1       -4.663  -0.514   1.145  0.00  0.00    -0.560 OA
ATOM      9  H   LIG    1       -4.752   0.312   1.639  0.00  0.00    +0.400 HD
ENDBRANCH   3   8
BRANCH   5  10
ATOM     10  O   LIG    1       -1.015  -2.948   0.145  0.00  0.00    -0.540 OA
ATOM     11  H   LIG    1       -0.225  -2.849  -0.405  0.00  0.00    +0.380 HD
ENDBRANCH   5  10
BRANCH   1  12
ATOM     12  C   LIG    1       -0.558  -0.373  -0.686  0.00  0.00    +0.200 C 
BRANCH  12  13
ATOM     13  O   LIG    1       -0.441   1.051  -0.720  0.00  0.00    -0.560 OA
ATOM     14  H   LIG    1        0.449   1.368  -0.924  0.00  0.00    +0.380 HD
ENDBRANCH  12  13
ENDBRANCH   1  12
BRANCH   3  15
ATOM     15  C   LIG    1       -3.340  -1.560   2.884  0.00  0.00    +0.210 C 
BRANCH  15  16
ATOM     16  N   LIG    1       -3.542  -0.345   3.685  0.00  0.00    -0.540 NA
ATOM     17  C   LIG    1       -2.652   0.733   3.238  0.00  0.00    +0.170 C 
ATOM     18  C   LIG    1       -2.989   2.021   3.993  0.00  0.00    +0.020 C 
ATOM     19  C   LIG    1       -2.821   1.785   5.496  0.00  0.00    +0.000 C 
ATOM     20  C   LIG    1       -3.723   0.625   5.927  0.00  0.00    +0.020 C 
ATOM     21  C   LIG    1       -3.364  -0.622   5.116  0.00  0.00    +0.160 C 
ENDBRANCH  15  16
ENDBRANCH   3  15
TORSDOF 7
ENDMDL
MODEL       42
REMARK  Name = ZINC000231659812
REMARK                            x       y       z     vdW  Elec       q    Type
REMARK                         _______ _______ _______ _____ _____    ______ ____
ROOT
ATOM      1  C   LIG    1       -1.312  -2.034  -0.243  0.00  0.00    +0.520 C 
ATOM      2  N   LIG    1       -2.453  -2.750  -0.279  0.00  0.00    -0.610 N 
ATOM      3  C   LIG    1       -3.753  -2.097  -0.077  0.00  0.00    +0.270 C 
ATOM      4  C   LIG    1       -4.669  -2.447  -1.254  0.00  0.00    +0.030 C 
ATOM      5  C   LIG    1       -4.745  -3.968  -1.402  0.00  0.00    +0.070 C 
ATOM      6  C   LIG    1       -3.349  -4.525  -1.693  0.00  0.00    -0.470 C 
ATOM      7  C   LIG    1       -2.420  -4.198  -0.526  0.00  0.00    +0.330 C 
ATOM      8  O   LIG    1       -0.245  -2.583  -0.416  0.00  0.00    -0.520 OA
ENDROOT
BRANCH   6   9
ATOM      9  S   LIG    1       -3.448  -6.323  -1.907  0.00  0.00    +2.620 S 
ATOM     10  O   LIG    1       -4.047  -6.645  -3.155  0.00  0.00    -0.950 OA
ATOM     11  O   LIG    1       -3.879  -6.946  -0.705  0.00  0.00    -0.950 OA
BRANCH   9  12
ATOM     12  N   LIG    1       -1.873  -6.806  -2.075  0.00  0.00    -1.250 NA
ATOM     13  H   LIG    1       -1.221  -6.206  -2.470  0.00  0.00    +0.420 HD
ATOM     14  H   LIG    1       -1.602  -7.689  -1.778  0.00  0.00    +0.420 HD
ENDBRANCH   9  12
ENDBRANCH   6   9
BRANCH   1  15
ATOM     15  C   LIG    1       -1.362  -0.549   0.012  0.00  0.00    +0.220 C 
BRANCH  15  17
ATOM     16  C   LIG    1       -0.018   1.465   0.010  0.00  0.00    +0.200 C 
ATOM     17  N   LIG    1        0.002  -0.004   0.002  0.00  0.00    -0.530 NA
ATOM     18  C   LIG    1        0.786  -0.526   1.129  0.00  0.00    +0.200 C 
ENDBRANCH  15  17
ENDBRANCH   1  15
TORSDOF 4
ENDMDL
MODEL       43
REMARK  Name = ZINC000020428636
REMARK                            x       y       z     vdW  Elec       q    Type
REMARK                         _______ _______ _______ _____ _____    ______ ____
ROOT
ATOM      1  O   LIG    1        0.002  -0.004   0.002  0.00  0.00    -0.530 OA
ATOM      2  C   LIG    1       -0.014   1.211   0.009  0.00  0.00    +0.610 C 
ATOM      3  N   LIG    1        1.143   1.901   0.001  0.00  0.00    -0.700 N 
ATOM      4  H   LIG    1        1.130   2.871   0.007  0.00  0.00    +0.420 HD
ENDROOT
BRANCH   2   5
ATOM      5  C   LIG    1       -1.304   1.933   0.019  0.00  0.00    +0.170 A 
ATOM      6  N   LIG    1       -1.470   3.244   0.021  0.00  0.00    -0.470 NA
ATOM      7  C   LIG    1       -2.779   3.477   0.031  0.00  0.00    +0.400 A 
ATOM      8  N   LIG    1       -3.405   2.327   0.035  0.00  0.00    -0.290 NA
ATOM      9  N   LIG    1       -2.536   1.376   0.022  0.00  0.00    -0.360 N 
ATOM     10  H   LIG    1       -2.731   0.426   0.021  0.00  0.00    +0.460 HD
ENDBRANCH   2   5
BRANCH   3  11
ATOM     11  C   LIG    1        2.422   1.186  -0.015  0.00  0.00    +0.280 C 
BRANCH  11  12
ATOM     12  C   LIG    1        3.571   2.196  -0.020  0.00  0.00    +0.180 C 
BRANCH  12  13
ATOM     13  N   LIG    1        4.853   1.479  -0.036  0.00  0.00    -0.530 NA
ATOM     14  C   LIG    1        4.860   0.390   0.951  0.00  0.00    +0.150 C 
ATOM     15  C   LIG    1        6.188  -0.367   0.859  0.00  0.00    +0.220 C 
ATOM     16  O   LIG    1        7.268   0.550   1.057  0.00  0.00    -0.380 OA
ATOM     17  C   LIG    1        7.292   1.623   0.112  0.00  0.00    +0.220 C 
ATOM     18  C   LIG    1        5.975   2.400   0.196  0.00  0.00    +0.160 C 
ENDBRANCH  12  13
ENDBRANCH  11  12
ENDBRANCH   3  11
TORSDOF 4
ENDMDL
MODEL       44
REMARK  Name = ZINC000020428636
REMARK                            x       y       z     vdW  Elec       q    Type
REMARK                         _______ _______ _______ _____ _____    ______ ____
ROOT
ATOM      1  O   LIG    1        0.002  -0.004   0.002  0.00  0.00    -0.500 OA
ATOM      2  C   LIG    1       -0.014   1.211   0.009  0.00  0.00    +0.620 C 
ATOM      3  N   LIG    1        1.143   1.901   0.001  0.00  0.00    -0.710 N 
ATOM      4  H   LIG    1        1.130   2.871   0.007  0.00  0.00    +0.410 HD
ENDROOT
BRANCH   2   5
ATOM      5  C   LIG    1       -1.305   1.933   0.019  0.00  0.00    +0.150 A 
ATOM      6  N   LIG    1       -1.461   3.239   0.021  0.00  0.00    -0.280 NA
ATOM      7  N   LIG    1       -2.722   3.504   0.030  0.00  0.00    -0.400 N 
ATOM      8  H   LIG    1       -3.115   4.391   0.034  0.00  0.00    +0.450 HD
ATOM      9  C   LIG    1       -3.403   2.343   0.035  0.00  0.00    +0.430 A 
ATOM     10  N   LIG    1       -2.527   1.370   0.021  0.00  0.00    -0.460 NA
ENDBRANCH   2   5
BRANCH   3  11
ATOM     11  C   LIG    1        2.422   1.186  -0.015  0.00  0.00    +0.280 C 
BRANCH  11  12
ATOM     12  C   LIG    1        3.571   2.196  -0.020  0.00  0.00    +0.180 C 
BRANCH  12  13
ATOM     13  N   LIG    1        4.853   1.479  -0.036  0.00  0.00    -0.530 NA
ATOM     14  C   LIG    1        4.860   0.390   0.951  0.00  0.00    +0.160 C 
ATOM     15  C   LIG    1        6.188  -0.367   0.859  0.00  0.00    +0.220 C 
ATOM     16  O   LIG    1        7.268   0.550   1.057  0.00  0.00    -0.390 OA
ATOM     17  C   LIG    1        7.292   1.623   0.112  0.00  0.00    +0.220 C 
ATOM     18  C   LIG    1        5.975   2.400   0.196  0.00  0.00    +0.160 C 
ENDBRANCH  12  13
ENDBRANCH  11  12
ENDBRANCH   3  11
TORSDOF 4
ENDMDL
MODEL       45
REMARK  Name = ZINC000042783863
REMARK                            x       y       z     vdW  Elec       q    Type
REMARK                         _______ _______ _______ _____ _____    ______ ____
ROOT
ATOM      1  C   LIG    1       -1.299   1.931   0.019  0.00  0.00    -0.030 A 
ATOM      2  C   LIG    1       -2.553   1.379   0.027  0.00  0.00    -0.120 A 
ATOM      3  C   LIG    1       -2.991  -0.059   0.036  0.00  0.00    +0.280 C 
ATOM      4  N   LIG    1       -4.409  -0.101   0.438  0.00  0.00    -0.690 NA
ATOM      5  H   LIG    1       -4.769  -1.042   0.395  0.00  0.00    +0.350 HD
ATOM      6  C   LIG    1       -5.228   0.814  -0.367  0.00  0.00    +0.190 C 
ATOM      7  C   LIG    1       -4.944   2.268   0.037  0.00  0.00    +0.150 C 
ATOM      8  C   LIG    1       -3.447   2.461   0.032  0.00  0.00    +0.040 A 
ATOM      9  N   LIG    1       -2.747   3.554   0.030  0.00  0.00    -0.260 NA
ATOM     10  N   LIG    1       -1.485   3.288   0.027  0.00  0.00    -0.390 N 
ATOM     11  H   LIG    1       -0.775   3.950   0.025  0.00  0.00    +0.440 HD
ENDROOT
BRANCH   1  13
ATOM     12  O   LIG    1        0.002  -0.004   0.002  0.00  0.00    -0.520 OA
ATOM     13  C   LIG    1       -0.014   1.212   0.009  0.00  0.00    +0.590 C 
ATOM     14  N   LIG    1        1.143   1.902   0.001  0.00  0.00    -0.720 N 
ATOM     15  H   LIG    1        1.130   2.872   0.007  0.00  0.00    +0.400 HD
BRANCH  14  16
ATOM     16  C   LIG    1        2.422   1.187  -0.015  0.00  0.00    +0.290 C 
BRANCH  16  17
ATOM     17  C   LIG    1        3.571   2.197  -0.020  0.00  0.00    +0.180 C 
BRANCH  17  18
ATOM     18  O   LIG    1        3.565   2.932   1.205  0.00  0.00    -0.570 OA
ATOM     19  H   LIG    1        4.268   3.592   1.271  0.00  0.00    +0.390 HD
ENDBRANCH  17  18
ENDBRANCH  16  17
ENDBRANCH  14  16
ENDBRANCH   1  13
TORSDOF 4
ENDMDL
MODEL       46
REMARK  Name = ZINC000085790376
REMARK                            x       y       z     vdW  Elec       q    Type
REMARK                         _______ _______ _______ _____ _____    ______ ____
ROOT
ATOM      1  N   LIG    1        1.402  -4.080   2.324  0.00  0.00    -0.640 NA
ATOM      2  H   LIG    1        0.448  -4.410   2.328  0.00  0.00    +0.350 HD
ENDROOT
BRANCH   1   3
ATOM      3  C   LIG    1        2.160  -4.648   3.446  0.00  0.00    +0.190 C 
ATOM      4  C   LIG    1        2.590  -6.096   3.133  0.00  0.00    +0.120 C 
ATOM      5  C   LIG    1        1.904  -6.910   4.208  0.00  0.00    +0.530 C 
ATOM      6  N   LIG    1        1.204  -6.091   5.001  0.00  0.00    -0.680 N 
ATOM      7  H   LIG    1        0.686  -6.409   5.758  0.00  0.00    +0.410 HD
ATOM      8  O   LIG    1        1.978  -8.114   4.331  0.00  0.00    -0.480 OA
ATOM      9  C   LIG    1        1.277  -4.793   4.667  0.00  0.00    +0.500 C 
ATOM     10  O   LIG    1        0.723  -3.886   5.248  0.00  0.00    -0.480 OA
ENDBRANCH   1   3
BRANCH   1  11
ATOM     11  C   LIG    1        1.451  -2.612   2.345  0.00  0.00    +0.210 C 
BRANCH  11  17
ATOM     12  C   LIG    1       -0.018   1.465   0.010  0.00  0.00    +0.190 C 
ATOM     13  N   LIG    1        0.002  -0.004   0.002  0.00  0.00    -0.540 NA
ATOM     14  C   LIG    1        0.607  -0.516  -1.236  0.00  0.00    +0.140 C 
ATOM     15  C   LIG    1        0.553  -2.046  -1.230  0.00  0.00    +0.220 C 
ATOM     16  O   LIG    1        1.216  -2.536  -0.061  0.00  0.00    -0.360 OA
ATOM     17  C   LIG    1        0.652  -2.058   1.164  0.00  0.00    +0.170 C 
ATOM     18  C   LIG    1        0.707  -0.528   1.181  0.00  0.00    +0.160 C 
ENDBRANCH  11  17
ENDBRANCH   1  11
TORSDOF 3
ENDMDL
MODEL       47
REMARK  Name = ZINC000085790375
REMARK                            x       y       z     vdW  Elec       q    Type
REMARK                         _______ _______ _______ _____ _____    ______ ____
ROOT
ATOM      1  N   LIG    1        1.568  -4.068   2.238  0.00  0.00    -0.650 NA
ATOM      2  H   LIG    1        0.679  -4.509   2.054  0.00  0.00    +0.360 HD
ENDROOT
BRANCH   1   3
ATOM      3  C   LIG    1        2.201  -4.638   3.434  0.00  0.00    +0.190 C 
ATOM      4  C   LIG    1        2.866  -5.990   3.104  0.00  0.00    +0.110 C 
ATOM      5  C   LIG    1        2.128  -6.973   3.987  0.00  0.00    +0.530 C 
ATOM      6  N   LIG    1        1.204  -6.317   4.699  0.00  0.00    -0.680 N 
ATOM      7  H   LIG    1        0.616  -6.761   5.331  0.00  0.00    +0.410 HD
ATOM      8  O   LIG    1        2.340  -8.166   4.040  0.00  0.00    -0.480 OA
ATOM      9  C   LIG    1        1.158  -4.996   4.470  0.00  0.00    +0.500 C 
ATOM     10  O   LIG    1        0.399  -4.216   5.005  0.00  0.00    -0.470 OA
ENDBRANCH   1   3
BRANCH   1  11
ATOM     11  C   LIG    1        1.417  -2.612   2.365  0.00  0.00    +0.220 C 
BRANCH  11  17
ATOM     12  C   LIG    1       -0.018   1.465   0.010  0.00  0.00    +0.190 C 
ATOM     13  N   LIG    1        0.002  -0.004   0.002  0.00  0.00    -0.540 NA
ATOM     14  C   LIG    1       -1.361  -0.549  -0.075  0.00  0.00    +0.140 C 
ATOM     15  C   LIG    1       -1.291  -2.077  -0.141  0.00  0.00    +0.230 C 
ATOM     16  O   LIG    1       -0.576  -2.566   0.997  0.00  0.00    -0.380 OA
ATOM     17  C   LIG    1        0.756  -2.056   1.102  0.00  0.00    +0.170 C 
ATOM     18  C   LIG    1        0.707  -0.528   1.181  0.00  0.00    +0.150 C 
ENDBRANCH  11  17
ENDBRANCH   1  11
TORSDOF 3
ENDMDL
MODEL       48
REMARK  Name = ZINC000080578655
REMARK                            x       y       z     vdW  Elec       q    Type
REMARK                         _______ _______ _______ _____ _____    ______ ____
ROOT
ATOM      1  O   LIG    1        0.002  -0.004   0.002  0.00  0.00    -0.540 OA
ATOM      2  C   LIG    1       -0.014   1.212   0.009  0.00  0.00    +0.590 C 
ATOM      3  N   LIG    1        1.143   1.901   0.001  0.00  0.00    -0.710 N 
ATOM      4  H   LIG    1        1.130   2.871   0.007  0.00  0.00    +0.410 HD
ENDROOT
BRANCH   2   5
ATOM      5  C   LIG    1       -1.302   1.932   0.019  0.00  0.00    -0.080 A 
ATOM      6  C   LIG    1       -2.485   1.220   0.026  0.00  0.00    +0.370 A 
ATOM      7  N   LIG    1       -3.665   1.874   0.035  0.00  0.00    -0.590 N 
ATOM      8  H   LIG    1       -4.499   1.379   0.040  0.00  0.00    +0.430 HD
ATOM      9  C   LIG    1       -3.674   3.224   0.037  0.00  0.00    +0.480 A 
ATOM     10  C   LIG    1       -2.444   3.929   0.029  0.00  0.00    +0.250 A 
ATOM     11  O   LIG    1       -4.730   3.831   0.046  0.00  0.00    -0.510 OA
ATOM     12  N   LIG    1       -1.314   3.274   0.026  0.00  0.00    -0.380 NA
ENDBRANCH   2   5
BRANCH   3  13
ATOM     13  C   LIG    1        2.422   1.186  -0.015  0.00  0.00    +0.280 C 
BRANCH  13  14
ATOM     14  C   LIG    1        3.571   2.196  -0.020  0.00  0.00    +0.160 C 
BRANCH  14  15
ATOM     15  C   LIG    1        4.886   1.461  -0.037  0.00  0.00    +0.230 A 
ATOM     16  N   LIG    1        5.557   1.079   1.019  0.00  0.00    -0.310 NA
ATOM     17  N   LIG    1        6.714   0.434   0.553  0.00  0.00    -0.480 N 
ATOM     18  H   LIG    1        7.416   0.038   1.093  0.00  0.00    +0.440 HD
ATOM     19  C   LIG    1        6.656   0.474  -0.789  0.00  0.00    +0.500 A 
ATOM     20  N   LIG    1        5.552   1.089  -1.129  0.00  0.00    -0.540 NA
ENDBRANCH  14  15
ENDBRANCH  13  14
ENDBRANCH   3  13
TORSDOF 4
ENDMDL
MODEL       49
REMARK  Name = ZINC000113207091
REMARK                            x       y       z     vdW  Elec       q    Type
REMARK                         _______ _______ _______ _____ _____    ______ ____
ROOT
ATOM      1  N   LIG    1       -2.339  -2.899   0.248  0.00  0.00    -0.650 NA
ATOM      2  H   LIG    1       -2.777  -2.629  -0.620  0.00  0.00    +0.360 HD
ENDROOT
BRANCH   1   6
ATOM      3  C   LIG    1       -0.018   1.461   0.010  0.00  0.00    +0.280 C 
ATOM      4  N   LIG    1        0.002  -0.004   0.002  0.00  0.00    -0.610 N 
ATOM      5  C   LIG    1       -1.276  -0.705   0.004  0.00  0.00    +0.240 C 
ATOM      6  C   LIG    1       -1.093  -2.152   0.463  0.00  0.00    +0.170 C 
ATOM      7  C   LIG    1        0.039  -2.786  -0.354  0.00  0.00    +0.050 C 
ATOM      8  C   LIG    1        1.355  -2.105   0.032  0.00  0.00    +0.080 C 
ATOM      9  C   LIG    1        1.188  -0.613  -0.013  0.00  0.00    +0.520 C 
ATOM     10  O   LIG    1        2.186   0.075  -0.056  0.00  0.00    -0.550 OA
ENDBRANCH   1   6
BRANCH   1  11
ATOM     11  C   LIG    1       -3.259  -2.725   1.380  0.00  0.00    +0.150 C 
ATOM     12  C   LIG    1       -4.713  -2.998   0.944  0.00  0.00    +0.100 C 
ATOM     13  C   LIG    1       -5.126  -4.172   1.804  0.00  0.00    +0.540 C 
ATOM     14  N   LIG    1       -4.104  -4.520   2.595  0.00  0.00    -0.680 N 
ATOM     15  H   LIG    1       -4.156  -5.253   3.228  0.00  0.00    +0.420 HD
ATOM     16  O   LIG    1       -6.211  -4.713   1.780  0.00  0.00    -0.480 OA
ATOM     17  C   LIG    1       -3.001  -3.771   2.442  0.00  0.00    +0.540 C 
ATOM     18  O   LIG    1       -1.965  -3.913   3.055  0.00  0.00    -0.470 OA
ENDBRANCH   1  11
TORSDOF 2
ENDMDL
MODEL       50
REMARK  Name = ZINC000113207088
REMARK                            x       y       z     vdW  Elec       q    Type
REMARK                         _______ _______ _______ _____ _____    ______ ____
ROOT
ATOM      1  N   LIG    1       -2.341  -2.896  -0.254  0.00  0.00    -0.660 NA
ATOM      2  H   LIG    1       -2.233  -3.890  -0.115  0.00  0.00    +0.360 HD
ENDROOT
BRANCH   1   6
ATOM      3  C   LIG    1        0.404   1.213  -0.068  0.00  0.00    +0.280 C 
ATOM      4  N   LIG    1        0.282  -0.247  -0.109  0.00  0.00    -0.610 N 
ATOM      5  C   LIG    1       -1.054  -0.823  -0.028  0.00  0.00    +0.280 C 
ATOM      6  C   LIG    1       -1.050  -2.261  -0.547  0.00  0.00    +0.140 C 
ATOM      7  C   LIG    1        0.077  -3.032   0.151  0.00  0.00    +0.030 C 
ATOM      8  C   LIG    1        1.417  -2.463  -0.320  0.00  0.00    +0.080 C 
ATOM      9  C   LIG    1        1.400  -0.964  -0.223  0.00  0.00    +0.510 C 
ATOM     10  O   LIG    1        2.460  -0.376  -0.242  0.00  0.00    -0.550 OA
ENDBRANCH   1   6
BRANCH   1  11
ATOM     11  C   LIG    1       -3.319  -2.616  -1.314  0.00  0.00    +0.190 C 
ATOM     12  C   LIG    1       -3.251  -3.694  -2.414  0.00  0.00    +0.060 C 
ATOM     13  C   LIG    1       -4.631  -4.314  -2.389  0.00  0.00    +0.530 C 
ATOM     14  N   LIG    1       -5.368  -3.710  -1.449  0.00  0.00    -0.680 N 
ATOM     15  H   LIG    1       -6.288  -3.955  -1.266  0.00  0.00    +0.420 HD
ATOM     16  O   LIG    1       -5.009  -5.215  -3.107  0.00  0.00    -0.480 OA
ATOM     17  C   LIG    1       -4.730  -2.735  -0.782  0.00  0.00    +0.540 C 
ATOM     18  O   LIG    1       -5.209  -2.063   0.106  0.00  0.00    -0.460 OA
ENDBRANCH   1  11
TORSDOF 2
ENDMDL
MODEL       51
REMARK  Name = ZINC000004892522
REMARK                            x       y       z     vdW  Elec       q    Type
REMARK                         _______ _______ _______ _____ _____    ______ ____
ROOT
ATOM      1  C   LIG    1       -1.293  -0.775   0.010  0.00  0.00    -0.010 C 
ATOM      2  C   LIG    1       -2.110  -0.416  -1.234  0.00  0.00    +0.050 C 
ATOM      3  C   LIG    1       -3.395  -1.247  -1.251  0.00  0.00    +0.200 C 
ATOM      4  N   LIG    1       -3.055  -2.676  -1.262  0.00  0.00    -0.500 NA
ATOM      5  C   LIG    1       -2.311  -3.054  -0.054  0.00  0.00    +0.170 C 
ATOM      6  C   LIG    1       -0.994  -2.277  -0.001  0.00  0.00    +0.080 C 
ENDROOT
BRANCH   4   7
ATOM      7  C   LIG    1       -4.260  -3.502  -1.418  0.00  0.00    +0.190 C 
ATOM      8  C   LIG    1       -3.900  -5.001  -1.375  0.00  0.00    +0.100 C 
ATOM      9  C   LIG    1       -4.659  -5.513  -0.170  0.00  0.00    +0.530 C 
ATOM     10  N   LIG    1       -5.336  -4.502   0.387  0.00  0.00    -0.680 N 
ATOM     11  H   LIG    1       -5.891  -4.612   1.175  0.00  0.00    +0.410 HD
ATOM     12  O   LIG    1       -4.653  -6.658   0.229  0.00  0.00    -0.480 OA
ATOM     13  C   LIG    1       -5.187  -3.322  -0.235  0.00  0.00    +0.500 C 
ATOM     14  O   LIG    1       -5.708  -2.280   0.100  0.00  0.00    -0.470 OA
ENDBRANCH   4   7
BRANCH   1  18
ATOM     15  N   LIG    1       -0.016   1.344   0.009  0.00  0.00    -0.860 N 
ATOM     16  H   LIG    1       -0.863   1.817   0.016  0.00  0.00    +0.400 HD
ATOM     17  H   LIG    1        0.817   1.840   0.004  0.00  0.00    +0.400 HD
ATOM     18  C   LIG    1        0.002  -0.004   0.002  0.00  0.00    +0.520 C 
ATOM     19  O   LIG    1        1.060  -0.596  -0.011  0.00  0.00    -0.540 OA
ENDBRANCH   1  18
TORSDOF 2
ENDMDL
MODEL       52
REMARK  Name = ZINC000019866250
REMARK                            x       y       z     vdW  Elec       q    Type
REMARK                         _______ _______ _______ _____ _____    ______ ____
ROOT
ATOM      1  C   LIG    1       -1.262  -0.826   0.041  0.00  0.00    -0.010 C 
ATOM      2  C   LIG    1       -2.122  -0.414  -1.157  0.00  0.00    +0.050 C 
ATOM      3  C   LIG    1       -3.402  -1.252  -1.172  0.00  0.00    +0.200 C 
ATOM      4  N   LIG    1       -3.055  -2.676  -1.262  0.00  0.00    -0.510 NA
ATOM      5  C   LIG    1       -2.270  -3.106  -0.098  0.00  0.00    +0.160 C 
ATOM      6  C   LIG    1       -0.956  -2.323  -0.051  0.00  0.00    +0.070 C 
ENDROOT
BRANCH   4   7
ATOM      7  C   LIG    1       -4.260  -3.502  -1.418  0.00  0.00    +0.190 C 
ATOM      8  C   LIG    1       -5.119  -3.458  -0.138  0.00  0.00    +0.050 C 
ATOM      9  C   LIG    1       -5.144  -4.899   0.323  0.00  0.00    +0.530 C 
ATOM     10  N   LIG    1       -4.432  -5.646  -0.530  0.00  0.00    -0.680 N 
ATOM     11  H   LIG    1       -4.319  -6.603  -0.421  0.00  0.00    +0.420 HD
ATOM     12  O   LIG    1       -5.718  -5.311   1.308  0.00  0.00    -0.480 OA
ATOM     13  C   LIG    1       -3.890  -4.963  -1.551  0.00  0.00    +0.540 C 
ATOM     14  O   LIG    1       -3.212  -5.442  -2.434  0.00  0.00    -0.450 OA
ENDBRANCH   4   7
BRANCH   1  18
ATOM     15  N   LIG    1        0.002   1.300   0.100  0.00  0.00    -0.860 N 
ATOM     16  H   LIG    1       -0.846   1.767   0.157  0.00  0.00    +0.400 HD
ATOM     17  H   LIG    1        0.832   1.802   0.091  0.00  0.00    +0.400 HD
ATOM     18  C   LIG    1        0.027  -0.046   0.028  0.00  0.00    +0.520 C 
ATOM     19  O   LIG    1        1.088  -0.629  -0.048  0.00  0.00    -0.540 OA
ENDBRANCH   1  18
TORSDOF 2
ENDMDL
MODEL       53
REMARK  Name = ZINC000031500052
REMARK                            x       y       z     vdW  Elec       q    Type
REMARK                         _______ _______ _______ _____ _____    ______ ____
ROOT
ATOM      1  C   LIG    1        0.013  -3.707  -3.396  0.00  0.00    +0.280 C 
ENDROOT
BRANCH   1   5
ATOM      2  C   LIG    1       -0.000  -0.730  -1.271  0.00  0.00    +0.110 A 
ATOM      3  N   LIG    1       -0.013  -0.185  -2.472  0.00  0.00    -0.420 NA
ATOM      4  C   LIG    1       -0.011  -1.148  -3.387  0.00  0.00    +0.180 A 
ATOM      5  C   LIG    1        0.004  -2.346  -2.747  0.00  0.00    -0.020 A 
ATOM      6  N   LIG    1        0.017  -2.091  -1.419  0.00  0.00    -0.520 N 
ATOM      7  H   LIG    1        0.029  -2.748  -0.706  0.00  0.00    +0.430 HD
BRANCH   2   9
ATOM      8  C   LIG    1       -0.018   1.503   0.010  0.00  0.00    +0.110 C 
ATOM      9  C   LIG    1        0.002  -0.004   0.002  0.00  0.00    +0.440 C 
ATOM     10  O   LIG    1        0.020  -0.616   1.049  0.00  0.00    -0.460 OA
ENDBRANCH   2   9
ENDBRANCH   1   5
BRANCH   1  11
ATOM     11  O   LIG    1        0.777  -3.654  -4.602  0.00  0.00    -0.530 OA
ATOM     12  H   LIG    1        0.437  -3.028  -5.256  0.00  0.00    +0.380 HD
ENDBRANCH   1  11
BRANCH   1  13
ATOM     13  C   LIG    1       -1.423  -4.126  -3.719  0.00  0.00    +0.160 C 
BRANCH  13  14
ATOM     14  O   LIG    1       -2.045  -3.118  -4.518  0.00  0.00    -0.540 OA
ATOM     15  H   LIG    1       -1.600  -2.953  -5.360  0.00  0.00    +0.380 HD
ENDBRANCH  13  14
BRANCH  13  16
ATOM     16  C   LIG    1       -1.406  -5.449  -4.489  0.00  0.00    +0.200 C 
BRANCH  16  17
ATOM     17  O   LIG    1       -0.783  -6.457  -3.690  0.00  0.00    -0.540 OA
ATOM     18  H   LIG    1       -1.229  -6.622  -2.848  0.00  0.00    +0.370 HD
ENDBRANCH  16  17
BRANCH  16  19
ATOM     19  C   LIG    1       -2.841  -5.868  -4.812  0.00  0.00    +0.160 C 
BRANCH  19  20
ATOM     20  O   LIG    1       -2.822  -7.040  -5.630  0.00  0.00    -0.560 OA
ATOM     21  H   LIG    1       -3.700  -7.363  -5.875  0.00  0.00    +0.380 HD
ENDBRANCH  19  20
ENDBRANCH  16  19
ENDBRANCH  13  16
ENDBRANCH   1  13
TORSDOF 9
ENDMDL
MODEL       54
REMARK  Name = ZINC000002561025
REMARK                            x       y       z     vdW  Elec       q    Type
REMARK                         _______ _______ _______ _____ _____    ______ ____
ROOT
ATOM      1  N   LIG    1        1.508  -3.851   2.445  0.00  0.00    -0.720 N 
ATOM      2  H   LIG    1        1.075  -4.293   1.698  0.00  0.00    +0.420 HD
ATOM      3  C   LIG    1        2.092  -4.583   3.414  0.00  0.00    +0.520 C 
ATOM      4  O   LIG    1        2.634  -4.030   4.348  0.00  0.00    -0.530 OA
ENDROOT
BRANCH   1   5
ATOM      5  C   LIG    1        1.527  -2.388   2.519  0.00  0.00    +0.370 C 
BRANCH   5   6
ATOM      6  C   LIG    1        0.812  -1.815   1.323  0.00  0.00    +0.460 C 
ATOM      7  O   LIG    1        0.335  -2.553   0.493  0.00  0.00    -0.500 OA
BRANCH   6   8
ATOM      8  O   LIG    1        0.704  -0.485   1.178  0.00  0.00    -0.350 OA
BRANCH   8  10
ATOM      9  C   LIG    1       -0.019   1.526   0.010  0.00  0.00    +0.070 C 
ATOM     10  C   LIG    1        0.002  -0.004   0.002  0.00  0.00    +0.200 C 
ENDBRANCH   8  10
ENDBRANCH   6   8
ENDBRANCH   5   6
ENDBRANCH   1   5
BRANCH   3  11
ATOM     11  C   LIG    1        2.073  -6.088   3.338  0.00  0.00    +0.300 C 
BRANCH  11  12
ATOM     12  N   LIG    1        2.768  -6.645   4.501  0.00  0.00    -0.720 N 
ATOM     13  H   LIG    1        3.151  -6.052   5.166  0.00  0.00    +0.410 HD
ATOM     14  C   LIG    1        2.876  -7.980   4.645  0.00  0.00    +0.510 C 
ATOM     15  O   LIG    1        2.397  -8.721   3.813  0.00  0.00    -0.520 OA
BRANCH  14  16
ATOM     16  C   LIG    1        3.592  -8.553   5.842  0.00  0.00    +0.220 C 
BRANCH  16  17
ATOM     17  N   LIG    1        3.573 -10.020   5.767  0.00  0.00    -0.840 NA
ATOM     18  H   LIG    1        2.628 -10.366   5.694  0.00  0.00    +0.350 HD
ATOM     19  H   LIG    1        4.047 -10.429   6.559  0.00  0.00    +0.350 HD
ENDBRANCH  16  17
ENDBRANCH  14  16
ENDBRANCH  11  12
ENDBRANCH   3  11
TORSDOF 8
ENDMDL
MODEL       55
REMARK  Name = ZINC000031990034
REMARK                            x       y       z     vdW  Elec       q    Type
REMARK                         _______ _______ _______ _____ _____    ______ ____
ROOT
ATOM      1  C   LIG    1        0.012  -0.073  -0.123  0.00  0.00    +0.170 C 
ATOM      2  C   LIG    1        0.933  -0.532   1.018  0.00  0.00    -0.300 C 
ATOM      3  S   LIG    1       -0.163  -1.389   2.210  0.00  0.00    +2.390 S 
ATOM      4  C   LIG    1       -1.714  -0.608   1.608  0.00  0.00    -0.290 C 
ATOM      5  O   LIG    1        0.122  -0.940   3.528  0.00  0.00    -0.930 OA
ATOM      6  O   LIG    1       -0.186  -2.781   1.922  0.00  0.00    -0.930 OA
ATOM      7  C   LIG    1       -1.435  -0.520   0.088  0.00  0.00    +0.160 C 
ENDROOT
BRANCH   7   8
ATOM      8  N   LIG    1       -2.344   0.457  -0.525  0.00  0.00    -0.510 NA
ATOM      9  C   LIG    1       -3.728   0.245  -0.075  0.00  0.00    +0.160 C 
ATOM     10  C   LIG    1       -4.629   1.318  -0.690  0.00  0.00    +0.220 C 
ATOM     11  O   LIG    1       -4.511   1.275  -2.114  0.00  0.00    -0.380 OA
ATOM     12  C   LIG    1       -3.177   1.478  -2.588  0.00  0.00    +0.220 C 
ATOM     13  C   LIG    1       -2.260   0.406  -1.992  0.00  0.00    +0.140 C 
ENDBRANCH   7   8
BRANCH   1  14
ATOM     14  N   LIG    1        0.051   1.393  -0.206  0.00  0.00    -0.830 NA
ATOM     15  H   LIG    1       -0.482   1.725  -0.996  0.00  0.00    +0.350 HD
ATOM     16  H   LIG    1        1.002   1.728  -0.244  0.00  0.00    +0.340 HD
ENDBRANCH   1  14
TORSDOF 2
ENDMDL
MODEL       56
REMARK  Name = ZINC000031990029
REMARK                            x       y       z     vdW  Elec       q    Type
REMARK                         _______ _______ _______ _____ _____    ______ ____
ROOT
ATOM      1  C   LIG    1       -0.066   0.156  -0.089  0.00  0.00    +0.180 C 
ATOM      2  C   LIG    1        0.836  -0.266   1.088  0.00  0.00    -0.300 C 
ATOM      3  S   LIG    1       -0.378  -0.761   2.377  0.00  0.00    +2.390 S 
ATOM      4  C   LIG    1       -1.579  -1.458   1.172  0.00  0.00    -0.350 C 
ATOM      5  O   LIG    1       -0.928   0.397   2.991  0.00  0.00    -0.910 OA
ATOM      6  O   LIG    1        0.164  -1.804   3.175  0.00  0.00    -0.940 OA
ATOM      7  C   LIG    1       -1.432  -0.518  -0.038  0.00  0.00    +0.210 C 
ENDROOT
BRANCH   7   8
ATOM      8  N   LIG    1       -1.619  -1.295  -1.270  0.00  0.00    -0.520 NA
ATOM      9  C   LIG    1       -2.963  -1.887  -1.321  0.00  0.00    +0.150 C 
ATOM     10  C   LIG    1       -3.135  -2.636  -2.645  0.00  0.00    +0.220 C 
ATOM     11  O   LIG    1       -2.105  -3.621  -2.767  0.00  0.00    -0.380 OA
ATOM     12  C   LIG    1       -0.782  -3.079  -2.722  0.00  0.00    +0.220 C 
ATOM     13  C   LIG    1       -0.587  -2.334  -1.399  0.00  0.00    +0.140 C 
ENDBRANCH   7   8
BRANCH   1  14
ATOM     14  N   LIG    1       -0.252   1.613  -0.048  0.00  0.00    -0.840 NA
ATOM     15  H   LIG    1       -0.883   1.918  -0.774  0.00  0.00    +0.350 HD
ATOM     16  H   LIG    1        0.633   2.092  -0.113  0.00  0.00    +0.350 HD
ENDBRANCH   1  14
TORSDOF 2
ENDMDL
MODEL       57
REMARK  Name = ZINC000031990032
REMARK                            x       y       z     vdW  Elec       q    Type
REMARK                         _______ _______ _______ _____ _____    ______ ____
ROOT
ATOM      1  C   LIG    1       -0.048   0.121   0.076  0.00  0.00    +0.220 C 
ATOM      2  C   LIG    1        0.802  -0.306  -1.138  0.00  0.00    -0.340 C 
ATOM      3  S   LIG    1        0.070  -1.929  -1.599  0.00  0.00    +2.390 S 
ATOM      4  C   LIG    1       -1.644  -1.436  -1.153  0.00  0.00    -0.300 C 
ATOM      5  O   LIG    1        0.530  -2.935  -0.707  0.00  0.00    -0.910 OA
ATOM      6  O   LIG    1        0.168  -2.119  -3.003  0.00  0.00    -0.940 OA
ATOM      7  C   LIG    1       -1.431  -0.518   0.064  0.00  0.00    +0.170 C 
ENDROOT
BRANCH   7   8
ATOM      8  N   LIG    1       -1.594  -1.309   1.291  0.00  0.00    -0.530 NA
ATOM      9  C   LIG    1       -2.918  -1.946   1.336  0.00  0.00    +0.150 C 
ATOM     10  C   LIG    1       -3.023  -2.805   2.598  0.00  0.00    +0.220 C 
ATOM     11  O   LIG    1       -2.776  -1.989   3.747  0.00  0.00    -0.380 OA
ATOM     12  C   LIG    1       -1.494  -1.354   3.736  0.00  0.00    +0.220 C 
ATOM     13  C   LIG    1       -1.374  -0.480   2.485  0.00  0.00    +0.170 C 
ENDBRANCH   7   8
BRANCH   1  14
ATOM     14  N   LIG    1       -0.198   1.582   0.062  0.00  0.00    -0.830 NA
ATOM     15  H   LIG    1       -0.721   1.884  -0.747  0.00  0.00    +0.350 HD
ATOM     16  H   LIG    1        0.701   2.039   0.103  0.00  0.00    +0.350 HD
ENDBRANCH   1  14
TORSDOF 2
ENDMDL
MODEL       58
REMARK  Name = ZINC000031990026
REMARK                            x       y       z     vdW  Elec       q    Type
REMARK                         _______ _______ _______ _____ _____    ______ ____
ROOT
ATOM      1  C   LIG    1        0.018  -0.019   0.260  0.00  0.00    +0.200 C 
ATOM      2  C   LIG    1        0.820  -0.370  -1.009  0.00  0.00    -0.340 C 
ATOM      3  S   LIG    1       -0.064  -1.846  -1.657  0.00  0.00    +2.390 S 
ATOM      4  C   LIG    1       -1.722  -1.254  -1.129  0.00  0.00    -0.300 C 
ATOM      5  O   LIG    1        0.300  -2.995  -0.903  0.00  0.00    -0.930 OA
ATOM      6  O   LIG    1        0.010  -1.868  -3.076  0.00  0.00    -0.930 OA
ATOM      7  C   LIG    1       -1.420  -0.519   0.189  0.00  0.00    +0.160 C 
ENDROOT
BRANCH   7   8
ATOM      8  N   LIG    1       -2.327   0.630   0.314  0.00  0.00    -0.510 NA
ATOM      9  C   LIG    1       -2.263   1.209   1.664  0.00  0.00    +0.170 C 
ATOM     10  C   LIG    1       -3.176   2.435   1.731  0.00  0.00    +0.220 C 
ATOM     11  O   LIG    1       -4.506   2.054   1.369  0.00  0.00    -0.390 OA
ATOM     12  C   LIG    1       -4.606   1.487   0.060  0.00  0.00    +0.230 C 
ATOM     13  C   LIG    1       -3.707   0.251  -0.025  0.00  0.00    +0.140 C 
ENDBRANCH   7   8
BRANCH   1  14
ATOM     14  N   LIG    1        0.008   1.440   0.429  0.00  0.00    -0.820 NA
ATOM     15  H   LIG    1       -0.426   1.892  -0.361  0.00  0.00    +0.360 HD
ATOM     16  H   LIG    1        0.941   1.793   0.580  0.00  0.00    +0.340 HD
ENDBRANCH   1  14
TORSDOF 2
ENDMDL
MODEL       59
REMARK  Name = ZINC000088346542
REMARK                            x       y       z     vdW  Elec       q    Type
REMARK                         _______ _______ _______ _____ _____    ______ ____
ROOT
ATOM      1  O   LIG    1        0.002  -0.004   0.002  0.00  0.00    -0.510 OA
ATOM      2  C   LIG    1       -0.014   1.212   0.009  0.00  0.00    +0.600 C 
ATOM      3  N   LIG    1        1.143   1.902   0.001  0.00  0.00    -0.720 N 
ATOM      4  H   LIG    1        1.130   2.872   0.007  0.00  0.00    +0.400 HD
ENDROOT
BRANCH   2   5
ATOM      5  C   LIG    1       -1.299   1.931   0.019  0.00  0.00    -0.070 A 
ATOM      6  C   LIG    1       -2.555   1.383   0.028  0.00  0.00    +0.250 A 
ATOM      7  N   LIG    1       -3.411   2.404   0.035  0.00  0.00    -0.270 NA
ATOM      8  N   LIG    1       -2.757   3.510   0.032  0.00  0.00    -0.040 NA
ATOM      9  N   LIG    1       -1.489   3.288   0.027  0.00  0.00    -0.370 N 
ATOM     10  H   LIG    1       -0.792   3.962   0.024  0.00  0.00    +0.450 HD
ENDBRANCH   2   5
BRANCH   3  11
ATOM     11  C   LIG    1        2.422   1.187  -0.015  0.00  0.00    +0.320 C 
BRANCH  11  12
ATOM     12  C   LIG    1        3.571   2.196  -0.020  0.00  0.00    +0.120 C 
ATOM     13  C   LIG    1        4.904   1.455  -0.160  0.00  0.00    +0.210 C 
ATOM     14  O   LIG    1        5.978   2.394  -0.052  0.00  0.00    -0.370 OA
ATOM     15  C   LIG    1        5.975   3.128   1.177  0.00  0.00    +0.190 C 
ATOM     16  C   LIG    1        4.642   3.870   1.316  0.00  0.00    +0.190 C 
ATOM     17  O   LIG    1        3.568   2.932   1.207  0.00  0.00    -0.380 OA
ENDBRANCH  11  12
ENDBRANCH   3  11
TORSDOF 3
ENDMDL
MODEL       60
REMARK  Name = ZINC000085436827
REMARK                            x       y       z     vdW  Elec       q    Type
REMARK                         _______ _______ _______ _____ _____    ______ ____
ROOT
ATOM      1  N   LIG    1       -0.913  -2.193   0.075  0.00  0.00    -0.520 NA
ATOM      2  C   LIG    1        0.197  -2.484  -0.843  0.00  0.00    +0.190 C 
ATOM      3  C   LIG    1        0.613  -3.948  -0.688  0.00  0.00    +0.180 C 
ATOM      4  N   LIG    1       -0.539  -4.815  -0.968  0.00  0.00    -0.530 NA
ATOM      5  C   LIG    1       -1.649  -4.524  -0.050  0.00  0.00    +0.180 C 
ATOM      6  C   LIG    1       -2.066  -3.060  -0.205  0.00  0.00    +0.190 C 
ENDROOT
BRANCH   1   7
ATOM      7  C   LIG    1       -1.293  -0.775   0.010  0.00  0.00    +0.200 C 
BRANCH   7  11
ATOM      8  N   LIG    1       -2.833   0.754   1.197  0.00  0.00    -0.860 N 
ATOM      9  H   LIG    1       -2.633   1.425   0.526  0.00  0.00    +0.400 HD
ATOM     10  H   LIG    1       -3.450   0.957   1.918  0.00  0.00    +0.400 HD
ATOM     11  C   LIG    1       -2.251  -0.460   1.130  0.00  0.00    +0.520 C 
ATOM     12  O   LIG    1       -2.497  -1.298   1.971  0.00  0.00    -0.520 OA
ENDBRANCH   7  11
ENDBRANCH   1   7
BRANCH   4  13
ATOM     13  C   LIG    1       -0.160  -6.233  -0.903  0.00  0.00    +0.160 C 
BRANCH  13  14
ATOM     14  C   LIG    1       -1.306  -7.093  -1.439  0.00  0.00    +0.240 C 
BRANCH  14  15
ATOM     15  C   LIG    1       -0.963  -8.572  -1.256  0.00  0.00    -0.090 C 
ATOM     16  C   LIG    1       -1.780  -9.367  -0.236  0.00  0.00    +0.030 C 
ATOM     17  C   LIG    1       -1.990  -9.601  -1.733  0.00  0.00    +0.030 C 
ENDBRANCH  14  15
BRANCH  14  18
ATOM     18  O   LIG    1       -1.501  -6.817  -2.827  0.00  0.00    -0.550 OA
ATOM     19  H   LIG    1       -0.726  -7.000  -3.377  0.00  0.00    +0.370 HD
ENDBRANCH  14  18
ENDBRANCH  13  14
ENDBRANCH   4  13
TORSDOF 6
ENDMDL
MODEL       61
REMARK  Name = ZINC000085436828
REMARK                            x       y       z     vdW  Elec       q    Type
REMARK                         _______ _______ _______ _____ _____    ______ ____
ROOT
ATOM      1  N   LIG    1       -1.238  -2.253   0.017  0.00  0.00    -0.520 NA
ATOM      2  C   LIG    1        0.023  -2.476  -0.704  0.00  0.00    +0.190 C 
ATOM      3  C   LIG    1        0.469  -3.927  -0.511  0.00  0.00    +0.180 C 
ATOM      4  N   LIG    1       -0.582  -4.830  -1.002  0.00  0.00    -0.530 NA
ATOM      5  C   LIG    1       -1.843  -4.607  -0.282  0.00  0.00    +0.180 C 
ATOM      6  C   LIG    1       -2.289  -3.155  -0.475  0.00  0.00    +0.190 C 
ENDROOT
BRANCH   1   7
ATOM      7  C   LIG    1       -1.660  -0.850  -0.083  0.00  0.00    +0.210 C 
BRANCH   7  11
ATOM      8  N   LIG    1       -3.445   0.586   0.851  0.00  0.00    -0.860 N 
ATOM      9  H   LIG    1       -3.157   1.285   0.244  0.00  0.00    +0.400 HD
ATOM     10  H   LIG    1       -4.187   0.744   1.456  0.00  0.00    +0.400 HD
ATOM     11  C   LIG    1       -2.812  -0.604   0.858  0.00  0.00    +0.520 C 
ATOM     12  O   LIG    1       -3.169  -1.477   1.620  0.00  0.00    -0.520 OA
ENDBRANCH   7  11
ENDBRANCH   1   7
BRANCH   4  13
ATOM     13  C   LIG    1       -0.160  -6.233  -0.903  0.00  0.00    +0.160 C 
BRANCH  13  14
ATOM     14  C   LIG    1        0.839  -6.545  -2.019  0.00  0.00    +0.250 C 
BRANCH  14  15
ATOM     15  C   LIG    1        1.329  -7.988  -1.876  0.00  0.00    -0.090 C 
ATOM     16  C   LIG    1        0.993  -8.963  -3.006  0.00  0.00    +0.010 C 
ATOM     17  C   LIG    1        2.426  -8.459  -2.832  0.00  0.00    +0.020 C 
ENDBRANCH  14  15
BRANCH  14  18
ATOM     18  O   LIG    1        0.201  -6.382  -3.288  0.00  0.00    -0.550 OA
ATOM     19  H   LIG    1       -0.564  -6.958  -3.421  0.00  0.00    +0.370 HD
ENDBRANCH  14  18
ENDBRANCH  13  14
ENDBRANCH   4  13
TORSDOF 6
ENDMDL
MODEL       62
REMARK  Name = ZINC000013545782
REMARK                            x       y       z     vdW  Elec       q    Type
REMARK                         _______ _______ _______ _____ _____    ______ ____
ROOT
ATOM      1  C   LIG    1       -2.053  -3.133   0.005  0.00  0.00    +0.350 A 
ATOM      2  N   LIG    1       -3.296  -2.725   0.013  0.00  0.00    -0.300 NA
ATOM      3  N   LIG    1       -4.336  -3.662   0.018  0.00  0.00    -0.460 N 
ATOM      4  H   LIG    1       -5.256  -3.355   0.024  0.00  0.00    +0.470 HD
ATOM      5  C   LIG    1       -4.078  -4.982   0.014  0.00  0.00    +0.500 A 
ATOM      6  N   LIG    1       -2.814  -5.444   0.005  0.00  0.00    -0.610 N 
ATOM      7  H   LIG    1       -2.647  -6.399   0.002  0.00  0.00    +0.450 HD
ATOM      8  S   LIG    1       -5.380  -6.094   0.020  0.00  0.00    -0.530 S 
ATOM      9  C   LIG    1       -1.778  -4.579  -0.006  0.00  0.00    +0.520 A 
ATOM     10  O   LIG    1       -0.633  -4.989  -0.014  0.00  0.00    -0.450 OA
ENDROOT
BRANCH   1  11
ATOM     11  N   LIG    1       -1.005  -2.212  -0.000  0.00  0.00    -0.660 N 
ATOM     12  H   LIG    1       -0.087  -2.523  -0.011  0.00  0.00    +0.440 HD
BRANCH  11  13
ATOM     13  C   LIG    1       -1.293  -0.775   0.010  0.00  0.00    +0.320 C 
BRANCH  13  17
ATOM     14  N   LIG    1       -0.016   1.344   0.009  0.00  0.00    -0.840 N 
ATOM     15  H   LIG    1       -0.863   1.817   0.016  0.00  0.00    +0.410 HD
ATOM     16  H   LIG    1        0.817   1.840   0.004  0.00  0.00    +0.410 HD
ATOM     17  C   LIG    1        0.002  -0.004   0.002  0.00  0.00    +0.510 C 
ATOM     18  O   LIG    1        1.060  -0.596  -0.011  0.00  0.00    -0.530 OA
ENDBRANCH  13  17
ENDBRANCH  11  13
ENDBRANCH   1  11
TORSDOF 3
ENDMDL
MODEL       63
REMARK  Name = ZINC000035851507
REMARK                            x       y       z     vdW  Elec       q    Type
REMARK                         _______ _______ _______ _____ _____    ______ ____
ROOT
ATOM      1  C   LIG    1       -2.929  -3.830   0.009  0.00  0.00    +0.300 C 
ATOM      2  C   LIG    1       -2.860  -4.336  -1.446  0.00  0.00    -0.300 C 
ATOM      3  S   LIG    1       -4.045  -5.741  -1.448  0.00  0.00    +2.380 S 
ATOM      4  C   LIG    1       -5.202  -4.944  -0.263  0.00  0.00    -0.330 C 
ATOM      5  O   LIG    1       -3.444  -6.879  -0.844  0.00  0.00    -0.920 OA
ATOM      6  O   LIG    1       -4.660  -5.850  -2.724  0.00  0.00    -0.930 OA
ATOM      7  C   LIG    1       -4.256  -4.174   0.675  0.00  0.00    +0.210 C 
ENDROOT
BRANCH   1   9
ATOM      8  C   LIG    1       -1.518  -1.844   0.007  0.00  0.00    +0.650 C 
ATOM      9  N   LIG    1       -2.757  -2.376   0.016  0.00  0.00    -0.700 N 
ATOM     10  H   LIG    1       -3.534  -1.795   0.026  0.00  0.00    +0.410 HD
ATOM     11  O   LIG    1       -0.545  -2.571  -0.006  0.00  0.00    -0.560 OA
BRANCH   8  12
ATOM     12  O   LIG    1       -1.360  -0.507   0.012  0.00  0.00    -0.370 OA
BRANCH  12  14
ATOM     13  C   LIG    1       -0.019   1.526   0.010  0.00  0.00    +0.070 C 
ATOM     14  C   LIG    1        0.002  -0.004   0.002  0.00  0.00    +0.220 C 
ENDBRANCH  12  14
ENDBRANCH   8  12
ENDBRANCH   1   9
BRANCH   7  15
ATOM     15  N   LIG    1       -3.987  -4.998   1.861  0.00  0.00    -0.840 NA
ATOM     16  H   LIG    1       -3.518  -5.854   1.608  0.00  0.00    +0.350 HD
ATOM     17  H   LIG    1       -4.837  -5.189   2.370  0.00  0.00    +0.360 HD
ENDBRANCH   7  15
TORSDOF 4
ENDMDL
MODEL       64
REMARK  Name = ZINC000379811890
REMARK                            x       y       z     vdW  Elec       q    Type
REMARK                         _______ _______ _______ _____ _____    ______ ____
ROOT
ATOM      1  N   LIG    1       -1.117   4.220   1.248  0.00  0.00    -0.660 NA
ATOM      2  H   LIG    1       -2.015   3.892   1.573  0.00  0.00    +0.360 HD
ENDROOT
BRANCH   1   6
ATOM      3  O   LIG    1        0.002  -0.004   0.002  0.00  0.00    -0.480 OA
ATOM      4  C   LIG    1       -0.014   1.208   0.009  0.00  0.00    +0.530 C 
ATOM      5  C   LIG    1       -1.260   2.068   0.032  0.00  0.00    +0.100 C 
ATOM      6  C   LIG    1       -0.705   3.507   0.032  0.00  0.00    +0.160 C 
ATOM      7  C   LIG    1        0.795   3.309   0.009  0.00  0.00    +0.540 C 
ATOM      8  O   LIG    1        1.620   4.197   0.002  0.00  0.00    -0.470 OA
ATOM      9  N   LIG    1        1.066   1.998   0.003  0.00  0.00    -0.680 N 
ATOM     10  H   LIG    1        1.971   1.650  -0.012  0.00  0.00    +0.420 HD
ENDBRANCH   1   6
BRANCH   1  11
ATOM     11  C   LIG    1       -1.135   5.672   1.027  0.00  0.00    +0.200 C 
BRANCH  11  12
ATOM     12  C   LIG    1       -1.568   6.378   2.313  0.00  0.00    +0.380 C 
BRANCH  12  13
ATOM     13  N   LIG    1       -1.586   7.826   2.093  0.00  0.00    -0.140 N 
ATOM     14  N   LIG    1       -0.591   8.623   2.281  0.00  0.00    -0.300 NA
ATOM     15  C   LIG    1       -0.984   9.837   1.980  0.00  0.00    +0.390 A 
ATOM     16  N   LIG    1       -2.259   9.748   1.601  0.00  0.00    -0.280 NA
ATOM     17  N   LIG    1       -2.597   8.506   1.675  0.00  0.00    -0.060 NA
ENDBRANCH  12  13
ENDBRANCH  11  12
ENDBRANCH   1  11
TORSDOF 4
ENDMDL
MODEL       65
REMARK  Name = ZINC000035851506
REMARK                            x       y       z     vdW  Elec       q    Type
REMARK                         _______ _______ _______ _____ _____    ______ ____
ROOT
ATOM      1  C   LIG    1       -2.929  -3.830   0.009  0.00  0.00    +0.290 C 
ATOM      2  C   LIG    1       -2.832  -4.352   1.458  0.00  0.00    -0.300 C 
ATOM      3  S   LIG    1       -4.593  -4.449   1.976  0.00  0.00    +2.380 S 
ATOM      4  C   LIG    1       -5.197  -4.947   0.314  0.00  0.00    -0.290 C 
ATOM      5  O   LIG    1       -5.073  -3.150   2.295  0.00  0.00    -0.920 OA
ATOM      6  O   LIG    1       -4.766  -5.521   2.893  0.00  0.00    -0.930 OA
ATOM      7  C   LIG    1       -4.268  -4.167  -0.635  0.00  0.00    +0.160 C 
ENDROOT
BRANCH   1   9
ATOM      8  C   LIG    1       -1.518  -1.844   0.007  0.00  0.00    +0.650 C 
ATOM      9  N   LIG    1       -2.757  -2.376   0.016  0.00  0.00    -0.710 N 
ATOM     10  H   LIG    1       -3.534  -1.795   0.026  0.00  0.00    +0.410 HD
ATOM     11  O   LIG    1       -0.545  -2.571  -0.006  0.00  0.00    -0.560 OA
BRANCH   8  12
ATOM     12  O   LIG    1       -1.360  -0.507   0.012  0.00  0.00    -0.370 OA
BRANCH  12  14
ATOM     13  C   LIG    1       -0.019   1.526   0.010  0.00  0.00    +0.070 C 
ATOM     14  C   LIG    1        0.002  -0.004   0.002  0.00  0.00    +0.220 C 
ENDBRANCH  12  14
ENDBRANCH   8  12
ENDBRANCH   1   9
BRANCH   7  15
ATOM     15  N   LIG    1       -4.022  -4.978  -1.835  0.00  0.00    -0.830 NA
ATOM     16  H   LIG    1       -3.347  -4.535  -2.439  0.00  0.00    +0.350 HD
ATOM     17  H   LIG    1       -4.883  -5.163  -2.328  0.00  0.00    +0.360 HD
ENDBRANCH   7  15
TORSDOF 4
ENDMDL
MODEL       66
REMARK  Name = ZINC000379811894
REMARK                            x       y       z     vdW  Elec       q    Type
REMARK                         _______ _______ _______ _____ _____    ______ ____
ROOT
ATOM      1  N   LIG    1       -1.153   4.233  -1.164  0.00  0.00    -0.650 NA
ATOM      2  H   LIG    1       -0.581   4.002  -1.963  0.00  0.00    +0.350 HD
ENDROOT
BRANCH   1   6
ATOM      3  O   LIG    1        0.002  -0.004   0.002  0.00  0.00    -0.470 OA
ATOM      4  C   LIG    1       -0.014   1.208   0.009  0.00  0.00    +0.530 C 
ATOM      5  C   LIG    1       -1.260   2.068   0.032  0.00  0.00    +0.120 C 
ATOM      6  C   LIG    1       -0.705   3.507   0.032  0.00  0.00    +0.200 C 
ATOM      7  C   LIG    1        0.795   3.309   0.009  0.00  0.00    +0.500 C 
ATOM      8  O   LIG    1        1.620   4.197   0.002  0.00  0.00    -0.470 OA
ATOM      9  N   LIG    1        1.066   1.998   0.003  0.00  0.00    -0.680 N 
ATOM     10  H   LIG    1        1.971   1.650  -0.012  0.00  0.00    +0.420 HD
ENDBRANCH   1   6
BRANCH   1  11
ATOM     11  C   LIG    1       -1.164   5.683  -0.926  0.00  0.00    +0.190 C 
BRANCH  11  12
ATOM     12  C   LIG    1       -1.634   6.404  -2.191  0.00  0.00    +0.380 C 
BRANCH  12  13
ATOM     13  N   LIG    1       -1.645   7.849  -1.954  0.00  0.00    -0.140 N 
ATOM     14  N   LIG    1       -2.643   8.524  -1.494  0.00  0.00    -0.310 NA
ATOM     15  C   LIG    1       -2.280   9.780  -1.419  0.00  0.00    +0.390 A 
ATOM     16  N   LIG    1       -1.020   9.846  -1.852  0.00  0.00    -0.280 NA
ATOM     17  N   LIG    1       -0.658   8.649  -2.166  0.00  0.00    -0.060 NA
ENDBRANCH  12  13
ENDBRANCH  11  12
ENDBRANCH   1  11
TORSDOF 4
ENDMDL
MODEL       67
REMARK  Name = ZINC000035851505
REMARK                            x       y       z     vdW  Elec       q    Type
REMARK                         _______ _______ _______ _____ _____    ______ ____
ROOT
ATOM      1  C   LIG    1       -2.929  -3.830   0.009  0.00  0.00    +0.290 C 
ATOM      2  C   LIG    1       -2.860  -4.336  -1.446  0.00  0.00    -0.300 C 
ATOM      3  S   LIG    1       -4.045  -5.741  -1.448  0.00  0.00    +2.390 S 
ATOM      4  C   LIG    1       -5.202  -4.944  -0.263  0.00  0.00    -0.290 C 
ATOM      5  O   LIG    1       -3.444  -6.879  -0.844  0.00  0.00    -0.920 OA
ATOM      6  O   LIG    1       -4.660  -5.850  -2.724  0.00  0.00    -0.930 OA
ATOM      7  C   LIG    1       -4.256  -4.174   0.675  0.00  0.00    +0.170 C 
ENDROOT
BRANCH   1   9
ATOM      8  C   LIG    1       -1.518  -1.844   0.007  0.00  0.00    +0.650 C 
ATOM      9  N   LIG    1       -2.757  -2.376   0.016  0.00  0.00    -0.700 N 
ATOM     10  H   LIG    1       -3.534  -1.795   0.026  0.00  0.00    +0.420 HD
ATOM     11  O   LIG    1       -0.545  -2.571  -0.006  0.00  0.00    -0.570 OA
BRANCH   8  12
ATOM     12  O   LIG    1       -1.360  -0.507   0.012  0.00  0.00    -0.370 OA
BRANCH  12  14
ATOM     13  C   LIG    1       -0.019   1.526   0.010  0.00  0.00    +0.070 C 
ATOM     14  C   LIG    1        0.002  -0.004   0.002  0.00  0.00    +0.220 C 
ENDBRANCH  12  14
ENDBRANCH   8  12
ENDBRANCH   1   9
BRANCH   7  15
ATOM     15  N   LIG    1       -4.911  -2.929   1.097  0.00  0.00    -0.840 NA
ATOM     16  H   LIG    1       -4.284  -2.357   1.643  0.00  0.00    +0.350 HD
ATOM     17  H   LIG    1       -5.761  -3.122   1.606  0.00  0.00    +0.360 HD
ENDBRANCH   7  15
TORSDOF 4
ENDMDL
MODEL       68
REMARK  Name = ZINC000035851508
REMARK                            x       y       z     vdW  Elec       q    Type
REMARK                         _______ _______ _______ _____ _____    ______ ____
ROOT
ATOM      1  C   LIG    1       -2.929  -3.830   0.009  0.00  0.00    +0.290 C 
ATOM      2  C   LIG    1       -2.879  -4.368   1.464  0.00  0.00    -0.320 C 
ATOM      3  S   LIG    1       -3.661  -6.019   1.261  0.00  0.00    +2.390 S 
ATOM      4  C   LIG    1       -4.867  -5.481  -0.010  0.00  0.00    -0.340 C 
ATOM      5  O   LIG    1       -4.346  -6.372   2.455  0.00  0.00    -0.930 OA
ATOM      6  O   LIG    1       -2.728  -6.921   0.681  0.00  0.00    -0.920 OA
ATOM      7  C   LIG    1       -4.289  -4.185  -0.594  0.00  0.00    +0.210 C 
ENDROOT
BRANCH   1   9
ATOM      8  C   LIG    1       -1.518  -1.844   0.007  0.00  0.00    +0.650 C 
ATOM      9  N   LIG    1       -2.757  -2.376   0.016  0.00  0.00    -0.680 N 
ATOM     10  H   LIG    1       -3.534  -1.795   0.026  0.00  0.00    +0.420 HD
ATOM     11  O   LIG    1       -0.545  -2.571  -0.006  0.00  0.00    -0.570 OA
BRANCH   8  12
ATOM     12  O   LIG    1       -1.360  -0.507   0.012  0.00  0.00    -0.370 OA
BRANCH  12  14
ATOM     13  C   LIG    1       -0.019   1.526   0.010  0.00  0.00    +0.070 C 
ATOM     14  C   LIG    1        0.002  -0.004   0.002  0.00  0.00    +0.220 C 
ENDBRANCH  12  14
ENDBRANCH   8  12
ENDBRANCH   1   9
BRANCH   7  15
ATOM     15  N   LIG    1       -5.227  -3.085  -0.334  0.00  0.00    -0.840 NA
ATOM     16  H   LIG    1       -5.342  -2.935   0.657  0.00  0.00    +0.350 HD
ATOM     17  H   LIG    1       -6.116  -3.255  -0.780  0.00  0.00    +0.360 HD
ENDBRANCH   7  15
TORSDOF 4
ENDMDL
MODEL       69
REMARK  Name = ZINC000088346543
REMARK                            x       y       z     vdW  Elec       q    Type
REMARK                         _______ _______ _______ _____ _____    ______ ____
ROOT
ATOM      1  O   LIG    1        0.002  -0.004   0.002  0.00  0.00    -0.510 OA
ATOM      2  C   LIG    1       -0.014   1.212   0.009  0.00  0.00    +0.600 C 
ATOM      3  N   LIG    1        1.143   1.902   0.001  0.00  0.00    -0.720 N 
ATOM      4  H   LIG    1        1.130   2.872   0.007  0.00  0.00    +0.400 HD
ENDROOT
BRANCH   2   5
ATOM      5  C   LIG    1       -1.299   1.931   0.019  0.00  0.00    -0.070 A 
ATOM      6  C   LIG    1       -2.555   1.383   0.028  0.00  0.00    +0.250 A 
ATOM      7  N   LIG    1       -3.411   2.404   0.035  0.00  0.00    -0.270 NA
ATOM      8  N   LIG    1       -2.757   3.510   0.032  0.00  0.00    -0.040 NA
ATOM      9  N   LIG    1       -1.489   3.288   0.027  0.00  0.00    -0.370 N 
ATOM     10  H   LIG    1       -0.792   3.962   0.024  0.00  0.00    +0.450 HD
ENDBRANCH   2   5
BRANCH   3  11
ATOM     11  C   LIG    1        2.422   1.187  -0.015  0.00  0.00    +0.320 C 
BRANCH  11  12
ATOM     12  C   LIG    1        3.571   2.196  -0.020  0.00  0.00    +0.120 C 
ATOM     13  C   LIG    1        4.908   1.450  -0.040  0.00  0.00    +0.210 C 
ATOM     14  O   LIG    1        5.973   2.398  -0.158  0.00  0.00    -0.370 OA
ATOM     15  C   LIG    1        5.879   3.224  -1.323  0.00  0.00    +0.190 C 
ATOM     16  C   LIG    1        4.542   3.970  -1.303  0.00  0.00    +0.190 C 
ATOM     17  O   LIG    1        3.476   3.023  -1.184  0.00  0.00    -0.380 OA
ENDBRANCH  11  12
ENDBRANCH   3  11
TORSDOF 3
ENDMDL
MODEL       70
REMARK  Name = ZINC000034085613
REMARK                            x       y       z     vdW  Elec       q    Type
REMARK                         _______ _______ _______ _____ _____    ______ ____
ROOT
ATOM      1  C   LIG    1        0.002  -0.004   0.002  0.00  0.00    +0.180 C 
ATOM      2  C   LIG    1       -1.437  -0.576  -0.061  0.00  0.00    +0.430 C 
ATOM      3  O   LIG    1       -1.255  -1.882  -0.650  0.00  0.00    -0.360 OA
ATOM      4  C   LIG    1       -0.269  -1.740  -1.687  0.00  0.00    +0.150 C 
ATOM      5  C   LIG    1        0.624  -0.541  -1.310  0.00  0.00    +0.130 C 
ENDROOT
BRANCH   2   6
ATOM      6  N   LIG    1       -2.007  -0.689   1.284  0.00  0.00    -0.520 N 
ATOM      7  C   LIG    1       -1.449  -1.552   2.186  0.00  0.00    +0.360 A 
ATOM      8  C   LIG    1       -1.974  -1.656   3.426  0.00  0.00    -0.120 A 
ATOM      9  C   LIG    1       -3.097  -0.864   3.766  0.00  0.00    +0.550 A 
ATOM     10  N   LIG    1       -3.618  -0.025   2.848  0.00  0.00    -0.660 N 
ATOM     11  H   LIG    1       -4.387   0.521   3.074  0.00  0.00    +0.430 HD
ATOM     12  O   LIG    1       -3.588  -0.940   4.878  0.00  0.00    -0.510 OA
ATOM     13  C   LIG    1       -3.071   0.062   1.621  0.00  0.00    +0.710 A 
ATOM     14  O   LIG    1       -3.551   0.823   0.804  0.00  0.00    -0.530 OA
ENDBRANCH   2   6
BRANCH   1  15
ATOM     15  N   LIG    1       -0.018   1.465   0.010  0.00  0.00    -0.820 NA
ATOM     16  H   LIG    1       -0.556   1.823  -0.764  0.00  0.00    +0.360 HD
ATOM     17  H   LIG    1        0.919   1.839   0.003  0.00  0.00    +0.350 HD
ENDBRANCH   1  15
BRANCH   5  18
ATOM     18  O   LIG    1        0.578   0.457  -2.333  0.00  0.00    -0.550 OA
ATOM     19  H   LIG    1        0.902   0.154  -3.192  0.00  0.00    +0.390 HD
ENDBRANCH   5  18
BRANCH   4  20
ATOM     20  C   LIG    1        0.577  -3.013  -1.778  0.00  0.00    +0.200 C 
BRANCH  20  21
ATOM     21  O   LIG    1       -0.240  -4.096  -2.225  0.00  0.00    -0.560 OA
ATOM     22  H   LIG    1        0.231  -4.937  -2.306  0.00  0.00    +0.390 HD
ENDBRANCH  20  21
ENDBRANCH   4  20
TORSDOF 5
ENDMDL
MODEL       71
REMARK  Name = ZINC000089938932
REMARK                            x       y       z     vdW  Elec       q    Type
REMARK                         _______ _______ _______ _____ _____    ______ ____
ROOT
ATOM      1  C   LIG    1        2.073   0.058   1.257  0.00  0.00    +0.220 C 
ENDROOT
BRANCH   1   2
ATOM      2  C   LIG    1        2.681  -0.262   2.598  0.00  0.00    +0.510 C 
ATOM      3  N   LIG    1        3.934   0.145   2.884  0.00  0.00    -0.690 N 
ATOM      4  H   LIG    1        4.444   0.644   2.227  0.00  0.00    +0.410 HD
ATOM      5  C   LIG    1        4.478  -0.142   4.084  0.00  0.00    +0.700 C 
ATOM      6  O   LIG    1        3.839  -0.767   4.907  0.00  0.00    -0.530 OA
ATOM      7  N   LIG    1        5.730   0.266   4.370  0.00  0.00    -0.860 N 
ATOM      8  H   LIG    1        6.122   0.060   5.233  0.00  0.00    +0.420 HD
ATOM      9  H   LIG    1        6.240   0.765   3.713  0.00  0.00    +0.400 HD
ATOM     10  O   LIG    1        2.044  -0.886   3.419  0.00  0.00    -0.440 OA
ENDBRANCH   1   2
BRANCH   1  18
ATOM     11  C   LIG    1       -0.019   1.526   0.010  0.00  0.00    +0.050 C 
ATOM     12  C   LIG    1        0.002  -0.004   0.002  0.00  0.00    +0.130 C 
ATOM     13  C   LIG    1       -1.434  -0.534   0.014  0.00  0.00    +0.190 C 
ATOM     14  N   LIG    1       -1.410  -2.003   0.045  0.00  0.00    -0.550 NA
ATOM     15  C   LIG    1       -0.701  -2.491   1.237  0.00  0.00    +0.190 C 
ATOM     16  C   LIG    1        0.735  -1.960   1.225  0.00  0.00    +0.190 C 
ATOM     17  C   LIG    1       -2.771  -2.553  -0.019  0.00  0.00    +0.190 C 
ATOM     18  N   LIG    1        0.712  -0.491   1.193  0.00  0.00    -0.520 NA
ENDBRANCH   1  18
TORSDOF 2
ENDMDL
MODEL       72
REMARK  Name = ZINC000004955570
REMARK                            x       y       z     vdW  Elec       q    Type
REMARK                         _______ _______ _______ _____ _____    ______ ____
ROOT
ATOM      1  S   LIG    1        1.896  -4.058  -2.521  0.00  0.00    +2.800 S 
ATOM      2  O   LIG    1        2.595  -4.377  -1.325  0.00  0.00    -0.960 OA
ATOM      3  O   LIG    1        2.487  -4.134  -3.810  0.00  0.00    -0.940 OA
ENDROOT
BRANCH   1   4
ATOM      4  N   LIG    1        1.354  -2.503  -2.345  0.00  0.00    -1.100 NA
ATOM      5  H   LIG    1        1.498  -1.856  -3.054  0.00  0.00    +0.430 HD
BRANCH   4   6
ATOM      6  C   LIG    1        0.657  -2.104  -1.120  0.00  0.00    +0.370 C 
BRANCH   6   7
ATOM      7  C   LIG    1        0.598  -0.600  -1.043  0.00  0.00    +0.460 C 
ATOM      8  O   LIG    1        1.088   0.070  -1.921  0.00  0.00    -0.490 OA
BRANCH   7  10
ATOM      9  C   LIG    1       -0.018   1.448   0.010  0.00  0.00    +0.290 C 
ATOM     10  O   LIG    1        0.002  -0.004   0.002  0.00  0.00    -0.360 OA
ENDBRANCH   7  10
ENDBRANCH   6   7
ENDBRANCH   4   6
ENDBRANCH   1   4
BRANCH   1  11
ATOM     11  N   LIG    1        0.563  -5.040  -2.559  0.00  0.00    -1.030 N 
ATOM     12  H   LIG    1        0.415  -5.685  -1.850  0.00  0.00    +0.440 HD
BRANCH  11  13
ATOM     13  C   LIG    1       -0.341  -4.940  -3.603  0.00  0.00    +0.560 A 
ATOM     14  N   LIG    1       -0.297  -3.880  -4.396  0.00  0.00    -0.560 NA
ATOM     15  C   LIG    1       -1.146  -3.753  -5.403  0.00  0.00    +0.380 A 
ATOM     16  C   LIG    1       -2.088  -4.746  -5.622  0.00  0.00    -0.100 A 
ATOM     17  C   LIG    1       -2.105  -5.842  -4.773  0.00  0.00    +0.370 A 
ATOM     18  N   LIG    1       -1.225  -5.909  -3.788  0.00  0.00    -0.540 NA
ENDBRANCH  11  13
ENDBRANCH   1  11
TORSDOF 6
ENDMDL
MODEL       73
REMARK  Name = ZINC000004811920
REMARK                            x       y       z     vdW  Elec       q    Type
REMARK                         _______ _______ _______ _____ _____    ______ ____
ROOT
ATOM      1  C   LIG    1       -0.018   1.461   0.010  0.00  0.00    +0.340 C 
ATOM      2  N   LIG    1        0.002  -0.004   0.002  0.00  0.00    -0.510 N 
ATOM      3  C   LIG    1       -1.189  -0.711   0.004  0.00  0.00    +0.340 A 
ATOM      4  C   LIG    1       -1.144  -2.106  -0.004  0.00  0.00    -0.150 A 
ATOM      5  N   LIG    1       -2.454  -2.529  -0.001  0.00  0.00    -0.380 N 
ATOM      6  C   LIG    1       -3.010  -3.815   0.000  0.00  0.00    +0.140 A 
ATOM      7  C   LIG    1       -4.323  -3.921  -0.214  0.00  0.00    +0.290 A 
ATOM      8  N   LIG    1       -5.096  -2.778  -0.451  0.00  0.00    -0.560 N 
ATOM      9  H   LIG    1       -5.943  -2.842  -0.919  0.00  0.00    +0.440 HD
ATOM     10  N   LIG    1       -4.618  -1.525   0.006  0.00  0.00    -0.510 N 
ATOM     11  H   LIG    1       -5.208  -0.812   0.295  0.00  0.00    +0.460 HD
ATOM     12  C   LIG    1       -3.237  -1.402   0.006  0.00  0.00    +0.540 A 
ATOM     13  C   LIG    1        0.109  -2.746  -0.014  0.00  0.00    +0.600 A 
ATOM     14  N   LIG    1        1.234  -2.002  -0.015  0.00  0.00    -0.650 N 
ATOM     15  H   LIG    1        2.097  -2.444  -0.022  0.00  0.00    +0.440 HD
ATOM     16  O   LIG    1        0.177  -3.962  -0.021  0.00  0.00    -0.510 OA
ATOM     17  N   LIG    1       -2.475  -0.343   0.011  0.00  0.00    -0.510 NA
ATOM     18  C   LIG    1        1.178  -0.660  -0.013  0.00  0.00    +0.710 A 
ATOM     19  O   LIG    1        2.213  -0.022  -0.014  0.00  0.00    -0.530 OA
ENDROOT
TORSDOF 0
ENDMDL
MODEL       74
REMARK  Name = ZINC000034522724
REMARK                            x       y       z     vdW  Elec       q    Type
REMARK                         _______ _______ _______ _____ _____    ______ ____
ROOT
ATOM      1  C   LIG    1        0.000  -0.685  -1.193  0.00  0.00    +0.440 C 
ATOM      2  N   LIG    1       -0.013  -0.138  -2.356  0.00  0.00    -0.590 NA
ATOM      3  C   LIG    1       -0.059  -0.977  -3.548  0.00  0.00    +0.200 C 
ATOM      4  C   LIG    1        0.047  -2.437  -3.175  0.00  0.00    +0.260 C 
ATOM      5  O   LIG    1       -0.810  -3.368  -3.738  0.00  0.00    -0.320 OA
ATOM      6  C   LIG    1       -2.042  -2.982  -4.307  0.00  0.00    +0.140 C 
ATOM      7  C   LIG    1       -1.884  -1.730  -5.152  0.00  0.00    +0.130 C 
ATOM      8  C   LIG    1       -1.280  -0.610  -4.364  0.00  0.00    +0.200 C 
ATOM      9  S   LIG    1        0.023  -2.447  -1.359  0.00  0.00    -0.220 S 
ENDROOT
BRANCH   1  11
ATOM     10  C   LIG    1       -0.018   1.461   0.010  0.00  0.00    +0.310 C 
ATOM     11  N   LIG    1        0.002  -0.004   0.002  0.00  0.00    -0.590 N 
ATOM     12  C   LIG    1        0.024  -0.743   1.267  0.00  0.00    +0.300 C 
ENDBRANCH   1  11
BRANCH   7  13
ATOM     13  O   LIG    1       -3.167  -1.329  -5.637  0.00  0.00    -0.550 OA
ATOM     14  H   LIG    1       -3.607  -1.994  -6.184  0.00  0.00    +0.390 HD
ENDBRANCH   7  13
BRANCH   8  15
ATOM     15  O   LIG    1       -0.918   0.436  -5.268  0.00  0.00    -0.550 OA
ATOM     16  H   LIG    1       -1.661   0.797  -5.770  0.00  0.00    +0.390 HD
ENDBRANCH   8  15
BRANCH   6  17
ATOM     17  C   LIG    1       -2.565  -4.119  -5.187  0.00  0.00    +0.210 C 
BRANCH  17  18
ATOM     18  O   LIG    1       -2.860  -5.255  -4.372  0.00  0.00    -0.560 OA
ATOM     19  H   LIG    1       -3.198  -6.016  -4.865  0.00  0.00    +0.390 HD
ENDBRANCH  17  18
ENDBRANCH   6  17
TORSDOF 5
ENDMDL
MODEL       75
REMARK  Name = ZINC000253495813
REMARK                            x       y       z     vdW  Elec       q    Type
REMARK                         _______ _______ _______ _____ _____    ______ ____
ROOT
ATOM      1  O   LIG    1       -0.104   0.165   0.031  0.00  0.00    -0.920 OA
ATOM      2  S   LIG    1       -0.088   1.583   0.124  0.00  0.00    +2.380 S 
ATOM      3  C   LIG    1       -0.355   2.099   1.872  0.00  0.00    -0.330 C 
ATOM      4  C   LIG    1        1.018   1.792   2.493  0.00  0.00    +0.180 C 
ATOM      5  N   LIG    1        1.166   2.303   3.826  0.00  0.00    -0.670 NA
ATOM      6  H   LIG    1        0.267   2.487   4.245  0.00  0.00    +0.360 HD
ATOM      7  C   LIG    1        2.045   3.472   3.933  0.00  0.00    +0.190 C 
ATOM      8  C   LIG    1        3.381   3.112   3.271  0.00  0.00    +0.210 C 
ATOM      9  N   LIG    1        3.147   2.936   1.838  0.00  0.00    -0.540 NA
ATOM     10  C   LIG    1        2.156   1.933   1.523  0.00  0.00    +0.170 C 
ATOM     11  O   LIG    1       -0.899   2.366  -0.741  0.00  0.00    -0.930 OA
ATOM     12  C   LIG    1        1.646   2.193   0.077  0.00  0.00    -0.290 C 
ENDROOT
BRANCH   9  13
ATOM     13  C   LIG    1        4.407   2.686   1.125  0.00  0.00    +0.200 C 
BRANCH  13  14
ATOM     14  C   LIG    1        5.169   4.002   0.959  0.00  0.00    +0.190 C 
BRANCH  14  15
ATOM     15  O   LIG    1        5.590   4.474   2.241  0.00  0.00    -0.570 OA
ATOM     16  H   LIG    1        6.081   5.306   2.212  0.00  0.00    +0.380 HD
ENDBRANCH  14  15
ENDBRANCH  13  14
ENDBRANCH   9  13
TORSDOF 3
ENDMDL
MODEL       76
REMARK  Name = ZINC000253495695
REMARK                            x       y       z     vdW  Elec       q    Type
REMARK                         _______ _______ _______ _____ _____    ______ ____
ROOT
ATOM      1  N   LIG    1       -2.647  -2.571   0.013  0.00  0.00    -0.510 NA
ATOM      2  C   LIG    1       -3.335  -2.161  -1.218  0.00  0.00    +0.190 C 
ATOM      3  C   LIG    1       -4.809  -2.564  -1.113  0.00  0.00    +0.200 C 
ATOM      4  N   LIG    1       -4.894  -4.021  -0.961  0.00  0.00    -0.700 NA
ATOM      5  H   LIG    1       -5.854  -4.330  -0.973  0.00  0.00    +0.360 HD
ATOM      6  C   LIG    1       -4.206  -4.482   0.254  0.00  0.00    +0.180 C 
ATOM      7  C   LIG    1       -4.207  -6.029   0.235  0.00  0.00    -0.300 C 
ATOM      8  S   LIG    1       -2.668  -6.492  -0.640  0.00  0.00    +2.400 S 
ATOM      9  C   LIG    1       -2.026  -4.790  -0.880  0.00  0.00    -0.340 C 
ATOM     10  O   LIG    1       -2.996  -7.056  -1.902  0.00  0.00    -0.930 OA
ATOM     11  O   LIG    1       -1.814  -7.196   0.250  0.00  0.00    -0.940 OA
ATOM     12  C   LIG    1       -2.746  -4.008   0.243  0.00  0.00    +0.210 C 
ENDROOT
BRANCH   1  13
ATOM     13  C   LIG    1       -1.244  -2.135   0.003  0.00  0.00    +0.270 C 
BRANCH  13  14
ATOM     14  C   LIG    1       -1.185  -0.630   0.010  0.00  0.00    +0.460 C 
ATOM     15  O   LIG    1       -2.208   0.015   0.023  0.00  0.00    -0.490 OA
BRANCH  14  17
ATOM     16  C   LIG    1       -0.018   1.448   0.010  0.00  0.00    +0.270 C 
ATOM     17  O   LIG    1        0.002  -0.004   0.002  0.00  0.00    -0.360 OA
ENDBRANCH  14  17
ENDBRANCH  13  14
ENDBRANCH   1  13
TORSDOF 3
ENDMDL
MODEL       77
REMARK  Name = ZINC000104251170
REMARK                            x       y       z     vdW  Elec       q    Type
REMARK                         _______ _______ _______ _____ _____    ______ ____
ROOT
ATOM      1  C   LIG    1       -1.320  -0.530  -0.554  0.00  0.00    +0.130 C 
ATOM      2  C   LIG    1       -2.099   0.289   0.479  0.00  0.00    +0.340 C 
ATOM      3  O   LIG    1       -1.741  -0.141   1.794  0.00  0.00    -0.370 OA
ATOM      4  C   LIG    1       -2.041  -1.512   2.062  0.00  0.00    +0.140 C 
ATOM      5  C   LIG    1       -1.259  -2.403   1.092  0.00  0.00    +0.120 C 
ATOM      6  C   LIG    1       -1.619  -2.018  -0.347  0.00  0.00    +0.190 C 
ENDROOT
BRANCH   1   8
ATOM      7  C   LIG    1        0.882  -0.860  -1.505  0.00  0.00    +0.190 C 
ATOM      8  N   LIG    1        0.119  -0.290  -0.386  0.00  0.00    -0.500 NA
ATOM      9  C   LIG    1        0.400   1.144  -0.234  0.00  0.00    +0.190 C 
ENDBRANCH   1   8
BRANCH   5  10
ATOM     10  O   LIG    1        0.142  -2.220   1.300  0.00  0.00    -0.500 OA
ATOM     11  H   LIG    1        0.456  -2.529   2.162  0.00  0.00    +0.360 HD
ENDBRANCH   5  10
BRANCH   2  12
ATOM     12  O   LIG    1       -1.782   1.674   0.326  0.00  0.00    -0.530 OA
ATOM     13  H   LIG    1       -2.241   2.253   0.950  0.00  0.00    +0.380 HD
ENDBRANCH   2  12
BRANCH   6  14
ATOM     14  O   LIG    1       -0.841  -2.796  -1.259  0.00  0.00    -0.540 OA
ATOM     15  H   LIG    1       -0.977  -3.750  -1.177  0.00  0.00    +0.370 HD
ENDBRANCH   6  14
BRANCH   4  16
ATOM     16  C   LIG    1       -1.642  -1.850   3.500  0.00  0.00    +0.200 C 
BRANCH  16  17
ATOM     17  O   LIG    1       -2.453  -1.101   4.407  0.00  0.00    -0.560 OA
ATOM     18  H   LIG    1       -2.255  -1.265   5.339  0.00  0.00    +0.380 HD
ENDBRANCH  16  17
ENDBRANCH   4  16
TORSDOF 6
ENDMDL
MODEL       78
REMARK  Name = ZINC000188221742
REMARK                            x       y       z     vdW  Elec       q    Type
REMARK                         _______ _______ _______ _____ _____    ______ ____
ROOT
ATOM      1  O   LIG    1        0.002  -0.004   0.002  0.00  0.00    -0.520 OA
ATOM      2  C   LIG    1       -0.014   1.209   0.009  0.00  0.00    +0.530 C 
ATOM      3  N   LIG    1       -1.191   1.867   0.018  0.00  0.00    -0.620 N 
ATOM      4  C   LIG    1       -2.473   1.143   0.026  0.00  0.00    +0.300 C 
ATOM      5  C   LIG    1       -3.221   1.511   1.309  0.00  0.00    +0.260 C 
ATOM      6  N   LIG    1       -3.199   2.951   1.525  0.00  0.00    -0.720 N 
ATOM      7  H   LIG    1       -3.885   3.332   2.095  0.00  0.00    +0.400 HD
ATOM      8  C   LIG    1       -2.301   3.783   0.994  0.00  0.00    +0.510 C 
ATOM      9  O   LIG    1       -2.338   4.953   1.311  0.00  0.00    -0.540 OA
ATOM     10  C   LIG    1       -1.245   3.336   0.026  0.00  0.00    +0.320 C 
ENDROOT
BRANCH   2  11
ATOM     11  C   LIG    1        1.280   1.980   0.001  0.00  0.00    +0.180 C 
ATOM     12  C   LIG    1        1.648   2.431   1.436  0.00  0.00    +0.020 C 
ATOM     13  C   LIG    1        3.186   2.602   1.326  0.00  0.00    +0.170 C 
ATOM     14  C   LIG    1        3.594   1.467   0.363  0.00  0.00    +0.200 C 
ATOM     15  F   LIG    1        3.508   3.852   0.787  0.00  0.00    -0.200 F 
ATOM     16  N   LIG    1        2.397   1.107  -0.421  0.00  0.00    -0.660 NA
ATOM     17  H   LIG    1        2.161   0.134  -0.295  0.00  0.00    +0.360 HD
ENDBRANCH   2  11
TORSDOF 1
ENDMDL
MODEL       79
REMARK  Name = ZINC000036162670
REMARK                            x       y       z     vdW  Elec       q    Type
REMARK                         _______ _______ _______ _____ _____    ______ ____
ROOT
ATOM      1  C   LIG    1       -1.391  -0.566   0.128  0.00  0.00    +0.520 C 
ATOM      2  N   LIG    1       -2.294  -0.354  -0.850  0.00  0.00    -0.630 N 
ATOM      3  C   LIG    1       -1.883   0.321  -2.082  0.00  0.00    +0.320 C 
ATOM      4  C   LIG    1       -2.020  -0.644  -3.264  0.00  0.00    -0.340 C 
ATOM      5  S   LIG    1       -3.743  -1.208  -3.369  0.00  0.00    +2.420 S 
ATOM      6  C   LIG    1       -4.001  -1.886  -1.703  0.00  0.00    -0.330 C 
ATOM      7  O   LIG    1       -3.817  -2.271  -4.310  0.00  0.00    -0.930 OA
ATOM      8  O   LIG    1       -4.584  -0.074  -3.534  0.00  0.00    -0.930 OA
ATOM      9  C   LIG    1       -3.674  -0.808  -0.673  0.00  0.00    +0.340 C 
ATOM     10  O   LIG    1       -1.702  -1.198   1.115  0.00  0.00    -0.500 OA
ENDROOT
BRANCH   1  12
ATOM     11  C   LIG    1        0.028   1.440   0.462  0.00  0.00    +0.060 C 
ATOM     12  C   LIG    1        0.006  -0.017  -0.005  0.00  0.00    +0.130 C 
BRANCH  12  13
ATOM     13  N   LIG    1        0.925  -0.810   0.823  0.00  0.00    -0.830 NA
ATOM     14  H   LIG    1        1.869  -0.461   0.751  0.00  0.00    +0.350 HD
ATOM     15  H   LIG    1        0.881  -1.787   0.576  0.00  0.00    +0.350 HD
ENDBRANCH  12  13
ENDBRANCH   1  12
TORSDOF 2
ENDMDL
MODEL       80
REMARK  Name = ZINC000036162666
REMARK                            x       y       z     vdW  Elec       q    Type
REMARK                         _______ _______ _______ _____ _____    ______ ____
ROOT
ATOM      1  C   LIG    1        0.836  -0.462   1.171  0.00  0.00    +0.530 C 
ATOM      2  N   LIG    1        2.100  -0.017   1.312  0.00  0.00    -0.630 N 
ATOM      3  C   LIG    1        2.619   0.997   0.393  0.00  0.00    +0.320 C 
ATOM      4  C   LIG    1        2.932   2.279   1.170  0.00  0.00    -0.340 C 
ATOM      5  S   LIG    1        4.138   1.899   2.475  0.00  0.00    +2.420 S 
ATOM      6  C   LIG    1        3.289   0.566   3.370  0.00  0.00    -0.330 C 
ATOM      7  O   LIG    1        4.249   3.026   3.333  0.00  0.00    -0.930 OA
ATOM      8  O   LIG    1        5.309   1.368   1.871  0.00  0.00    -0.930 OA
ATOM      9  C   LIG    1        2.940  -0.549   2.386  0.00  0.00    +0.340 C 
ATOM     10  O   LIG    1        0.368  -1.228   1.986  0.00  0.00    -0.520 OA
ENDROOT
BRANCH   1  12
ATOM     11  C   LIG    1       -0.633   1.348   0.323  0.00  0.00    +0.020 C 
ATOM     12  C   LIG    1        0.003  -0.006   0.001  0.00  0.00    +0.180 C 
BRANCH  12  13
ATOM     13  N   LIG    1       -1.053  -0.993  -0.263  0.00  0.00    -0.830 NA
ATOM     14  H   LIG    1       -1.626  -0.710  -1.044  0.00  0.00    +0.350 HD
ATOM     15  H   LIG    1       -1.616  -1.149   0.560  0.00  0.00    +0.350 HD
ENDBRANCH  12  13
ENDBRANCH   1  12
TORSDOF 2
ENDMDL
MODEL       81
REMARK  Name = ZINC000253495432
REMARK                            x       y       z     vdW  Elec       q    Type
REMARK                         _______ _______ _______ _____ _____    ______ ____
ROOT
ATOM      1  N   LIG    1       -0.780  -2.557  -1.119  0.00  0.00    -0.510 NA
ATOM      2  C   LIG    1       -1.364  -2.248  -2.431  0.00  0.00    +0.190 C 
ATOM      3  C   LIG    1       -2.836  -2.670  -2.424  0.00  0.00    +0.200 C 
ATOM      4  N   LIG    1       -2.915  -4.114  -2.176  0.00  0.00    -0.700 NA
ATOM      5  H   LIG    1       -3.866  -4.442  -2.248  0.00  0.00    +0.360 HD
ATOM      6  C   LIG    1       -2.329  -4.476  -0.877  0.00  0.00    +0.180 C 
ATOM      7  C   LIG    1       -2.309  -6.020  -0.785  0.00  0.00    -0.300 C 
ATOM      8  S   LIG    1       -0.694  -6.514  -1.490  0.00  0.00    +2.400 S 
ATOM      9  C   LIG    1       -0.056  -4.821  -1.795  0.00  0.00    -0.330 C 
ATOM     10  O   LIG    1       -0.904  -7.172  -2.732  0.00  0.00    -0.930 OA
ATOM     11  O   LIG    1        0.089  -7.138  -0.481  0.00  0.00    -0.940 OA
ATOM     12  C   LIG    1       -0.880  -3.976  -0.796  0.00  0.00    +0.210 C 
ENDROOT
BRANCH   1  13
ATOM     13  C   LIG    1        0.613  -2.097  -1.041  0.00  0.00    +0.200 C 
BRANCH  13  14
ATOM     14  C   LIG    1        0.652  -0.570  -1.138  0.00  0.00    +0.170 C 
BRANCH  14  16
ATOM     15  C   LIG    1       -0.017   1.425   0.010  0.00  0.00    +0.200 C 
ATOM     16  O   LIG    1        0.002  -0.004   0.002  0.00  0.00    -0.380 OA
ENDBRANCH  14  16
ENDBRANCH  13  14
ENDBRANCH   1  13
TORSDOF 3
ENDMDL
MODEL       82
REMARK  Name = ZINC000089938934
REMARK                            x       y       z     vdW  Elec       q    Type
REMARK                         _______ _______ _______ _____ _____    ______ ____
ROOT
ATOM      1  C   LIG    1        0.099   0.025   2.422  0.00  0.00    +0.220 C 
ENDROOT
BRANCH   1   2
ATOM      2  C   LIG    1        0.836  -0.519   3.619  0.00  0.00    +0.510 C 
ATOM      3  N   LIG    1        0.386  -0.260   4.862  0.00  0.00    -0.690 N 
ATOM      4  H   LIG    1       -0.413   0.275   4.987  0.00  0.00    +0.410 HD
ATOM      5  C   LIG    1        1.045  -0.746   5.933  0.00  0.00    +0.700 C 
ATOM      6  O   LIG    1        2.046  -1.417   5.776  0.00  0.00    -0.530 OA
ATOM      7  N   LIG    1        0.595  -0.488   7.176  0.00  0.00    -0.860 N 
ATOM      8  H   LIG    1        1.069  -0.838   7.946  0.00  0.00    +0.420 HD
ATOM      9  H   LIG    1       -0.204   0.048   7.301  0.00  0.00    +0.400 HD
ATOM     10  O   LIG    1        1.835  -1.188   3.463  0.00  0.00    -0.440 OA
ENDBRANCH   1   2
BRANCH   1  18
ATOM     11  C   LIG    1        0.413   1.684   0.135  0.00  0.00    +0.050 C 
ATOM     12  C   LIG    1        0.171   0.179   0.006  0.00  0.00    +0.130 C 
ATOM     13  C   LIG    1        0.879  -0.347  -1.244  0.00  0.00    +0.190 C 
ATOM     14  N   LIG    1        0.678  -1.800  -1.344  0.00  0.00    -0.550 NA
ATOM     15  C   LIG    1        1.209  -2.485  -0.158  0.00  0.00    +0.190 C 
ATOM     16  C   LIG    1        0.500  -1.959   1.092  0.00  0.00    +0.180 C 
ATOM     17  C   LIG    1        1.280  -2.332  -2.574  0.00  0.00    +0.190 C 
ATOM     18  N   LIG    1        0.701  -0.507   1.192  0.00  0.00    -0.520 NA
ENDBRANCH   1  18
TORSDOF 2
ENDMDL
MODEL       83
REMARK  Name = ZINC000126769798
REMARK                            x       y       z     vdW  Elec       q    Type
REMARK                         _______ _______ _______ _____ _____    ______ ____
ROOT
ATOM      1  N   LIG    1       -2.643  -2.570   0.013  0.00  0.00    -0.720 N 
ATOM      2  H   LIG    1       -3.355  -1.912   0.024  0.00  0.00    +0.410 HD
ATOM      3  C   LIG    1       -2.941  -3.885   0.009  0.00  0.00    +0.530 C 
ATOM      4  O   LIG    1       -2.050  -4.708  -0.004  0.00  0.00    -0.520 OA
ENDROOT
BRANCH   3   5
ATOM      5  C   LIG    1       -4.380  -4.331   0.021  0.00  0.00    +0.200 C 
ATOM      6  C   LIG    1       -4.955  -4.231  -1.396  0.00  0.00    +0.090 C 
ATOM      7  S   LIG    1       -6.708  -4.715  -1.343  0.00  0.00    -0.240 S 
ATOM      8  C   LIG    1       -6.630  -6.312  -0.475  0.00  0.00    +0.080 C 
ATOM      9  C   LIG    1       -5.824  -6.125   0.815  0.00  0.00    +0.250 C 
ATOM     10  N   LIG    1       -4.455  -5.717   0.490  0.00  0.00    -0.670 NA
ATOM     11  H   LIG    1       -4.038  -6.349  -0.176  0.00  0.00    +0.360 HD
ENDBRANCH   3   5
BRANCH   1  12
ATOM     12  C   LIG    1       -1.244  -2.135   0.003  0.00  0.00    +0.370 C 
BRANCH  12  13
ATOM     13  C   LIG    1       -1.185  -0.630   0.010  0.00  0.00    +0.460 C 
ATOM     14  O   LIG    1       -2.208   0.015   0.023  0.00  0.00    -0.500 OA
BRANCH  13  16
ATOM     15  C   LIG    1       -0.018   1.448   0.010  0.00  0.00    +0.290 C 
ATOM     16  O   LIG    1        0.002  -0.004   0.002  0.00  0.00    -0.350 OA
ENDBRANCH  13  16
ENDBRANCH  12  13
ENDBRANCH   1  12
TORSDOF 4
ENDMDL
MODEL       84
REMARK  Name = ZINC000092510173
REMARK                            x       y       z     vdW  Elec       q    Type
REMARK                         _______ _______ _______ _____ _____    ______ ____
ROOT
ATOM      1  C   LIG    1        0.466  -4.477   2.424  0.00  0.00    +0.520 C 
ATOM      2  N   LIG    1        0.642  -5.775   2.744  0.00  0.00    -0.620 N 
ATOM      3  C   LIG    1        0.213  -6.853   1.837  0.00  0.00    +0.290 C 
ATOM      4  C   LIG    1        1.449  -7.657   1.433  0.00  0.00    +0.250 C 
ATOM      5  N   LIG    1        2.265  -7.971   2.597  0.00  0.00    -0.720 N 
ATOM      6  H   LIG    1        2.874  -8.724   2.532  0.00  0.00    +0.400 HD
ATOM      7  C   LIG    1        2.235  -7.296   3.747  0.00  0.00    +0.520 C 
ATOM      8  O   LIG    1        3.020  -7.604   4.619  0.00  0.00    -0.530 OA
ATOM      9  C   LIG    1        1.278  -6.171   4.010  0.00  0.00    +0.160 C 
ATOM     10  C   LIG    1        0.198  -6.635   4.989  0.00  0.00    +0.070 C 
ATOM     11  C   LIG    1        2.035  -4.982   4.603  0.00  0.00    +0.100 C 
ATOM     12  O   LIG    1        0.742  -3.612   3.228  0.00  0.00    -0.500 OA
ENDROOT
BRANCH   1  13
ATOM     13  C   LIG    1       -0.074  -4.102   1.068  0.00  0.00    +0.200 C 
BRANCH  13  14
ATOM     14  N   LIG    1       -0.173  -2.640   0.968  0.00  0.00    -0.670 NA
ATOM     15  H   LIG    1        0.719  -2.204   1.151  0.00  0.00    +0.360 HD
BRANCH  14  16
ATOM     16  C   LIG    1       -0.697  -2.236  -0.344  0.00  0.00    +0.190 C 
BRANCH  16  17
ATOM     17  C   LIG    1       -0.785  -0.710  -0.410  0.00  0.00    +0.180 C 
BRANCH  17  19
ATOM     18  C   LIG    1        0.560   1.274  -0.396  0.00  0.00    +0.200 C 
ATOM     19  O   LIG    1        0.530  -0.154  -0.341  0.00  0.00    -0.400 OA
ENDBRANCH  17  19
ENDBRANCH  16  17
ENDBRANCH  14  16
ENDBRANCH  13  14
ENDBRANCH   1  13
TORSDOF 5
ENDMDL
MODEL       85
REMARK  Name = ZINC000019789704
REMARK                            x       y       z     vdW  Elec       q    Type
REMARK                         _______ _______ _______ _____ _____    ______ ____
ROOT
ATOM      1  C   LIG    1       -0.361  -4.027   1.275  0.00  0.00    +0.170 C 
ATOM      2  C   LIG    1       -1.674  -4.659   1.780  0.00  0.00    -0.280 C 
ATOM      3  S   LIG    1       -1.088  -6.123   2.723  0.00  0.00    +2.390 S 
ATOM      4  C   LIG    1        0.429  -5.289   3.340  0.00  0.00    -0.330 C 
ATOM      5  O   LIG    1       -0.734  -7.165   1.823  0.00  0.00    -0.930 OA
ATOM      6  O   LIG    1       -1.970  -6.383   3.806  0.00  0.00    -0.930 OA
ATOM      7  C   LIG    1        0.827  -4.384   2.160  0.00  0.00    +0.190 C 
ENDROOT
BRANCH   1   8
ATOM      8  N   LIG    1       -0.514  -2.567   1.248  0.00  0.00    -0.660 NA
ATOM      9  H   LIG    1        0.375  -2.108   1.380  0.00  0.00    +0.370 HD
BRANCH   8  10
ATOM     10  C   LIG    1       -1.154  -2.126   0.002  0.00  0.00    +0.190 C 
BRANCH  10  11
ATOM     11  C   LIG    1       -1.295  -0.603   0.011  0.00  0.00    +0.180 C 
BRANCH  11  13
ATOM     12  C   LIG    1       -0.017   1.425   0.010  0.00  0.00    +0.200 C 
ATOM     13  O   LIG    1        0.002  -0.004   0.002  0.00  0.00    -0.390 OA
ENDBRANCH  11  13
ENDBRANCH  10  11
ENDBRANCH   8  10
ENDBRANCH   1   8
BRANCH   7  14
ATOM     14  O   LIG    1        1.399  -3.179   2.672  0.00  0.00    -0.540 OA
ATOM     15  H   LIG    1        2.202  -3.316   3.193  0.00  0.00    +0.390 HD
ENDBRANCH   7  14
TORSDOF 5
ENDMDL
MODEL       86
REMARK  Name = ZINC000019789707
REMARK                            x       y       z     vdW  Elec       q    Type
REMARK                         _______ _______ _______ _____ _____    ______ ____
ROOT
ATOM      1  C   LIG    1       -0.361  -4.027   1.275  0.00  0.00    +0.180 C 
ATOM      2  C   LIG    1       -1.674  -4.659   1.780  0.00  0.00    -0.280 C 
ATOM      3  S   LIG    1       -1.088  -6.123   2.723  0.00  0.00    +2.390 S 
ATOM      4  C   LIG    1        0.429  -5.289   3.340  0.00  0.00    -0.330 C 
ATOM      5  O   LIG    1       -0.734  -7.165   1.823  0.00  0.00    -0.920 OA
ATOM      6  O   LIG    1       -1.970  -6.383   3.806  0.00  0.00    -0.930 OA
ATOM      7  C   LIG    1        0.827  -4.384   2.160  0.00  0.00    +0.200 C 
ENDROOT
BRANCH   1   8
ATOM      8  N   LIG    1       -0.514  -2.567   1.248  0.00  0.00    -0.670 NA
ATOM      9  H   LIG    1        0.375  -2.108   1.380  0.00  0.00    +0.360 HD
BRANCH   8  10
ATOM     10  C   LIG    1       -1.154  -2.126   0.002  0.00  0.00    +0.200 C 
BRANCH  10  11
ATOM     11  C   LIG    1       -1.295  -0.603   0.011  0.00  0.00    +0.180 C 
BRANCH  11  13
ATOM     12  C   LIG    1       -0.017   1.425   0.010  0.00  0.00    +0.200 C 
ATOM     13  O   LIG    1        0.002  -0.004   0.002  0.00  0.00    -0.400 OA
ENDBRANCH  11  13
ENDBRANCH  10  11
ENDBRANCH   8  10
ENDBRANCH   1   8
BRANCH   7  14
ATOM     14  O   LIG    1        1.802  -5.061   1.365  0.00  0.00    -0.560 OA
ATOM     15  H   LIG    1        2.620  -5.267   1.837  0.00  0.00    +0.390 HD
ENDBRANCH   7  14
TORSDOF 5
ENDMDL
MODEL       87
REMARK  Name = ZINC000019789706
REMARK                            x       y       z     vdW  Elec       q    Type
REMARK                         _______ _______ _______ _____ _____    ______ ____
ROOT
ATOM      1  C   LIG    1       -0.361  -4.027   1.275  0.00  0.00    +0.200 C 
ATOM      2  C   LIG    1        0.960  -4.427   0.568  0.00  0.00    -0.340 C 
ATOM      3  S   LIG    1        1.207  -6.132   1.209  0.00  0.00    +2.400 S 
ATOM      4  C   LIG    1        0.546  -5.781   2.882  0.00  0.00    -0.340 C 
ATOM      5  O   LIG    1        2.598  -6.414   1.292  0.00  0.00    -0.930 OA
ATOM      6  O   LIG    1        0.338  -7.027   0.530  0.00  0.00    -0.920 OA
ATOM      7  C   LIG    1       -0.304  -4.513   2.724  0.00  0.00    +0.210 C 
ENDROOT
BRANCH   1   8
ATOM      8  N   LIG    1       -0.514  -2.567   1.248  0.00  0.00    -0.660 NA
ATOM      9  H   LIG    1        0.375  -2.108   1.380  0.00  0.00    +0.360 HD
BRANCH   8  10
ATOM     10  C   LIG    1       -1.154  -2.126   0.002  0.00  0.00    +0.190 C 
BRANCH  10  11
ATOM     11  C   LIG    1       -1.295  -0.603   0.011  0.00  0.00    +0.180 C 
BRANCH  11  13
ATOM     12  C   LIG    1       -0.017   1.425   0.010  0.00  0.00    +0.200 C 
ATOM     13  O   LIG    1        0.002  -0.004   0.002  0.00  0.00    -0.400 OA
ENDBRANCH  11  13
ENDBRANCH  10  11
ENDBRANCH   8  10
ENDBRANCH   1   8
BRANCH   7  14
ATOM     14  O   LIG    1       -1.634  -4.788   3.167  0.00  0.00    -0.550 OA
ATOM     15  H   LIG    1       -1.695  -5.041   4.098  0.00  0.00    +0.390 HD
ENDBRANCH   7  14
TORSDOF 5
ENDMDL
MODEL       88
REMARK  Name = ZINC000019789708
REMARK                            x       y       z     vdW  Elec       q    Type
REMARK                         _______ _______ _______ _____ _____    ______ ____
ROOT
ATOM      1  C   LIG    1       -0.361  -4.027   1.275  0.00  0.00    +0.200 C 
ATOM      2  C   LIG    1        0.960  -4.427   0.568  0.00  0.00    -0.340 C 
ATOM      3  S   LIG    1        1.207  -6.132   1.209  0.00  0.00    +2.390 S 
ATOM      4  C   LIG    1        0.546  -5.781   2.882  0.00  0.00    -0.340 C 
ATOM      5  O   LIG    1        2.598  -6.414   1.292  0.00  0.00    -0.930 OA
ATOM      6  O   LIG    1        0.338  -7.027   0.530  0.00  0.00    -0.930 OA
ATOM      7  C   LIG    1       -0.304  -4.513   2.724  0.00  0.00    +0.210 C 
ENDROOT
BRANCH   1   8
ATOM      8  N   LIG    1       -0.514  -2.567   1.248  0.00  0.00    -0.650 NA
ATOM      9  H   LIG    1        0.375  -2.108   1.380  0.00  0.00    +0.360 HD
BRANCH   8  10
ATOM     10  C   LIG    1       -1.154  -2.126   0.002  0.00  0.00    +0.180 C 
BRANCH  10  11
ATOM     11  C   LIG    1       -1.295  -0.603   0.011  0.00  0.00    +0.180 C 
BRANCH  11  13
ATOM     12  C   LIG    1       -0.017   1.425   0.010  0.00  0.00    +0.200 C 
ATOM     13  O   LIG    1        0.002  -0.004   0.002  0.00  0.00    -0.400 OA
ENDBRANCH  11  13
ENDBRANCH  10  11
ENDBRANCH   8  10
ENDBRANCH   1   8
BRANCH   7  14
ATOM     14  O   LIG    1        0.253  -3.478   3.538  0.00  0.00    -0.540 OA
ATOM     15  H   LIG    1        0.263  -3.683   4.483  0.00  0.00    +0.380 HD
ENDBRANCH   7  14
TORSDOF 5
ENDMDL
MODEL       89
REMARK  Name = ZINC000257346192
REMARK                            x       y       z     vdW  Elec       q    Type
REMARK                         _______ _______ _______ _____ _____    ______ ____
ROOT
ATOM      1  C   LIG    1       -1.335  -0.556  -0.251  0.00  0.00    +0.140 C 
ATOM      2  C   LIG    1       -2.281  -0.145   0.880  0.00  0.00    +0.350 C 
ATOM      3  O   LIG    1       -1.814  -0.695   2.114  0.00  0.00    -0.380 OA
ATOM      4  C   LIG    1       -1.763  -2.123   2.134  0.00  0.00    +0.160 C 
ATOM      5  C   LIG    1       -0.796  -2.613   1.053  0.00  0.00    +0.140 C 
ATOM      6  C   LIG    1       -1.255  -2.085  -0.311  0.00  0.00    +0.200 C 
ENDROOT
BRANCH   1   8
ATOM      7  C   LIG    1        1.006  -0.639  -0.862  0.00  0.00    +0.180 C 
ATOM      8  N   LIG    1        0.002  -0.004   0.002  0.00  0.00    -0.520 NA
ATOM      9  C   LIG    1        0.009   1.455  -0.167  0.00  0.00    +0.200 C 
ENDBRANCH   1   8
BRANCH   5  10
ATOM     10  O   LIG    1       -0.786  -4.042   1.034  0.00  0.00    -0.560 OA
ATOM     11  H   LIG    1       -0.509  -4.445   1.869  0.00  0.00    +0.380 HD
ENDBRANCH   5  10
BRANCH   2  12
ATOM     12  O   LIG    1       -2.318   1.280   0.976  0.00  0.00    -0.540 OA
ATOM     13  H   LIG    1       -2.899   1.612   1.674  0.00  0.00    +0.380 HD
ENDBRANCH   2  12
BRANCH   6  14
ATOM     14  O   LIG    1       -2.542  -2.621  -0.623  0.00  0.00    -0.560 OA
ATOM     15  H   LIG    1       -2.565  -3.587  -0.669  0.00  0.00    +0.390 HD
ENDBRANCH   6  14
BRANCH   4  16
ATOM     16  C   LIG    1       -1.278  -2.596   3.506  0.00  0.00    +0.200 C 
BRANCH  16  17
ATOM     17  O   LIG    1       -2.239  -2.238   4.501  0.00  0.00    -0.560 OA
ATOM     18  H   LIG    1       -1.996  -2.507   5.397  0.00  0.00    +0.380 HD
ENDBRANCH  16  17
ENDBRANCH   4  16
TORSDOF 6
ENDMDL
MODEL       90
REMARK  Name = ZINC000257346191
REMARK                            x       y       z     vdW  Elec       q    Type
REMARK                         _______ _______ _______ _____ _____    ______ ____
ROOT
ATOM      1  C   LIG    1       -1.311  -0.404  -0.473  0.00  0.00    +0.140 C 
ATOM      2  C   LIG    1       -2.287   0.210   0.535  0.00  0.00    +0.340 C 
ATOM      3  O   LIG    1       -2.052  -0.354   1.827  0.00  0.00    -0.380 OA
ATOM      4  C   LIG    1       -2.248  -1.768   1.891  0.00  0.00    +0.150 C 
ATOM      5  C   LIG    1       -1.270  -2.461   0.938  0.00  0.00    +0.120 C 
ATOM      6  C   LIG    1       -1.486  -1.925  -0.483  0.00  0.00    +0.190 C 
ENDROOT
BRANCH   1   8
ATOM      7  C   LIG    1        1.036  -0.843  -0.876  0.00  0.00    +0.180 C 
ATOM      8  N   LIG    1        0.067  -0.071  -0.087  0.00  0.00    -0.500 NA
ATOM      9  C   LIG    1        0.316   1.371  -0.214  0.00  0.00    +0.200 C 
ENDBRANCH   1   8
BRANCH   5  10
ATOM     10  O   LIG    1        0.071  -2.193   1.351  0.00  0.00    -0.520 OA
ATOM     11  H   LIG    1        0.267  -2.472   2.256  0.00  0.00    +0.370 HD
ENDBRANCH   5  10
BRANCH   2  12
ATOM     12  O   LIG    1       -2.090   1.624   0.589  0.00  0.00    -0.540 OA
ATOM     13  H   LIG    1       -2.676   2.079   1.208  0.00  0.00    +0.380 HD
ENDBRANCH   2  12
BRANCH   6  14
ATOM     14  O   LIG    1       -2.806  -2.253  -0.922  0.00  0.00    -0.560 OA
ATOM     15  H   LIG    1       -2.988  -3.203  -0.945  0.00  0.00    +0.390 HD
ENDBRANCH   6  14
BRANCH   4  16
ATOM     16  C   LIG    1       -1.998  -2.253   3.320  0.00  0.00    +0.200 C 
BRANCH  16  17
ATOM     17  O   LIG    1       -2.983  -1.696   4.192  0.00  0.00    -0.560 OA
ATOM     18  H   LIG    1       -2.886  -1.961   5.117  0.00  0.00    +0.380 HD
ENDBRANCH  16  17
ENDBRANCH   4  16
TORSDOF 6
ENDMDL
MODEL       91
REMARK  Name = ZINC000037487481
REMARK                            x       y       z     vdW  Elec       q    Type
REMARK                         _______ _______ _______ _____ _____    ______ ____
ROOT
ATOM      1  C   LIG    1        1.312  -2.473  -2.525  0.00  0.00    +0.200 C 
ATOM      2  C   LIG    1        2.821  -2.670  -2.226  0.00  0.00    -0.340 C 
ATOM      3  S   LIG    1        3.311  -3.800  -3.591  0.00  0.00    +2.400 S 
ATOM      4  C   LIG    1        1.737  -4.737  -3.608  0.00  0.00    -0.330 C 
ATOM      5  O   LIG    1        4.369  -4.643  -3.155  0.00  0.00    -0.930 OA
ATOM      6  O   LIG    1        3.440  -3.062  -4.798  0.00  0.00    -0.920 OA
ATOM      7  C   LIG    1        0.714  -3.825  -2.918  0.00  0.00    +0.210 C 
ENDROOT
BRANCH   1   8
ATOM      8  N   LIG    1        0.634  -1.962  -1.326  0.00  0.00    -0.660 NA
ATOM      9  H   LIG    1        1.009  -2.386  -0.490  0.00  0.00    +0.360 HD
BRANCH   8  10
ATOM     10  C   LIG    1        0.718  -0.497  -1.257  0.00  0.00    +0.190 C 
BRANCH  10  12
ATOM     11  C   LIG    1       -0.019   1.526   0.010  0.00  0.00    +0.000 C 
ATOM     12  C   LIG    1        0.002  -0.004   0.002  0.00  0.00    +0.170 C 
BRANCH  12  13
ATOM     13  O   LIG    1        0.693  -0.477   1.160  0.00  0.00    -0.570 OA
ATOM     14  H   LIG    1        0.294  -0.202   1.996  0.00  0.00    +0.380 HD
ENDBRANCH  12  13
ENDBRANCH  10  12
ENDBRANCH   8  10
ENDBRANCH   1   8
BRANCH   7  15
ATOM     15  O   LIG    1       -0.380  -3.598  -3.809  0.00  0.00    -0.550 OA
ATOM     16  H   LIG    1       -0.857  -4.401  -4.059  0.00  0.00    +0.390 HD
ENDBRANCH   7  15
TORSDOF 5
ENDMDL
MODEL       92
REMARK  Name = ZINC000037487479
REMARK                            x       y       z     vdW  Elec       q    Type
REMARK                         _______ _______ _______ _____ _____    ______ ____
ROOT
ATOM      1  C   LIG    1        1.312  -2.473  -2.525  0.00  0.00    +0.170 C 
ATOM      2  C   LIG    1        0.338  -2.406  -3.717  0.00  0.00    -0.280 C 
ATOM      3  S   LIG    1        0.800  -3.885  -4.707  0.00  0.00    +2.390 S 
ATOM      4  C   LIG    1        1.193  -4.915  -3.236  0.00  0.00    -0.330 C 
ATOM      5  O   LIG    1        1.987  -3.621  -5.442  0.00  0.00    -0.930 OA
ATOM      6  O   LIG    1       -0.349  -4.403  -5.364  0.00  0.00    -0.930 OA
ATOM      7  C   LIG    1        1.794  -3.893  -2.253  0.00  0.00    +0.190 C 
ENDROOT
BRANCH   1   8
ATOM      8  N   LIG    1        0.634  -1.962  -1.326  0.00  0.00    -0.660 NA
ATOM      9  H   LIG    1        1.009  -2.386  -0.490  0.00  0.00    +0.370 HD
BRANCH   8  10
ATOM     10  C   LIG    1        0.718  -0.497  -1.257  0.00  0.00    +0.190 C 
BRANCH  10  12
ATOM     11  C   LIG    1       -0.019   1.526   0.010  0.00  0.00    +0.000 C 
ATOM     12  C   LIG    1        0.002  -0.004   0.002  0.00  0.00    +0.170 C 
BRANCH  12  13
ATOM     13  O   LIG    1        0.693  -0.477   1.160  0.00  0.00    -0.570 OA
ATOM     14  H   LIG    1        0.294  -0.202   1.996  0.00  0.00    +0.380 HD
ENDBRANCH  12  13
ENDBRANCH  10  12
ENDBRANCH   8  10
ENDBRANCH   1   8
BRANCH   7  15
ATOM     15  O   LIG    1        1.425  -4.258  -0.921  0.00  0.00    -0.540 OA
ATOM     16  H   LIG    1        1.753  -5.125  -0.646  0.00  0.00    +0.390 HD
ENDBRANCH   7  15
TORSDOF 5
ENDMDL
MODEL       93
REMARK  Name = ZINC000003994216
REMARK                            x       y       z     vdW  Elec       q    Type
REMARK                         _______ _______ _______ _____ _____    ______ ____
ROOT
ATOM      1  C   LIG    1       -1.412  -0.526   0.013  0.00  0.00    +0.530 C 
ATOM      2  N   LIG    1       -1.640  -1.854   0.008  0.00  0.00    -0.610 N 
ATOM      3  C   LIG    1       -0.605  -2.904  -0.001  0.00  0.00    +0.260 C 
ATOM      4  C   LIG    1       -1.297  -4.148   0.609  0.00  0.00    +0.040 C 
ATOM      5  C   LIG    1       -2.731  -4.022   0.031  0.00  0.00    +0.050 C 
ATOM      6  C   LIG    1       -2.962  -2.496   0.017  0.00  0.00    +0.220 C 
ATOM      7  O   LIG    1       -2.344   0.250   0.026  0.00  0.00    -0.510 OA
ENDROOT
BRANCH   6   8
ATOM      8  C   LIG    1       -3.735  -2.083   1.243  0.00  0.00    +0.510 C 
ATOM      9  N   LIG    1       -4.975  -2.568   1.453  0.00  0.00    -0.720 N 
ATOM     10  H   LIG    1       -5.370  -3.183   0.815  0.00  0.00    +0.410 HD
ATOM     11  O   LIG    1       -3.241  -1.315   2.041  0.00  0.00    -0.510 OA
BRANCH   9  12
ATOM     12  C   LIG    1       -5.726  -2.167   2.645  0.00  0.00    +0.300 C 
BRANCH  12  13
ATOM     13  C   LIG    1       -7.073  -2.844   2.642  0.00  0.00    +0.510 C 
ATOM     14  O   LIG    1       -7.375  -3.589   1.734  0.00  0.00    -0.540 OA
ATOM     15  N   LIG    1       -7.941  -2.622   3.649  0.00  0.00    -0.850 N 
ATOM     16  H   LIG    1       -8.807  -3.058   3.647  0.00  0.00    +0.410 HD
ATOM     17  H   LIG    1       -7.699  -2.027   4.375  0.00  0.00    +0.410 HD
ENDBRANCH  12  13
ENDBRANCH   9  12
ENDBRANCH   6   8
BRANCH   1  18
ATOM     18  C   LIG    1        0.002  -0.004   0.002  0.00  0.00    +0.210 C 
BRANCH  18  19
ATOM     19  N   LIG    1       -0.018   1.465   0.010  0.00  0.00    -0.830 NA
ATOM     20  H   LIG    1       -0.556   1.823  -0.764  0.00  0.00    +0.350 HD
ATOM     21  H   LIG    1        0.919   1.839   0.003  0.00  0.00    +0.350 HD
ENDBRANCH  18  19
ENDBRANCH   1  18
TORSDOF 5
ENDMDL
MODEL       94
REMARK  Name = ZINC000004533504
REMARK                            x       y       z     vdW  Elec       q    Type
REMARK                         _______ _______ _______ _____ _____    ______ ____
ROOT
ATOM      1  CA  HIS A  2       -1.323   5.111   2.252  0.00  0.00    +0.170 C 
ENDROOT
BRANCH   1   3
ATOM      2  C   GLY A  1       -0.720   2.985   1.224  0.00  0.00    +0.490 C 
ATOM      3  N   HIS A  2       -1.303   3.646   2.244  0.00  0.00    -0.660 N 
ATOM      4  H   HIS A  2       -1.709   3.151   2.973  0.00  0.00    +0.400 HD
ATOM      5  O   GLY A  1       -0.211   3.604   0.313  0.00  0.00    -0.540 OA
BRANCH   2   6
ATOM      6  CA  GLY A  1       -0.699   1.479   1.216  0.00  0.00    +0.290 C 
BRANCH   6   7
ATOM      7  N   GLY A  1       -0.012   1.005   0.008  0.00  0.00    -0.620 N 
ATOM      8  H1  GLY A  1       -0.500   1.339  -0.810  0.00  0.00    +0.440 HD
ATOM      9  H2  GLY A  1        0.935   1.354   0.000  0.00  0.00    +0.440 HD
ATOM     10  H3  GLY A  1        0.002  -0.004   0.002  0.00  0.00    +0.440 HD
ENDBRANCH   6   7
ENDBRANCH   2   6
ENDBRANCH   1   3
BRANCH   1  11
ATOM     11  C   HIS A  2       -2.501   5.601   1.451  0.00  0.00    +0.490 C 
ATOM     12  OXT HIS A  2       -2.601   6.785   1.178  0.00  0.00    -0.680 OA
ATOM     13  O   HIS A  2       -3.354   4.815   1.077  0.00  0.00    -0.680 OA
ENDBRANCH   1  11
BRANCH   1  14
ATOM     14  CB  HIS A  2       -1.441   5.611   3.693  0.00  0.00    +0.150 C 
BRANCH  14  15
ATOM     15  CG  HIS A  2       -0.205   5.225   4.463  0.00  0.00    -0.010 A 
ATOM     16  CD2 HIS A  2        0.025   4.048   5.075  0.00  0.00    +0.120 A 
ATOM     17  NE2 HIS A  2        1.238   4.106   5.644  0.00  0.00    -0.500 NA
ATOM     18  CE1 HIS A  2        1.769   5.274   5.409  0.00  0.00    +0.390 A 
ATOM     19  ND1 HIS A  2        0.904   6.002   4.670  0.00  0.00    -0.560 N 
ATOM     20  HD1 HIS A  2        1.039   6.907   4.350  0.00  0.00    +0.420 HD
ENDBRANCH  14  15
ENDBRANCH   1  14
TORSDOF 6
ENDMDL
MODEL       95
REMARK  Name = ZINC000002036139
REMARK                            x       y       z     vdW  Elec       q    Type
REMARK                         _______ _______ _______ _____ _____    ______ ____
ROOT
ATOM      1  C   LIG    1        1.760  -2.310   2.502  0.00  0.00    +0.260 C 
ENDROOT
BRANCH   1   2
ATOM      2  C   LIG    1        3.219  -2.339   2.124  0.00  0.00    +0.510 C 
ATOM      3  O   LIG    1        3.565  -1.990   1.015  0.00  0.00    -0.530 OA
ATOM      4  N   LIG    1        4.138  -2.753   3.018  0.00  0.00    -0.850 N 
ATOM      5  H   LIG    1        5.077  -2.771   2.775  0.00  0.00    +0.400 HD
ATOM      6  H   LIG    1        3.861  -3.032   3.905  0.00  0.00    +0.400 HD
ENDBRANCH   1   2
BRANCH   1   8
ATOM      7  C   LIG    1        0.814  -0.502   1.170  0.00  0.00    +0.520 C 
ATOM      8  N   LIG    1        0.971  -1.826   1.366  0.00  0.00    -0.710 N 
ATOM      9  H   LIG    1        0.562  -2.459   0.755  0.00  0.00    +0.400 HD
ATOM     10  O   LIG    1        1.325   0.289   1.934  0.00  0.00    -0.520 OA
BRANCH   7  11
ATOM     11  C   LIG    1        0.002  -0.004   0.002  0.00  0.00    +0.210 C 
BRANCH  11  12
ATOM     12  N   LIG    1       -0.018   1.465   0.010  0.00  0.00    -0.830 NA
ATOM     13  H   LIG    1       -0.556   1.823  -0.764  0.00  0.00    +0.350 HD
ATOM     14  H   LIG    1        0.919   1.839   0.003  0.00  0.00    +0.350 HD
ENDBRANCH  11  12
ENDBRANCH   7  11
ENDBRANCH   1   8
BRANCH   1  15
ATOM     15  C   LIG    1        1.302  -3.721   2.876  0.00  0.00    +0.110 C 
BRANCH  15  16
ATOM     16  C   LIG    1       -0.121  -3.673   3.371  0.00  0.00    -0.100 A 
ATOM     17  C   LIG    1       -0.378  -3.476   4.715  0.00  0.00    +0.030 A 
ATOM     18  C   LIG    1       -1.681  -3.431   5.171  0.00  0.00    -0.010 A 
ATOM     19  C   LIG    1       -2.732  -3.584   4.279  0.00  0.00    +0.110 A 
ATOM     20  C   LIG    1       -2.472  -3.781   2.930  0.00  0.00    -0.010 A 
ATOM     21  C   LIG    1       -1.167  -3.820   2.479  0.00  0.00    +0.030 A 
BRANCH  19  22
ATOM     22  O   LIG    1       -4.015  -3.540   4.725  0.00  0.00    -0.500 OA
ATOM     23  H   LIG    1       -4.402  -2.654   4.723  0.00  0.00    +0.390 HD
ENDBRANCH  19  22
ENDBRANCH  15  16
ENDBRANCH   1  15
TORSDOF 7
ENDMDL
MODEL       96
REMARK  Name = ZINC000004533503
REMARK                            x       y       z     vdW  Elec       q    Type
REMARK                         _______ _______ _______ _____ _____    ______ ____
ROOT
ATOM      1  CA  HIS A  2       -1.323   5.111   2.252  0.00  0.00    +0.180 C 
ENDROOT
BRANCH   1   3
ATOM      2  C   GLY A  1       -0.720   2.985   1.224  0.00  0.00    +0.490 C 
ATOM      3  N   HIS A  2       -1.303   3.646   2.244  0.00  0.00    -0.660 N 
ATOM      4  H   HIS A  2       -1.709   3.151   2.973  0.00  0.00    +0.400 HD
ATOM      5  O   GLY A  1       -0.211   3.604   0.313  0.00  0.00    -0.530 OA
BRANCH   2   6
ATOM      6  CA  GLY A  1       -0.699   1.479   1.216  0.00  0.00    +0.280 C 
BRANCH   6   7
ATOM      7  N   GLY A  1       -0.012   1.005   0.008  0.00  0.00    -0.620 N 
ATOM      8  H1  GLY A  1       -0.500   1.339  -0.810  0.00  0.00    +0.440 HD
ATOM      9  H2  GLY A  1        0.935   1.354   0.000  0.00  0.00    +0.440 HD
ATOM     10  H3  GLY A  1        0.002  -0.004   0.002  0.00  0.00    +0.440 HD
ENDBRANCH   6   7
ENDBRANCH   2   6
ENDBRANCH   1   3
BRANCH   1  11
ATOM     11  C   HIS A  2       -0.036   5.627   2.844  0.00  0.00    +0.490 C 
ATOM     12  OXT HIS A  2        0.555   4.972   3.685  0.00  0.00    -0.690 OA
ATOM     13  O   HIS A  2        0.414   6.701   2.481  0.00  0.00    -0.670 OA
ENDBRANCH   1  11
BRANCH   1  14
ATOM     14  CB  HIS A  2       -2.503   5.600   3.094  0.00  0.00    +0.150 C 
BRANCH  14  15
ATOM     15  CG  HIS A  2       -3.794   5.188   2.436  0.00  0.00    -0.010 A 
ATOM     16  CD2 HIS A  2       -4.443   5.847   1.457  0.00  0.00    +0.150 A 
ATOM     17  NE2 HIS A  2       -5.548   5.152   1.150  0.00  0.00    -0.490 NA
ATOM     18  CE1 HIS A  2       -5.609   4.086   1.901  0.00  0.00    +0.380 A 
ATOM     19  ND1 HIS A  2       -4.530   4.067   2.713  0.00  0.00    -0.570 N 
ATOM     20  HD1 HIS A  2       -4.320   3.390   3.375  0.00  0.00    +0.410 HD
ENDBRANCH  14  15
ENDBRANCH   1  14
TORSDOF 6
ENDMDL
MODEL       97
REMARK  Name = ZINC000019794148
REMARK                            x       y       z     vdW  Elec       q    Type
REMARK                         _______ _______ _______ _____ _____    ______ ____
ROOT
ATOM      1  C   LIG    1        0.877  -0.392  -1.539  0.00  0.00    +0.590 C 
ATOM      2  N   LIG    1        2.220   0.200  -1.504  0.00  0.00    -0.630 N 
ATOM      3  H   LIG    1        2.998  -0.352  -1.330  0.00  0.00    +0.440 HD
ATOM      4  N   LIG    1        2.358   1.581  -1.729  0.00  0.00    -0.160 NA
ATOM      5  C   LIG    1        1.500   2.182  -2.506  0.00  0.00    +0.230 C 
ATOM      6  C   LIG    1        0.398   1.421  -3.096  0.00  0.00    +0.530 C 
ATOM      7  O   LIG    1       -0.285   1.923  -3.969  0.00  0.00    -0.510 OA
ATOM      8  N   LIG    1        0.138   0.167  -2.677  0.00  0.00    -0.710 N 
ATOM      9  H   LIG    1       -0.536  -0.365  -3.127  0.00  0.00    +0.420 HD
ENDROOT
BRANCH   1  11
ATOM     10  C   LIG    1       -0.022   1.810   0.012  0.00  0.00    +0.160 C 
ATOM     11  S   LIG    1        0.002  -0.004   0.002  0.00  0.00    -0.300 S 
ENDBRANCH   1  11
BRANCH   1  12
ATOM     12  N   LIG    1        0.983  -1.849  -1.691  0.00  0.00    -0.650 NA
ATOM     13  H   LIG    1        0.071  -2.270  -1.786  0.00  0.00    +0.370 HD
BRANCH  12  14
ATOM     14  C   LIG    1        1.723  -2.442  -0.569  0.00  0.00    +0.210 C 
BRANCH  14  15
ATOM     15  C   LIG    1        1.813  -3.958  -0.762  0.00  0.00    +0.190 C 
BRANCH  15  16
ATOM     16  N   LIG    1        2.552  -4.551   0.360  0.00  0.00    -0.540 NA
ATOM     17  C   LIG    1        2.865  -5.962   0.097  0.00  0.00    +0.190 C 
ATOM     18  C   LIG    1        1.808  -4.402   1.619  0.00  0.00    +0.190 C 
ENDBRANCH  15  16
ENDBRANCH  14  15
ENDBRANCH  12  14
ENDBRANCH   1  12
TORSDOF 5
ENDMDL
MODEL       98
REMARK  Name = ZINC000019794147
REMARK                            x       y       z     vdW  Elec       q    Type
REMARK                         _______ _______ _______ _____ _____    ______ ____
ROOT
ATOM      1  C   LIG    1        0.877  -0.392  -1.539  0.00  0.00    +0.570 C 
ATOM      2  N   LIG    1        0.144   0.178  -2.677  0.00  0.00    -0.670 N 
ATOM      3  H   LIG    1       -0.399  -0.388  -3.248  0.00  0.00    +0.430 HD
ATOM      4  N   LIG    1        0.243   1.559  -2.924  0.00  0.00    -0.160 NA
ATOM      5  C   LIG    1        1.342   2.180  -2.595  0.00  0.00    +0.230 C 
ATOM      6  C   LIG    1        2.428   1.442  -1.950  0.00  0.00    +0.520 C 
ATOM      7  O   LIG    1        3.520   1.963  -1.819  0.00  0.00    -0.510 OA
ATOM      8  N   LIG    1        2.223   0.189  -1.499  0.00  0.00    -0.720 N 
ATOM      9  H   LIG    1        2.965  -0.328  -1.149  0.00  0.00    +0.420 HD
ENDROOT
BRANCH   1  11
ATOM     10  C   LIG    1       -0.022   1.810   0.012  0.00  0.00    +0.140 C 
ATOM     11  S   LIG    1        0.002  -0.004   0.002  0.00  0.00    -0.190 S 
ENDBRANCH   1  11
BRANCH   1  12
ATOM     12  N   LIG    1        0.975  -1.849  -1.696  0.00  0.00    -0.660 NA
ATOM     13  H   LIG    1        1.514  -2.090  -2.514  0.00  0.00    +0.360 HD
BRANCH  12  14
ATOM     14  C   LIG    1       -0.359  -2.464  -1.744  0.00  0.00    +0.210 C 
BRANCH  14  15
ATOM     15  C   LIG    1       -0.216  -3.979  -1.907  0.00  0.00    +0.190 C 
BRANCH  15  16
ATOM     16  N   LIG    1       -1.549  -4.594  -1.956  0.00  0.00    -0.540 NA
ATOM     17  C   LIG    1       -1.457  -6.058  -1.873  0.00  0.00    +0.190 C 
ATOM     18  C   LIG    1       -2.276  -4.179  -3.163  0.00  0.00    +0.190 C 
ENDBRANCH  15  16
ENDBRANCH  14  15
ENDBRANCH  12  14
ENDBRANCH   1  12
TORSDOF 5
ENDMDL
MODEL       99
REMARK  Name = ZINC000002040854
REMARK                            x       y       z     vdW  Elec       q    Type
REMARK                         _______ _______ _______ _____ _____    ______ ____
ROOT
ATOM      1  CA  HIS A  1       -2.250   5.289   3.892  0.00  0.00    +0.192 C 
ENDROOT
BRANCH   1   3
ATOM      2  C   UNK A  0       -1.425   3.494   2.465  0.00  0.00    +0.219 C 
ATOM      3  N   HIS A  1       -1.564   4.816   2.686  0.00  0.00    -0.302 N 
ATOM      4  H   HIS A  1       -1.210   5.455   2.048  0.00  0.00    +0.150 HD
ATOM      5  O   UNK A  0       -1.868   2.696   3.263  0.00  0.00    -0.276 OA
BRANCH   2   6
ATOM      6  C   UNK A  0       -0.720   3.008   1.225  0.00  0.00    +0.146 C 
BRANCH   6   7
ATOM      7  C   UNK A  0       -0.699   1.479   1.216  0.00  0.00    +0.137 C 
BRANCH   7   8
ATOM      8  N   UNK A  0       -0.012   1.005   0.008  0.00  0.00    +0.219 N 
ATOM      9  H   UNK A  0       -0.500   1.339  -0.810  0.00  0.00    +0.199 HD
ATOM     10  H   UNK A  0        0.935   1.354   0.000  0.00  0.00    +0.199 HD
ATOM     11  H   UNK A  0        0.002  -0.004   0.002  0.00  0.00    +0.199 HD
ENDBRANCH   7   8
ENDBRANCH   6   7
ENDBRANCH   2   6
ENDBRANCH   1   3
BRANCH   1  12
ATOM     12  C   HIS A  1       -3.736   5.321   3.644  0.00  0.00    +0.376 C 
ATOM     13  OXT HIS A  1       -4.163   5.525   2.520  0.00  0.00    -0.244 OA
ATOM     14  O   HIS A  1       -4.512   5.142   4.568  0.00  0.00    -0.244 OA
ENDBRANCH   1  12
BRANCH   1  15
ATOM     15  CB  HIS A  1       -1.760   6.696   4.238  0.00  0.00    +0.088 C 
BRANCH  15  16
ATOM     16  CG  HIS A  1       -0.300   6.644   4.605  0.00  0.00    +0.038 A 
ATOM     17  CD2 HIS A  1        0.214   6.355   5.816  0.00  0.00    +0.133 A 
ATOM     18  NE2 HIS A  1        1.551   6.414   5.725  0.00  0.00    -0.244 NA
ATOM     19  CE1 HIS A  1        1.885   6.728   4.503  0.00  0.00    +0.196 A 
ATOM     20  ND1 HIS A  1        0.760   6.875   3.770  0.00  0.00    -0.348 N 
ATOM     21  HD1 HIS A  1        0.712   7.107   2.830  0.00  0.00    +0.166 HD
ENDBRANCH  15  16
ENDBRANCH   1  15
TORSDOF 7
ENDMDL
MODEL      100
REMARK  Name = ZINC000100004300
REMARK                            x       y       z     vdW  Elec       q    Type
REMARK                         _______ _______ _______ _____ _____    ______ ____
ROOT
ATOM      1  C   UNK A  0       -2.840   1.435   2.467  0.00  0.00    +0.219 C 
ATOM      2  N   HIS A  1       -4.124   1.091   2.691  0.00  0.00    -0.302 N 
ATOM      3  H   HIS A  1       -4.593   0.530   2.054  0.00  0.00    +0.150 HD
ATOM      4  O   UNK A  0       -2.252   2.136   3.264  0.00  0.00    -0.276 OA
ENDROOT
BRANCH   1   5
ATOM      5  C   UNK A  0       -2.135   0.949   1.227  0.00  0.00    +0.146 C 
BRANCH   5   6
ATOM      6  C   UNK A  0       -0.699   1.479   1.216  0.00  0.00    +0.137 C 
BRANCH   6   7
ATOM      7  N   UNK A  0       -0.012   1.005   0.008  0.00  0.00    +0.219 N 
ATOM      8  H   UNK A  0       -0.500   1.339  -0.810  0.00  0.00    +0.199 HD
ATOM      9  H   UNK A  0        0.935   1.354   0.000  0.00  0.00    +0.199 HD
ATOM     10  H   UNK A  0        0.002  -0.004   0.002  0.00  0.00    +0.199 HD
ENDBRANCH   6   7
ENDBRANCH   5   6
ENDBRANCH   1   5
BRANCH   2  11
ATOM     11  CA  HIS A  1       -4.809   1.563   3.896  0.00  0.00    +0.189 C 
BRANCH  11  12
ATOM     12  C   HIS A  1       -4.511   0.631   5.042  0.00  0.00    +0.376 C 
ATOM     13  OXT HIS A  1       -4.294  -0.549   4.827  0.00  0.00    -0.244 OA
ATOM     14  O   HIS A  1       -4.486   1.057   6.184  0.00  0.00    -0.244 OA
ENDBRANCH  11  12
BRANCH  11  15
ATOM     15  CB  HIS A  1       -6.318   1.596   3.645  0.00  0.00    +0.066 C 
BRANCH  15  16
ATOM     16  CG  HIS A  1       -6.633   2.634   2.566  0.00  0.00    +0.150 C 
ATOM     17  CD2 HIS A  1       -8.116   2.643   2.249  0.00  0.00    +0.112 C 
ATOM     18  NE2 HIS A  1       -8.526   3.833   2.554  0.00  0.00    -0.246 NA
ATOM     19  CE1 HIS A  1       -7.528   4.610   3.026  0.00  0.00    +0.215 C 
ATOM     20  ND1 HIS A  1       -6.386   3.998   3.068  0.00  0.00    -0.263 NA
ENDBRANCH  15  16
ENDBRANCH  11  15
ENDBRANCH   2  11
TORSDOF 7
ENDMDL
MODEL      101
REMARK  Name = ZINC000100004300
REMARK                            x       y       z     vdW  Elec       q    Type
REMARK                         _______ _______ _______ _____ _____    ______ ____
ROOT
ATOM      1  CA  HIS A  1       -2.250   5.289   3.892  0.00  0.00    +0.192 C 
ENDROOT
BRANCH   1   3
ATOM      2  C   UNK A  0       -1.425   3.494   2.465  0.00  0.00    +0.219 C 
ATOM      3  N   HIS A  1       -1.564   4.816   2.686  0.00  0.00    -0.302 N 
ATOM      4  H   HIS A  1       -1.210   5.455   2.048  0.00  0.00    +0.150 HD
ATOM      5  O   UNK A  0       -1.868   2.696   3.263  0.00  0.00    -0.276 OA
BRANCH   2   6
ATOM      6  C   UNK A  0       -0.720   3.008   1.225  0.00  0.00    +0.146 C 
BRANCH   6   7
ATOM      7  C   UNK A  0       -0.699   1.479   1.216  0.00  0.00    +0.137 C 
BRANCH   7   8
ATOM      8  N   UNK A  0       -0.012   1.005   0.008  0.00  0.00    +0.219 N 
ATOM      9  H   UNK A  0       -0.500   1.339  -0.810  0.00  0.00    +0.199 HD
ATOM     10  H   UNK A  0        0.935   1.354   0.000  0.00  0.00    +0.199 HD
ATOM     11  H   UNK A  0        0.002  -0.004   0.002  0.00  0.00    +0.199 HD
ENDBRANCH   7   8
ENDBRANCH   6   7
ENDBRANCH   2   6
ENDBRANCH   1   3
BRANCH   1  12
ATOM     12  C   HIS A  1       -3.736   5.321   3.644  0.00  0.00    +0.376 C 
ATOM     13  OXT HIS A  1       -4.163   5.525   2.520  0.00  0.00    -0.244 OA
ATOM     14  O   HIS A  1       -4.512   5.142   4.568  0.00  0.00    -0.244 OA
ENDBRANCH   1  12
BRANCH   1  15
ATOM     15  CB  HIS A  1       -1.760   6.696   4.238  0.00  0.00    +0.088 C 
BRANCH  15  16
ATOM     16  CG  HIS A  1       -0.300   6.644   4.605  0.00  0.00    +0.038 A 
ATOM     17  CD2 HIS A  1        0.214   6.355   5.816  0.00  0.00    +0.133 A 
ATOM     18  NE2 HIS A  1        1.551   6.414   5.725  0.00  0.00    -0.244 NA
ATOM     19  CE1 HIS A  1        1.885   6.728   4.503  0.00  0.00    +0.196 A 
ATOM     20  ND1 HIS A  1        0.760   6.875   3.770  0.00  0.00    -0.348 N 
ATOM     21  HD1 HIS A  1        0.712   7.107   2.830  0.00  0.00    +0.166 HD
ENDBRANCH  15  16
ENDBRANCH   1  15
TORSDOF 7
ENDMDL
MODEL      102
REMARK  Name = ZINC000100004298
REMARK                            x       y       z     vdW  Elec       q    Type
REMARK                         _______ _______ _______ _____ _____    ______ ____
ROOT
ATOM      1  C   UNK A  0       -2.840   1.435   2.467  0.00  0.00    +0.219 C 
ATOM      2  N   HIS A  1       -4.124   1.091   2.691  0.00  0.00    -0.302 N 
ATOM      3  H   HIS A  1       -4.593   0.530   2.054  0.00  0.00    +0.150 HD
ATOM      4  O   UNK A  0       -2.252   2.136   3.264  0.00  0.00    -0.276 OA
ENDROOT
BRANCH   1   5
ATOM      5  C   UNK A  0       -2.135   0.949   1.227  0.00  0.00    +0.146 C 
BRANCH   5   6
ATOM      6  C   UNK A  0       -0.699   1.479   1.216  0.00  0.00    +0.137 C 
BRANCH   6   7
ATOM      7  N   UNK A  0       -0.012   1.005   0.008  0.00  0.00    +0.219 N 
ATOM      8  H   UNK A  0       -0.500   1.339  -0.810  0.00  0.00    +0.199 HD
ATOM      9  H   UNK A  0        0.935   1.354   0.000  0.00  0.00    +0.199 HD
ATOM     10  H   UNK A  0        0.002  -0.004   0.002  0.00  0.00    +0.199 HD
ENDBRANCH   6   7
ENDBRANCH   5   6
ENDBRANCH   1   5
BRANCH   2  11
ATOM     11  CA  HIS A  1       -4.809   1.563   3.896  0.00  0.00    +0.189 C 
BRANCH  11  12
ATOM     12  C   HIS A  1       -4.511   0.631   5.042  0.00  0.00    +0.376 C 
ATOM     13  OXT HIS A  1       -4.294  -0.549   4.827  0.00  0.00    -0.244 OA
ATOM     14  O   HIS A  1       -4.486   1.057   6.184  0.00  0.00    -0.244 OA
ENDBRANCH  11  12
BRANCH  11  15
ATOM     15  CB  HIS A  1       -6.318   1.596   3.645  0.00  0.00    +0.066 C 
BRANCH  15  16
ATOM     16  CG  HIS A  1       -6.633   2.634   2.566  0.00  0.00    +0.150 C 
ATOM     17  CD2 HIS A  1       -8.130   2.736   2.342  0.00  0.00    +0.112 C 
ATOM     18  NE2 HIS A  1       -8.316   2.394   1.106  0.00  0.00    -0.246 NA
ATOM     19  CE1 HIS A  1       -7.159   2.083   0.484  0.00  0.00    +0.215 C 
ATOM     20  ND1 HIS A  1       -6.123   2.195   1.256  0.00  0.00    -0.263 NA
ENDBRANCH  15  16
ENDBRANCH  11  15
ENDBRANCH   2  11
TORSDOF 7
ENDMDL
MODEL      103
REMARK  Name = ZINC000100004298
REMARK                            x       y       z     vdW  Elec       q    Type
REMARK                         _______ _______ _______ _____ _____    ______ ____
ROOT
ATOM      1  CA  HIS A  1       -2.250   5.289   3.892  0.00  0.00    +0.192 C 
ENDROOT
BRANCH   1   3
ATOM      2  C   UNK A  0       -1.425   3.494   2.465  0.00  0.00    +0.219 C 
ATOM      3  N   HIS A  1       -1.564   4.816   2.686  0.00  0.00    -0.302 N 
ATOM      4  H   HIS A  1       -1.210   5.455   2.048  0.00  0.00    +0.150 HD
ATOM      5  O   UNK A  0       -1.868   2.696   3.263  0.00  0.00    -0.276 OA
BRANCH   2   6
ATOM      6  C   UNK A  0       -0.720   3.008   1.225  0.00  0.00    +0.146 C 
BRANCH   6   7
ATOM      7  C   UNK A  0       -0.699   1.479   1.216  0.00  0.00    +0.137 C 
BRANCH   7   8
ATOM      8  N   UNK A  0       -0.012   1.005   0.008  0.00  0.00    +0.219 N 
ATOM      9  H   UNK A  0       -0.500   1.339  -0.810  0.00  0.00    +0.199 HD
ATOM     10  H   UNK A  0        0.935   1.354   0.000  0.00  0.00    +0.199 HD
ATOM     11  H   UNK A  0        0.002  -0.004   0.002  0.00  0.00    +0.199 HD
ENDBRANCH   7   8
ENDBRANCH   6   7
ENDBRANCH   2   6
ENDBRANCH   1   3
BRANCH   1  12
ATOM     12  C   HIS A  1       -3.736   5.321   3.644  0.00  0.00    +0.376 C 
ATOM     13  OXT HIS A  1       -4.163   5.525   2.520  0.00  0.00    -0.244 OA
ATOM     14  O   HIS A  1       -4.512   5.142   4.568  0.00  0.00    -0.244 OA
ENDBRANCH   1  12
BRANCH   1  15
ATOM     15  CB  HIS A  1       -1.760   6.696   4.238  0.00  0.00    +0.088 C 
BRANCH  15  16
ATOM     16  CG  HIS A  1       -0.300   6.644   4.605  0.00  0.00    +0.038 A 
ATOM     17  CD2 HIS A  1        0.214   6.355   5.816  0.00  0.00    +0.133 A 
ATOM     18  NE2 HIS A  1        1.551   6.414   5.725  0.00  0.00    -0.244 NA
ATOM     19  CE1 HIS A  1        1.885   6.728   4.503  0.00  0.00    +0.196 A 
ATOM     20  ND1 HIS A  1        0.760   6.875   3.770  0.00  0.00    -0.348 N 
ATOM     21  HD1 HIS A  1        0.712   7.107   2.830  0.00  0.00    +0.166 HD
ENDBRANCH  15  16
ENDBRANCH   1  15
TORSDOF 7
ENDMDL
MODEL      104
REMARK  Name = ZINC000008583964
REMARK                            x       y       z     vdW  Elec       q    Type
REMARK                         _______ _______ _______ _____ _____    ______ ____
ROOT
ATOM      1  CA  HIS A  1       -2.250   5.289   3.892  0.00  0.00    +0.192 C 
ENDROOT
BRANCH   1   3
ATOM      2  C   UNK A  0       -1.425   3.494   2.465  0.00  0.00    +0.219 C 
ATOM      3  N   HIS A  1       -1.564   4.816   2.686  0.00  0.00    -0.302 N 
ATOM      4  H   HIS A  1       -1.210   5.455   2.048  0.00  0.00    +0.150 HD
ATOM      5  O   UNK A  0       -1.868   2.696   3.263  0.00  0.00    -0.276 OA
BRANCH   2   6
ATOM      6  C   UNK A  0       -0.720   3.008   1.225  0.00  0.00    +0.146 C 
BRANCH   6   7
ATOM      7  C   UNK A  0       -0.699   1.479   1.216  0.00  0.00    +0.137 C 
BRANCH   7   8
ATOM      8  N   UNK A  0       -0.012   1.005   0.008  0.00  0.00    +0.219 N 
ATOM      9  H   UNK A  0       -0.500   1.339  -0.810  0.00  0.00    +0.199 HD
ATOM     10  H   UNK A  0        0.935   1.354   0.000  0.00  0.00    +0.199 HD
ATOM     11  H   UNK A  0        0.002  -0.004   0.002  0.00  0.00    +0.199 HD
ENDBRANCH   7   8
ENDBRANCH   6   7
ENDBRANCH   2   6
ENDBRANCH   1   3
BRANCH   1  12
ATOM     12  C   HIS A  1       -1.272   5.347   5.036  0.00  0.00    +0.376 C 
ATOM     13  OXT HIS A  1       -1.672   5.539   6.172  0.00  0.00    -0.244 OA
ATOM     14  O   HIS A  1       -0.079   5.201   4.827  0.00  0.00    -0.244 OA
ENDBRANCH   1  12
BRANCH   1  15
ATOM     15  CB  HIS A  1       -2.822   6.685   3.639  0.00  0.00    +0.088 C 
BRANCH  15  16
ATOM     16  CG  HIS A  1       -3.889   6.606   2.578  0.00  0.00    +0.038 A 
ATOM     17  CD2 HIS A  1       -3.700   6.633   1.245  0.00  0.00    +0.133 A 
ATOM     18  NE2 HIS A  1       -4.900   6.539   0.653  0.00  0.00    -0.244 NA
ATOM     19  CE1 HIS A  1       -5.826   6.456   1.569  0.00  0.00    +0.196 A 
ATOM     20  ND1 HIS A  1       -5.237   6.489   2.784  0.00  0.00    -0.348 N 
ATOM     21  HD1 HIS A  1       -5.687   6.443   3.642  0.00  0.00    +0.166 HD
ENDBRANCH  15  16
ENDBRANCH   1  15
TORSDOF 7
ENDMDL
MODEL      105
REMARK  Name = ZINC000038083711
REMARK                            x       y       z     vdW  Elec       q    Type
REMARK                         _______ _______ _______ _____ _____    ______ ____
ROOT
ATOM      1  C   LIG    1        0.731  -0.503   1.223  0.00  0.00    +0.520 C 
ATOM      2  N   LIG    1        0.278  -0.191   2.453  0.00  0.00    -0.730 N 
ATOM      3  H   LIG    1       -0.517   0.356   2.553  0.00  0.00    +0.400 HD
ATOM      4  O   LIG    1        1.725  -1.187   1.099  0.00  0.00    -0.520 OA
ENDROOT
BRANCH   1   6
ATOM      5  C   LIG    1       -0.019   1.526   0.010  0.00  0.00    +0.010 C 
ATOM      6  C   LIG    1        0.002  -0.004   0.002  0.00  0.00    +0.180 C 
BRANCH   6   7
ATOM      7  N   LIG    1        0.690  -0.478  -1.207  0.00  0.00    -0.830 NA
ATOM      8  H   LIG    1        1.658  -0.195  -1.206  0.00  0.00    +0.350 HD
ATOM      9  H   LIG    1        0.220  -0.156  -2.039  0.00  0.00    +0.350 HD
ENDBRANCH   6   7
ENDBRANCH   1   6
BRANCH   2  10
ATOM     10  C   LIG    1        0.986  -0.676   3.640  0.00  0.00    +0.290 C 
BRANCH  10  11
ATOM     11  C   LIG    1        0.270  -0.182   4.899  0.00  0.00    +0.010 C 
ATOM     12  C   LIG    1       -1.120  -0.835   4.992  0.00  0.00    +0.070 C 
ATOM     13  C   LIG    1       -1.643  -0.561   6.426  0.00  0.00    -0.310 C 
ATOM     14  S   LIG    1       -0.158  -0.864   7.457  0.00  0.00    +2.390 S 
ATOM     15  O   LIG    1       -0.126  -2.229   7.848  0.00  0.00    -0.930 OA
ATOM     16  O   LIG    1       -0.051   0.157   8.440  0.00  0.00    -0.940 OA
ATOM     17  C   LIG    1        1.084  -0.578   6.147  0.00  0.00    -0.310 C 
ENDBRANCH  10  11
ENDBRANCH   2  10
TORSDOF 4
ENDMDL
MODEL      106
REMARK  Name = ZINC000038083708
REMARK                            x       y       z     vdW  Elec       q    Type
REMARK                         _______ _______ _______ _____ _____    ______ ____
ROOT
ATOM      1  C   LIG    1        0.707  -0.490  -1.238  0.00  0.00    +0.520 C 
ATOM      2  N   LIG    1        0.231  -0.164  -2.456  0.00  0.00    -0.730 N 
ATOM      3  H   LIG    1       -0.566   0.383  -2.534  0.00  0.00    +0.400 HD
ATOM      4  O   LIG    1        1.704  -1.174  -1.140  0.00  0.00    -0.520 OA
ENDROOT
BRANCH   1   6
ATOM      5  C   LIG    1       -0.019   1.526   0.010  0.00  0.00    +0.060 C 
ATOM      6  C   LIG    1        0.002  -0.004   0.002  0.00  0.00    +0.130 C 
BRANCH   6   7
ATOM      7  N   LIG    1        0.713  -0.491   1.192  0.00  0.00    -0.830 NA
ATOM      8  H   LIG    1        0.796  -1.496   1.177  0.00  0.00    +0.350 HD
ATOM      9  H   LIG    1        0.259  -0.178   2.037  0.00  0.00    +0.350 HD
ENDBRANCH   6   7
ENDBRANCH   1   6
BRANCH   2  10
ATOM     10  C   LIG    1        0.917  -0.637  -3.661  0.00  0.00    +0.290 C 
BRANCH  10  11
ATOM     11  C   LIG    1        0.177  -0.130  -4.901  0.00  0.00    +0.000 C 
ATOM     12  C   LIG    1       -1.208  -0.794  -4.996  0.00  0.00    +0.070 C 
ATOM     13  C   LIG    1       -1.783  -0.538  -6.403  0.00  0.00    -0.310 C 
ATOM     14  S   LIG    1       -0.323  -0.356  -7.489  0.00  0.00    +2.390 S 
ATOM     15  O   LIG    1       -0.286   0.965  -8.012  0.00  0.00    -0.930 OA
ATOM     16  O   LIG    1       -0.249  -1.468  -8.370  0.00  0.00    -0.930 OA
ATOM     17  C   LIG    1        0.952  -0.530  -6.182  0.00  0.00    -0.310 C 
ENDBRANCH  10  11
ENDBRANCH   2  10
TORSDOF 4
ENDMDL
MODEL      107
REMARK  Name = ZINC000038083710
REMARK                            x       y       z     vdW  Elec       q    Type
REMARK                         _______ _______ _______ _____ _____    ______ ____
ROOT
ATOM      1  C   LIG    1        0.707  -0.490  -1.238  0.00  0.00    +0.520 C 
ATOM      2  N   LIG    1        0.231  -0.164  -2.456  0.00  0.00    -0.730 N 
ATOM      3  H   LIG    1       -0.566   0.383  -2.534  0.00  0.00    +0.400 HD
ATOM      4  O   LIG    1        1.704  -1.174  -1.140  0.00  0.00    -0.520 OA
ENDROOT
BRANCH   1   6
ATOM      5  C   LIG    1       -0.019   1.526   0.010  0.00  0.00    +0.060 C 
ATOM      6  C   LIG    1        0.002  -0.004   0.002  0.00  0.00    +0.130 C 
BRANCH   6   7
ATOM      7  N   LIG    1        0.713  -0.491   1.192  0.00  0.00    -0.830 NA
ATOM      8  H   LIG    1        0.796  -1.496   1.177  0.00  0.00    +0.350 HD
ATOM      9  H   LIG    1        0.259  -0.178   2.037  0.00  0.00    +0.350 HD
ENDBRANCH   6   7
ENDBRANCH   1   6
BRANCH   2  10
ATOM     10  C   LIG    1        0.917  -0.637  -3.661  0.00  0.00    +0.290 C 
BRANCH  10  11
ATOM     11  C   LIG    1        0.177  -0.130  -4.901  0.00  0.00    +0.010 C 
ATOM     12  C   LIG    1        0.285   1.403  -4.977  0.00  0.00    +0.070 C 
ATOM     13  C   LIG    1       -0.183   1.811  -6.398  0.00  0.00    -0.310 C 
ATOM     14  S   LIG    1        0.613   0.546  -7.459  0.00  0.00    +2.390 S 
ATOM     15  O   LIG    1        1.892   1.011  -7.867  0.00  0.00    -0.930 OA
ATOM     16  O   LIG    1       -0.319   0.092  -8.431  0.00  0.00    -0.940 OA
ATOM     17  C   LIG    1        0.815  -0.732  -6.168  0.00  0.00    -0.310 C 
ENDBRANCH  10  11
ENDBRANCH   2  10
TORSDOF 4
ENDMDL
MODEL      108
REMARK  Name = ZINC000038083709
REMARK                            x       y       z     vdW  Elec       q    Type
REMARK                         _______ _______ _______ _____ _____    ______ ____
ROOT
ATOM      1  C   LIG    1        0.731  -0.503   1.223  0.00  0.00    +0.520 C 
ATOM      2  N   LIG    1        0.278  -0.191   2.453  0.00  0.00    -0.730 N 
ATOM      3  H   LIG    1       -0.517   0.356   2.553  0.00  0.00    +0.400 HD
ATOM      4  O   LIG    1        1.725  -1.187   1.099  0.00  0.00    -0.520 OA
ENDROOT
BRANCH   1   6
ATOM      5  C   LIG    1       -0.019   1.526   0.010  0.00  0.00    +0.010 C 
ATOM      6  C   LIG    1        0.002  -0.004   0.002  0.00  0.00    +0.180 C 
BRANCH   6   7
ATOM      7  N   LIG    1        0.690  -0.478  -1.207  0.00  0.00    -0.830 NA
ATOM      8  H   LIG    1        1.658  -0.195  -1.206  0.00  0.00    +0.350 HD
ATOM      9  H   LIG    1        0.220  -0.156  -2.039  0.00  0.00    +0.350 HD
ENDBRANCH   6   7
ENDBRANCH   1   6
BRANCH   2  10
ATOM     10  C   LIG    1        0.986  -0.676   3.640  0.00  0.00    +0.290 C 
BRANCH  10  11
ATOM     11  C   LIG    1        0.270  -0.182   4.899  0.00  0.00    +0.000 C 
ATOM     12  C   LIG    1        0.396   1.347   5.011  0.00  0.00    +0.070 C 
ATOM     13  C   LIG    1       -0.025   1.775   6.431  0.00  0.00    -0.310 C 
ATOM     14  S   LIG    1        0.349   0.333   7.493  0.00  0.00    +2.390 S 
ATOM     15  O   LIG    1       -0.862  -0.182   8.031  0.00  0.00    -0.930 OA
ATOM     16  O   LIG    1        1.429   0.653   8.359  0.00  0.00    -0.930 OA
ATOM     17  C   LIG    1        0.945  -0.778   6.161  0.00  0.00    -0.310 C 
ENDBRANCH  10  11
ENDBRANCH   2  10
TORSDOF 4
ENDMDL
MODEL      109
REMARK  Name = ZINC000032107339
REMARK                            x       y       z     vdW  Elec       q    Type
REMARK                         _______ _______ _______ _____ _____    ______ ____
ROOT
ATOM      1  C   LIG    1       -2.841  -2.598   0.016  0.00  0.00    +0.170 C 
ENDROOT
BRANCH   1   2
ATOM      2  O   LIG    1       -3.642  -2.050   1.064  0.00  0.00    -0.540 OA
ATOM      3  H   LIG    1       -3.327  -2.264   1.953  0.00  0.00    +0.370 HD
ENDBRANCH   1   2
BRANCH   1   4
ATOM      4  C   LIG    1       -1.413  -2.059   0.130  0.00  0.00    +0.170 C 
BRANCH   4   5
ATOM      5  O   LIG    1       -0.612  -2.607  -0.918  0.00  0.00    -0.540 OA
ATOM      6  H   LIG    1       -0.927  -2.393  -1.807  0.00  0.00    +0.370 HD
ENDBRANCH   4   5
BRANCH   4   7
ATOM      7  C   LIG    1       -1.433  -0.534   0.013  0.00  0.00    +0.200 C 
BRANCH   7   8
ATOM      8  O   LIG    1       -2.089  -0.158  -1.200  0.00  0.00    -0.540 OA
ATOM      9  H   LIG    1       -1.665  -0.500  -1.999  0.00  0.00    +0.370 HD
ENDBRANCH   7   8
BRANCH   7  10
ATOM     10  C   LIG    1        0.002  -0.004   0.002  0.00  0.00    +0.170 C 
BRANCH  10  11
ATOM     11  O   LIG    1       -0.017   1.425   0.010  0.00  0.00    -0.570 OA
ATOM     12  H   LIG    1        0.861   1.830   0.004  0.00  0.00    +0.380 HD
ENDBRANCH  10  11
ENDBRANCH   7  10
ENDBRANCH   4   7
ENDBRANCH   1   4
BRANCH   1  13
ATOM     13  C   LIG    1       -2.821  -4.123   0.133  0.00  0.00    +0.210 C 
BRANCH  13  14
ATOM     14  C   LIG    1       -4.256  -4.653   0.144  0.00  0.00    +0.230 C 
ATOM     15  N   LIG    1       -4.263  -6.121   0.337  0.00  0.00    -0.660 NA
ATOM     16  H   LIG    1       -3.392  -6.530   0.034  0.00  0.00    +0.350 HD
ATOM     17  C   LIG    1       -5.408  -6.738  -0.361  0.00  0.00    +0.240 C 
ATOM     18  C   LIG    1       -5.430  -6.169  -1.806  0.00  0.00    +0.100 C 
ATOM     19  S   LIG    1       -5.045  -4.396  -1.490  0.00  0.00    -0.320 S 
ENDBRANCH  13  14
BRANCH  13  20
ATOM     20  O   LIG    1       -2.165  -4.499   1.346  0.00  0.00    -0.540 OA
ATOM     21  H   LIG    1       -2.589  -4.157   2.145  0.00  0.00    +0.370 HD
ENDBRANCH  13  20
ENDBRANCH   1  13
TORSDOF 10
ENDMDL
MODEL      110
REMARK  Name = ZINC000032107341
REMARK                            x       y       z     vdW  Elec       q    Type
REMARK                         _______ _______ _______ _____ _____    ______ ____
ROOT
ATOM      1  C   LIG    1       -2.841  -2.598   0.016  0.00  0.00    +0.170 C 
ENDROOT
BRANCH   1   2
ATOM      2  O   LIG    1       -3.642  -2.050   1.064  0.00  0.00    -0.520 OA
ATOM      3  H   LIG    1       -3.327  -2.264   1.953  0.00  0.00    +0.370 HD
ENDBRANCH   1   2
BRANCH   1   4
ATOM      4  C   LIG    1       -1.413  -2.059   0.130  0.00  0.00    +0.180 C 
BRANCH   4   5
ATOM      5  O   LIG    1       -0.612  -2.607  -0.918  0.00  0.00    -0.540 OA
ATOM      6  H   LIG    1       -0.927  -2.393  -1.807  0.00  0.00    +0.370 HD
ENDBRANCH   4   5
BRANCH   4   7
ATOM      7  C   LIG    1       -1.433  -0.534   0.013  0.00  0.00    +0.200 C 
BRANCH   7   8
ATOM      8  O   LIG    1       -2.089  -0.158  -1.200  0.00  0.00    -0.540 OA
ATOM      9  H   LIG    1       -1.665  -0.500  -1.999  0.00  0.00    +0.370 HD
ENDBRANCH   7   8
BRANCH   7  10
ATOM     10  C   LIG    1        0.002  -0.004   0.002  0.00  0.00    +0.160 C 
BRANCH  10  11
ATOM     11  O   LIG    1       -0.017   1.425   0.010  0.00  0.00    -0.570 OA
ATOM     12  H   LIG    1        0.861   1.830   0.004  0.00  0.00    +0.380 HD
ENDBRANCH  10  11
ENDBRANCH   7  10
ENDBRANCH   4   7
ENDBRANCH   1   4
BRANCH   1  13
ATOM     13  C   LIG    1       -2.821  -4.123   0.133  0.00  0.00    +0.230 C 
BRANCH  13  14
ATOM     14  C   LIG    1       -4.256  -4.653   0.144  0.00  0.00    +0.160 C 
ATOM     15  N   LIG    1       -4.275  -6.132   0.326  0.00  0.00    -0.660 NA
ATOM     16  H   LIG    1       -4.019  -6.604  -0.528  0.00  0.00    +0.350 HD
ATOM     17  C   LIG    1       -5.622  -6.536   0.771  0.00  0.00    +0.190 C 
ATOM     18  C   LIG    1       -6.065  -5.633   1.945  0.00  0.00    +0.100 C 
ATOM     19  S   LIG    1       -5.159  -4.064   1.630  0.00  0.00    -0.210 S 
ENDBRANCH  13  14
BRANCH  13  20
ATOM     20  O   LIG    1       -2.165  -4.499   1.346  0.00  0.00    -0.530 OA
ATOM     21  H   LIG    1       -2.589  -4.157   2.145  0.00  0.00    +0.370 HD
ENDBRANCH  13  20
ENDBRANCH   1  13
TORSDOF 10
ENDMDL
MODEL      111
REMARK  Name = ZINC000033961778
REMARK                            x       y       z     vdW  Elec       q    Type
REMARK                         _______ _______ _______ _____ _____    ______ ____
ROOT
ATOM      1  N   LIG    1       -2.144  -0.047  -1.177  0.00  0.00    -0.530 NA
ATOM      2  C   LIG    1       -1.807   1.355  -1.454  0.00  0.00    +0.190 C 
ATOM      3  C   LIG    1       -2.448   1.783  -2.777  0.00  0.00    +0.140 C 
ATOM      4  C   LIG    1       -3.966   1.613  -2.681  0.00  0.00    +0.140 C 
ATOM      5  C   LIG    1       -4.288   0.154  -2.344  0.00  0.00    +0.210 C 
ATOM      6  C   LIG    1       -3.594  -0.227  -1.034  0.00  0.00    +0.160 C 
ENDROOT
BRANCH   5   7
ATOM      7  O   LIG    1       -5.701  -0.001  -2.199  0.00  0.00    -0.550 OA
ATOM      8  H   LIG    1       -6.205   0.226  -2.992  0.00  0.00    +0.380 HD
ENDBRANCH   5   7
BRANCH   4   9
ATOM      9  O   LIG    1       -4.479   2.466  -1.656  0.00  0.00    -0.550 OA
ATOM     10  H   LIG    1       -4.307   3.405  -1.803  0.00  0.00    +0.380 HD
ENDBRANCH   4   9
BRANCH   3  11
ATOM     11  O   LIG    1       -2.136   3.153  -3.036  0.00  0.00    -0.570 OA
ATOM     12  H   LIG    1       -1.189   3.335  -3.107  0.00  0.00    +0.390 HD
ENDBRANCH   3  11
BRANCH   1  13
ATOM     13  C   LIG    1       -1.433  -0.534   0.013  0.00  0.00    +0.220 C 
BRANCH  13  14
ATOM     14  C   LIG    1       -0.005   0.016   0.015  0.00  0.00    +0.160 C 
BRANCH  14  15
ATOM     15  O   LIG    1       -0.036   1.421   0.275  0.00  0.00    -0.570 OA
ATOM     16  H   LIG    1        0.837   1.837   0.291  0.00  0.00    +0.380 HD
ENDBRANCH  14  15
ENDBRANCH  13  14
ENDBRANCH   1  13
BRANCH   6  17
ATOM     17  C   LIG    1       -3.896  -1.690  -0.704  0.00  0.00    +0.190 C 
BRANCH  17  18
ATOM     18  O   LIG    1       -3.346  -2.013   0.575  0.00  0.00    -0.570 OA
ATOM     19  H   LIG    1       -3.501  -2.927   0.850  0.00  0.00    +0.380 HD
ENDBRANCH  17  18
ENDBRANCH   6  17
TORSDOF 8
ENDMDL
MODEL      112
REMARK  Name = ZINC000048547245
REMARK                            x       y       z     vdW  Elec       q    Type
REMARK                         _______ _______ _______ _____ _____    ______ ____
ROOT
ATOM      1  C   LIG    1       -2.810  -4.041   0.007  0.00  0.00    +0.330 C 
ATOM      2  O   LIG    1       -2.947  -4.509  -1.336  0.00  0.00    -0.340 OA
ATOM      3  C   LIG    1       -2.951  -5.932  -1.461  0.00  0.00    +0.180 C 
ATOM      4  C   LIG    1       -4.138  -6.508  -0.684  0.00  0.00    +0.170 C 
ATOM      5  C   LIG    1       -4.040  -6.070   0.781  0.00  0.00    +0.110 C 
ATOM      6  C   LIG    1       -3.991  -4.540   0.843  0.00  0.00    +0.110 C 
ENDROOT
BRANCH   1   7
ATOM      7  N   LIG    1       -2.791  -2.572   0.015  0.00  0.00    -0.670 NA
ATOM      8  H   LIG    1       -3.305  -2.208   0.803  0.00  0.00    +0.360 HD
BRANCH   7   9
ATOM      9  C   LIG    1       -1.413  -2.063   0.004  0.00  0.00    +0.170 C 
BRANCH   9  10
ATOM     10  C   LIG    1       -1.433  -0.534   0.013  0.00  0.00    +0.010 C 
BRANCH  10  12
ATOM     11  C   LIG    1       -0.019   1.526   0.010  0.00  0.00    +0.010 C 
ATOM     12  C   LIG    1        0.002  -0.004   0.002  0.00  0.00    +0.000 C 
ENDBRANCH  10  12
ENDBRANCH   9  10
ENDBRANCH   7   9
ENDBRANCH   1   7
BRANCH   5  13
ATOM     13  O   LIG    1       -5.182  -6.543   1.498  0.00  0.00    -0.560 OA
ATOM     14  H   LIG    1       -5.186  -6.302   2.435  0.00  0.00    +0.390 HD
ENDBRANCH   5  13
BRANCH   4  15
ATOM     15  O   LIG    1       -4.112  -7.934  -0.760  0.00  0.00    -0.560 OA
ATOM     16  H   LIG    1       -4.837  -8.367  -0.289  0.00  0.00    +0.390 HD
ENDBRANCH   4  15
BRANCH   6  17
ATOM     17  O   LIG    1       -5.208  -4.002   0.322  0.00  0.00    -0.530 OA
ATOM     18  H   LIG    1       -5.999  -4.281   0.802  0.00  0.00    +0.380 HD
ENDBRANCH   6  17
BRANCH   3  19
ATOM     19  C   LIG    1       -3.073  -6.315  -2.937  0.00  0.00    +0.220 C 
BRANCH  19  20
ATOM     20  O   LIG    1       -1.909  -5.877  -3.640  0.00  0.00    -0.570 OA
ATOM     21  H   LIG    1       -1.918  -6.087  -4.585  0.00  0.00    +0.380 HD
ENDBRANCH  19  20
ENDBRANCH   3  19
TORSDOF 9
ENDMDL
MODEL      113
REMARK  Name = ZINC000095617094
REMARK                            x       y       z     vdW  Elec       q    Type
REMARK                         _______ _______ _______ _____ _____    ______ ____
ROOT
ATOM      1  C   LIG    1        0.562  -2.055  -1.191  0.00  0.00    +0.010 C 
ATOM      2  C   LIG    1        1.254  -2.671  -2.168  0.00  0.00    +0.040 C 
ENDROOT
BRANCH   1   3
ATOM      3  C   LIG    1        0.526  -0.595  -1.129  0.00  0.00    +0.520 C 
ATOM      4  O   LIG    1        1.122   0.064  -1.961  0.00  0.00    -0.470 OA
BRANCH   3   6
ATOM      5  C   LIG    1       -0.159   1.451  -0.150  0.00  0.00    +0.250 C 
ATOM      6  O   LIG    1       -0.167   0.022  -0.150  0.00  0.00    -0.340 OA
ENDBRANCH   3   6
ENDBRANCH   1   3
BRANCH   2   7
ATOM      7  O   LIG    1        1.989  -1.943  -3.037  0.00  0.00    -0.420 OA
ATOM      8  H   LIG    1        2.450  -2.472  -3.702  0.00  0.00    +0.390 HD
ENDBRANCH   2   7
BRANCH   1   9
ATOM      9  O   LIG    1       -0.104  -2.793  -0.259  0.00  0.00    -0.450 OA
ATOM     10  H   LIG    1       -0.085  -3.746  -0.425  0.00  0.00    +0.390 HD
ENDBRANCH   1   9
BRANCH   2  11
ATOM     11  C   LIG    1        1.208  -4.172  -2.293  0.00  0.00    +0.210 C 
BRANCH  11  12
ATOM     12  O   LIG    1        2.540  -4.691  -2.292  0.00  0.00    -0.530 OA
ATOM     13  H   LIG    1        3.091  -4.361  -3.015  0.00  0.00    +0.380 HD
ENDBRANCH  11  12
BRANCH  11  14
ATOM     14  C   LIG    1        0.513  -4.554  -3.601  0.00  0.00    +0.190 C 
BRANCH  14  15
ATOM     15  O   LIG    1       -0.818  -4.035  -3.602  0.00  0.00    -0.540 OA
ATOM     16  H   LIG    1       -1.369  -4.365  -2.880  0.00  0.00    +0.380 HD
ENDBRANCH  14  15
BRANCH  14  17
ATOM     17  C   LIG    1        0.467  -6.078  -3.728  0.00  0.00    +0.170 C 
BRANCH  17  18
ATOM     18  O   LIG    1       -0.076  -6.434  -5.001  0.00  0.00    -0.560 OA
ATOM     19  H   LIG    1       -0.136  -7.387  -5.151  0.00  0.00    +0.390 HD
ENDBRANCH  17  18
ENDBRANCH  14  17
ENDBRANCH  11  14
ENDBRANCH   2  11
TORSDOF 10
ENDMDL
MODEL      114
REMARK  Name = ZINC000095617096
REMARK                            x       y       z     vdW  Elec       q    Type
REMARK                         _______ _______ _______ _____ _____    ______ ____
ROOT
ATOM      1  C   LIG    1        2.423  -1.867  -2.185  0.00  0.00    +0.000 C 
ATOM      2  C   LIG    1        1.366  -2.700  -2.136  0.00  0.00    +0.040 C 
ENDROOT
BRANCH   1   3
ATOM      3  C   LIG    1        2.217  -0.421  -2.132  0.00  0.00    +0.520 C 
ATOM      4  O   LIG    1        1.091   0.030  -2.043  0.00  0.00    -0.470 OA
BRANCH   3   6
ATOM      5  C   LIG    1        3.001   1.815  -2.124  0.00  0.00    +0.250 C 
ATOM      6  O   LIG    1        3.276   0.413  -2.181  0.00  0.00    -0.340 OA
ENDBRANCH   3   6
ENDBRANCH   1   3
BRANCH   2   7
ATOM      7  O   LIG    1        0.111  -2.201  -2.158  0.00  0.00    -0.420 OA
ATOM      8  H   LIG    1       -0.581  -2.875  -2.119  0.00  0.00    +0.390 HD
ENDBRANCH   2   7
BRANCH   1   9
ATOM      9  O   LIG    1        3.685  -2.373  -2.285  0.00  0.00    -0.450 OA
ATOM     10  H   LIG    1        3.724  -3.339  -2.272  0.00  0.00    +0.390 HD
ENDBRANCH   1   9
BRANCH   2  11
ATOM     11  C   LIG    1        1.583  -4.189  -2.058  0.00  0.00    +0.220 C 
BRANCH  11  12
ATOM     12  O   LIG    1        0.855  -4.719  -0.949  0.00  0.00    -0.530 OA
ATOM     13  H   LIG    1       -0.089  -4.506  -0.960  0.00  0.00    +0.380 HD
ENDBRANCH  11  12
BRANCH  11  14
ATOM     14  C   LIG    1        1.093  -4.845  -3.350  0.00  0.00    +0.210 C 
BRANCH  14  15
ATOM     15  O   LIG    1       -0.268  -4.479  -3.583  0.00  0.00    -0.540 OA
ATOM     16  H   LIG    1       -0.874  -4.749  -2.880  0.00  0.00    +0.370 HD
ENDBRANCH  14  15
BRANCH  14  17
ATOM     17  C   LIG    1        1.198  -6.366  -3.222  0.00  0.00    +0.170 C 
BRANCH  17  18
ATOM     18  O   LIG    1        0.852  -6.974  -4.468  0.00  0.00    -0.560 OA
ATOM     19  H   LIG    1        0.896  -7.940  -4.460  0.00  0.00    +0.390 HD
ENDBRANCH  17  18
ENDBRANCH  14  17
ENDBRANCH  11  14
ENDBRANCH   2  11
TORSDOF 10
ENDMDL
MODEL      115
REMARK  Name = ZINC000019429847
REMARK                            x       y       z     vdW  Elec       q    Type
REMARK                         _______ _______ _______ _____ _____    ______ ____
ROOT
ATOM      1  C   LIG    1       -1.135  -2.201   0.001  0.00  0.00    +0.190 C 
ENDROOT
BRANCH   1   4
ATOM      2  C   LIG    1       -0.018   1.461   0.010  0.00  0.00    +0.280 C 
ATOM      3  N   LIG    1        0.002  -0.004   0.002  0.00  0.00    -0.620 N 
ATOM      4  C   LIG    1       -1.156  -0.694   0.009  0.00  0.00    +0.480 C 
ATOM      5  O   LIG    1       -2.214  -0.102   0.023  0.00  0.00    -0.540 OA
ATOM      6  C   LIG    1        1.281  -0.719  -0.014  0.00  0.00    +0.290 C 
ENDBRANCH   1   4
BRANCH   1   7
ATOM      7  N   LIG    1       -2.425  -2.711   0.484  0.00  0.00    -0.820 NA
ATOM      8  H   LIG    1       -3.182  -2.394  -0.103  0.00  0.00    +0.350 HD
ATOM      9  H   LIG    1       -2.580  -2.448   1.446  0.00  0.00    +0.350 HD
ENDBRANCH   1   7
BRANCH   1  10
ATOM     10  C   LIG    1       -0.892  -2.700  -1.425  0.00  0.00    +0.080 C 
BRANCH  10  11
ATOM     11  C   LIG    1       -0.747  -4.223  -1.414  0.00  0.00    -0.320 C 
BRANCH  11  12
ATOM     12  S   LIG    1       -0.458  -4.814  -3.104  0.00  0.00    +2.420 S 
ATOM     13  O   LIG    1        0.799  -4.320  -3.548  0.00  0.00    -0.940 OA
ATOM     14  O   LIG    1       -1.619  -4.553  -3.880  0.00  0.00    -0.940 OA
ATOM     15  C   LIG    1       -0.319  -6.606  -2.856  0.00  0.00    -0.270 C 
ENDBRANCH  11  12
ENDBRANCH  10  11
ENDBRANCH   1  10
TORSDOF 5
ENDMDL
MODEL      116
REMARK  Name = ZINC000019429848
REMARK                            x       y       z     vdW  Elec       q    Type
REMARK                         _______ _______ _______ _____ _____    ______ ____
ROOT
ATOM      1  C   LIG    1       -1.135  -2.201   0.001  0.00  0.00    +0.190 C 
ENDROOT
BRANCH   1   4
ATOM      2  C   LIG    1       -0.018   1.461   0.010  0.00  0.00    +0.290 C 
ATOM      3  N   LIG    1        0.002  -0.004   0.002  0.00  0.00    -0.620 N 
ATOM      4  C   LIG    1       -1.156  -0.694   0.009  0.00  0.00    +0.520 C 
ATOM      5  O   LIG    1       -2.214  -0.102   0.023  0.00  0.00    -0.520 OA
ATOM      6  C   LIG    1        1.281  -0.719  -0.014  0.00  0.00    +0.280 C 
ENDBRANCH   1   4
BRANCH   1   7
ATOM      7  N   LIG    1       -2.435  -2.705  -0.463  0.00  0.00    -0.830 NA
ATOM      8  H   LIG    1       -3.180  -2.395   0.142  0.00  0.00    +0.360 HD
ATOM      9  H   LIG    1       -2.425  -3.712  -0.539  0.00  0.00    +0.350 HD
ENDBRANCH   1   7
BRANCH   1  10
ATOM     10  C   LIG    1       -0.865  -2.715   1.416  0.00  0.00    +0.030 C 
BRANCH  10  11
ATOM     11  C   LIG    1       -0.720  -4.238   1.387  0.00  0.00    -0.350 C 
BRANCH  11  12
ATOM     12  S   LIG    1       -0.399  -4.847   3.065  0.00  0.00    +2.420 S 
ATOM     13  O   LIG    1       -1.545  -4.594   3.866  0.00  0.00    -0.930 OA
ATOM     14  O   LIG    1        0.866  -4.358   3.490  0.00  0.00    -0.930 OA
ATOM     15  C   LIG    1       -0.266  -6.636   2.795  0.00  0.00    -0.270 C 
ENDBRANCH  11  12
ENDBRANCH  10  11
ENDBRANCH   1  10
TORSDOF 5
ENDMDL
MODEL      117
REMARK  Name = ZINC000000485643
REMARK                            x       y       z     vdW  Elec       q    Type
REMARK                         _______ _______ _______ _____ _____    ______ ____
ROOT
ATOM      1  N   LIG    1       -2.671  -2.600  -0.237  0.00  0.00    -0.510 N 
ATOM      2  C   LIG    1       -3.227  -3.051   0.949  0.00  0.00    +0.320 A 
ATOM      3  C   LIG    1       -4.519  -3.562   0.933  0.00  0.00    -0.160 A 
ATOM      4  N   LIG    1       -4.806  -3.929   2.232  0.00  0.00    -0.410 N 
ATOM      5  C   LIG    1       -3.718  -3.639   2.973  0.00  0.00    +0.500 A 
ATOM      6  C   LIG    1       -6.056  -4.521   2.715  0.00  0.00    +0.360 C 
ATOM      7  C   LIG    1       -5.225  -3.607  -0.288  0.00  0.00    +0.600 A 
ATOM      8  N   LIG    1       -4.630  -3.152  -1.411  0.00  0.00    -0.650 N 
ATOM      9  H   LIG    1       -5.112  -3.180  -2.252  0.00  0.00    +0.440 HD
ATOM     10  O   LIG    1       -6.359  -4.050  -0.328  0.00  0.00    -0.510 OA
ATOM     11  N   LIG    1       -2.790  -3.121   2.209  0.00  0.00    -0.500 NA
ATOM     12  C   LIG    1       -3.382  -2.655  -1.379  0.00  0.00    +0.710 A 
ATOM     13  O   LIG    1       -2.877  -2.254  -2.411  0.00  0.00    -0.530 OA
ENDROOT
BRANCH   1  14
ATOM     14  C   LIG    1       -1.311  -2.056  -0.247  0.00  0.00    +0.330 C 
BRANCH  14  15
ATOM     15  C   LIG    1       -1.362  -0.549   0.012  0.00  0.00    +0.160 C 
BRANCH  15  17
ATOM     16  C   LIG    1       -0.018   1.465   0.010  0.00  0.00    +0.200 C 
ATOM     17  N   LIG    1        0.002  -0.004   0.002  0.00  0.00    -0.540 NA
ATOM     18  C   LIG    1        0.786  -0.526   1.129  0.00  0.00    +0.190 C 
ENDBRANCH  15  17
ENDBRANCH  14  15
ENDBRANCH   1  14
TORSDOF 3
ENDMDL
MODEL      118
REMARK  Name = ZINC000141935332
REMARK                            x       y       z     vdW  Elec       q    Type
REMARK                         _______ _______ _______ _____ _____    ______ ____
ROOT
ATOM      1  N   LIG    1       -2.144  -0.047  -1.177  0.00  0.00    -0.520 NA
ATOM      2  C   LIG    1       -1.807   1.355  -1.454  0.00  0.00    +0.170 C 
ATOM      3  C   LIG    1       -2.448   1.783  -2.777  0.00  0.00    +0.140 C 
ATOM      4  C   LIG    1       -3.966   1.613  -2.681  0.00  0.00    +0.140 C 
ATOM      5  C   LIG    1       -4.288   0.154  -2.344  0.00  0.00    +0.210 C 
ATOM      6  C   LIG    1       -3.594  -0.227  -1.034  0.00  0.00    +0.170 C 
ENDROOT
BRANCH   5   7
ATOM      7  O   LIG    1       -3.821  -0.693  -3.396  0.00  0.00    -0.540 OA
ATOM      8  H   LIG    1       -4.218  -0.505  -4.258  0.00  0.00    +0.380 HD
ENDBRANCH   5   7
BRANCH   4   9
ATOM      9  O   LIG    1       -4.479   2.466  -1.656  0.00  0.00    -0.560 OA
ATOM     10  H   LIG    1       -4.307   3.405  -1.803  0.00  0.00    +0.390 HD
ENDBRANCH   4   9
BRANCH   3  11
ATOM     11  O   LIG    1       -2.136   3.153  -3.036  0.00  0.00    -0.570 OA
ATOM     12  H   LIG    1       -1.189   3.335  -3.107  0.00  0.00    +0.380 HD
ENDBRANCH   3  11
BRANCH   1  13
ATOM     13  C   LIG    1       -1.433  -0.534   0.013  0.00  0.00    +0.220 C 
BRANCH  13  14
ATOM     14  C   LIG    1       -0.005   0.016   0.015  0.00  0.00    +0.160 C 
BRANCH  14  15
ATOM     15  O   LIG    1       -0.036   1.421   0.275  0.00  0.00    -0.570 OA
ATOM     16  H   LIG    1        0.837   1.837   0.291  0.00  0.00    +0.380 HD
ENDBRANCH  14  15
ENDBRANCH  13  14
ENDBRANCH   1  13
BRANCH   6  17
ATOM     17  C   LIG    1       -3.896  -1.690  -0.704  0.00  0.00    +0.200 C 
BRANCH  17  18
ATOM     18  O   LIG    1       -3.346  -2.013   0.575  0.00  0.00    -0.570 OA
ATOM     19  H   LIG    1       -3.501  -2.927   0.850  0.00  0.00    +0.380 HD
ENDBRANCH  17  18
ENDBRANCH   6  17
TORSDOF 8
ENDMDL
MODEL      119
REMARK  Name = ZINC000004095591
REMARK                            x       y       z     vdW  Elec       q    Type
REMARK                         _______ _______ _______ _____ _____    ______ ____
ROOT
ATOM      1  P   LIG    1        2.399   1.249   3.681  0.00  0.00    +2.220 P 
ATOM      2  O   LIG    1        1.848   1.780   5.023  0.00  0.00    -1.090 OA
ATOM      3  O   LIG    1        2.622  -0.277   3.784  0.00  0.00    -1.090 OA
ENDROOT
BRANCH   1   4
ATOM      4  O   LIG    1        1.343   1.559   2.507  0.00  0.00    -0.770 OA
BRANCH   4   5
ATOM      5  C   LIG    1        0.041   0.972   2.456  0.00  0.00    +0.270 C 
BRANCH   5   6
ATOM      6  C   LIG    1       -0.699   1.479   1.216  0.00  0.00    +0.270 C 
BRANCH   6   7
ATOM      7  N   LIG    1       -0.012   1.005   0.008  0.00  0.00    -0.640 N 
ATOM      8  H   LIG    1       -0.500   1.339  -0.810  0.00  0.00    +0.430 HD
ATOM      9  H   LIG    1        0.935   1.354   0.000  0.00  0.00    +0.440 HD
ATOM     10  H   LIG    1        0.002  -0.004   0.002  0.00  0.00    +0.430 HD
ENDBRANCH   6   7
ENDBRANCH   5   6
ENDBRANCH   4   5
ENDBRANCH   1   4
BRANCH   1  11
ATOM     11  O   LIG    1        3.798   1.974   3.350  0.00  0.00    -0.760 OA
BRANCH  11  12
ATOM     12  C   LIG    1        4.970   1.806   4.149  0.00  0.00    +0.240 C 
BRANCH  12  13
ATOM     13  C   LIG    1        6.114   2.631   3.557  0.00  0.00    +0.210 C 
BRANCH  13  14
ATOM     14  O   LIG    1        5.794   4.021   3.645  0.00  0.00    -0.550 OA
ATOM     15  H   LIG    1        5.652   4.336   4.548  0.00  0.00    +0.370 HD
ENDBRANCH  13  14
BRANCH  13  16
ATOM     16  C   LIG    1        7.401   2.354   4.338  0.00  0.00    +0.150 C 
BRANCH  16  17
ATOM     17  O   LIG    1        8.492   3.034   3.715  0.00  0.00    -0.560 OA
ATOM     18  H   LIG    1        9.341   2.903   4.158  0.00  0.00    +0.380 HD
ENDBRANCH  16  17
ENDBRANCH  13  16
ENDBRANCH  12  13
ENDBRANCH  11  12
ENDBRANCH   1  11
TORSDOF 10
ENDMDL
MODEL      120
REMARK  Name = ZINC000004095590
REMARK                            x       y       z     vdW  Elec       q    Type
REMARK                         _______ _______ _______ _____ _____    ______ ____
ROOT
ATOM      1  P   LIG    1        2.399   1.249   3.681  0.00  0.00    +2.220 P 
ATOM      2  O   LIG    1        1.848   1.780   5.023  0.00  0.00    -1.090 OA
ATOM      3  O   LIG    1        2.622  -0.277   3.784  0.00  0.00    -1.090 OA
ENDROOT
BRANCH   1   4
ATOM      4  O   LIG    1        1.343   1.559   2.507  0.00  0.00    -0.770 OA
BRANCH   4   5
ATOM      5  C   LIG    1        0.041   0.972   2.456  0.00  0.00    +0.270 C 
BRANCH   5   6
ATOM      6  C   LIG    1       -0.699   1.479   1.216  0.00  0.00    +0.270 C 
BRANCH   6   7
ATOM      7  N   LIG    1       -0.012   1.005   0.008  0.00  0.00    -0.640 N 
ATOM      8  H   LIG    1       -0.500   1.339  -0.810  0.00  0.00    +0.430 HD
ATOM      9  H   LIG    1        0.935   1.354   0.000  0.00  0.00    +0.440 HD
ATOM     10  H   LIG    1        0.002  -0.004   0.002  0.00  0.00    +0.430 HD
ENDBRANCH   6   7
ENDBRANCH   5   6
ENDBRANCH   4   5
ENDBRANCH   1   4
BRANCH   1  11
ATOM     11  O   LIG    1        3.798   1.974   3.350  0.00  0.00    -0.760 OA
BRANCH  11  12
ATOM     12  C   LIG    1        4.970   1.806   4.149  0.00  0.00    +0.240 C 
BRANCH  12  13
ATOM     13  C   LIG    1        6.114   2.631   3.557  0.00  0.00    +0.210 C 
BRANCH  13  14
ATOM     14  O   LIG    1        6.457   2.115   2.270  0.00  0.00    -0.550 OA
ATOM     15  H   LIG    1        6.747   1.193   2.280  0.00  0.00    +0.370 HD
ENDBRANCH  13  14
BRANCH  13  16
ATOM     16  C   LIG    1        7.332   2.550   4.480  0.00  0.00    +0.150 C 
BRANCH  16  17
ATOM     17  O   LIG    1        8.360   3.413   3.989  0.00  0.00    -0.560 OA
ATOM     18  H   LIG    1        9.164   3.413   4.526  0.00  0.00    +0.380 HD
ENDBRANCH  16  17
ENDBRANCH  13  16
ENDBRANCH  12  13
ENDBRANCH  11  12
ENDBRANCH   1  11
TORSDOF 10
ENDMDL
MODEL      121
REMARK  Name = ZINC000203488208
REMARK                            x       y       z     vdW  Elec       q    Type
REMARK                         _______ _______ _______ _____ _____    ______ ____
ROOT
ATOM      1  C   LIG    1       -1.428  -0.249  -0.226  0.00  0.00    +0.140 C 
ATOM      2  C   LIG    1       -2.240   0.347   0.927  0.00  0.00    +0.330 C 
ATOM      3  O   LIG    1       -1.879  -0.303   2.148  0.00  0.00    -0.380 OA
ATOM      4  C   LIG    1       -2.140  -1.708   2.160  0.00  0.00    +0.150 C 
ATOM      5  C   LIG    1       -1.325  -2.387   1.057  0.00  0.00    +0.140 C 
ATOM      6  C   LIG    1       -1.684  -1.758  -0.295  0.00  0.00    +0.200 C 
ENDROOT
BRANCH   1   8
ATOM      7  C   LIG    1        0.792  -0.354  -1.186  0.00  0.00    +0.200 C 
ATOM      8  N   LIG    1        0.002  -0.004   0.002  0.00  0.00    -0.530 NA
ATOM      9  C   LIG    1        0.240   1.390   0.401  0.00  0.00    +0.200 C 
ENDBRANCH   1   8
BRANCH   5  10
ATOM     10  O   LIG    1       -1.627  -3.783   1.030  0.00  0.00    -0.560 OA
ATOM     11  H   LIG    1       -1.428  -4.244   1.857  0.00  0.00    +0.380 HD
ENDBRANCH   5  10
BRANCH   2  12
ATOM     12  O   LIG    1       -1.963   1.745   1.032  0.00  0.00    -0.530 OA
ATOM     13  H   LIG    1       -2.444   2.189   1.743  0.00  0.00    +0.380 HD
ENDBRANCH   2  12
BRANCH   6  14
ATOM     14  O   LIG    1       -0.876  -2.337  -1.321  0.00  0.00    -0.550 OA
ATOM     15  H   LIG    1       -0.984  -3.293  -1.414  0.00  0.00    +0.380 HD
ENDBRANCH   6  14
BRANCH   4  16
ATOM     16  C   LIG    1       -1.744  -2.288   3.519  0.00  0.00    +0.200 C 
BRANCH  16  17
ATOM     17  O   LIG    1       -2.584  -1.739   4.536  0.00  0.00    -0.560 OA
ATOM     18  H   LIG    1       -2.389  -2.063   5.425  0.00  0.00    +0.380 HD
ENDBRANCH  16  17
ENDBRANCH   4  16
TORSDOF 6
ENDMDL
MODEL      122
REMARK  Name = ZINC000242688552
REMARK                            x       y       z     vdW  Elec       q    Type
REMARK                         _______ _______ _______ _____ _____    ______ ____
ROOT
ATOM      1  C   LIG    1        0.016   0.034  -2.534  0.00  0.00    +0.150 C 
ATOM      2  C   LIG    1       -1.328  -0.686  -2.672  0.00  0.00    +0.330 C 
ATOM      3  O   LIG    1       -1.109  -2.097  -2.723  0.00  0.00    -0.380 OA
ATOM      4  C   LIG    1       -0.312  -2.523  -3.830  0.00  0.00    +0.150 C 
ATOM      5  C   LIG    1        1.073  -1.878  -3.738  0.00  0.00    +0.120 C 
ATOM      6  C   LIG    1        0.918  -0.353  -3.710  0.00  0.00    +0.200 C 
ENDROOT
BRANCH   5   7
ATOM      7  O   LIG    1        1.726  -2.315  -2.544  0.00  0.00    -0.510 OA
ATOM      8  H   LIG    1        1.938  -3.258  -2.534  0.00  0.00    +0.360 HD
ENDBRANCH   5   7
BRANCH   2   9
ATOM      9  O   LIG    1       -2.154  -0.372  -1.549  0.00  0.00    -0.540 OA
ATOM     10  H   LIG    1       -3.024  -0.794  -1.570  0.00  0.00    +0.380 HD
ENDBRANCH   2   9
BRANCH   6  11
ATOM     11  O   LIG    1        0.327   0.090  -4.934  0.00  0.00    -0.560 OA
ATOM     12  H   LIG    1        0.844  -0.129  -5.721  0.00  0.00    +0.390 HD
ENDBRANCH   6  11
BRANCH   1  13
ATOM     13  N   LIG    1        0.657  -0.362  -1.273  0.00  0.00    -0.500 NA
BRANCH  13  15
ATOM     14  C   LIG    1        2.714   0.897  -1.697  0.00  0.00    +0.030 C 
ATOM     15  C   LIG    1        1.519   0.712  -0.760  0.00  0.00    +0.150 C 
ENDBRANCH  13  15
BRANCH  13  16
ATOM     16  C   LIG    1       -0.345  -0.755  -0.273  0.00  0.00    +0.210 C 
ATOM     17  C   LIG    1        0.361  -1.305   0.968  0.00  0.00    +0.010 C 
ENDBRANCH  13  16
ENDBRANCH   1  13
BRANCH   4  18
ATOM     18  C   LIG    1       -0.168  -4.046  -3.798  0.00  0.00    +0.200 C 
BRANCH  18  19
ATOM     19  O   LIG    1       -1.448  -4.650  -3.999  0.00  0.00    -0.560 OA
ATOM     20  H   LIG    1       -1.433  -5.617  -3.991  0.00  0.00    +0.380 HD
ENDBRANCH  18  19
ENDBRANCH   4  18
TORSDOF 8
ENDMDL
MODEL      123
REMARK  Name = ZINC000242688550
REMARK                            x       y       z     vdW  Elec       q    Type
REMARK                         _______ _______ _______ _____ _____    ______ ____
ROOT
ATOM      1  C   LIG    1       -0.075  -0.252  -2.441  0.00  0.00    +0.180 C 
ATOM      2  C   LIG    1       -1.389  -1.036  -2.379  0.00  0.00    +0.310 C 
ATOM      3  O   LIG    1       -1.105  -2.434  -2.296  0.00  0.00    -0.380 OA
ATOM      4  C   LIG    1       -0.384  -2.950  -3.417  0.00  0.00    +0.150 C 
ATOM      5  C   LIG    1        0.970  -2.244  -3.520  0.00  0.00    +0.140 C 
ATOM      6  C   LIG    1        0.743  -0.733  -3.644  0.00  0.00    +0.200 C 
ENDROOT
BRANCH   5   7
ATOM      7  O   LIG    1        1.670  -2.718  -4.673  0.00  0.00    -0.560 OA
ATOM      8  H   LIG    1        1.844  -3.669  -4.663  0.00  0.00    +0.380 HD
ENDBRANCH   5   7
BRANCH   2   9
ATOM      9  O   LIG    1       -2.131  -0.631  -1.227  0.00  0.00    -0.530 OA
ATOM     10  H   LIG    1       -2.977  -1.088  -1.124  0.00  0.00    +0.390 HD
ENDBRANCH   2   9
BRANCH   6  11
ATOM     11  O   LIG    1        2.003  -0.060  -3.669  0.00  0.00    -0.540 OA
ATOM     12  H   LIG    1        2.574  -0.323  -4.404  0.00  0.00    +0.380 HD
ENDBRANCH   6  11
BRANCH   1  13
ATOM     13  N   LIG    1        0.690  -0.478  -1.207  0.00  0.00    -0.510 NA
BRANCH  13  15
ATOM     14  C   LIG    1        1.003   1.883  -0.636  0.00  0.00    +0.020 C 
ATOM     15  C   LIG    1        0.386   0.552  -0.204  0.00  0.00    +0.160 C 
ENDBRANCH  13  15
BRANCH  13  16
ATOM     16  C   LIG    1        0.441  -1.823  -0.672  0.00  0.00    +0.180 C 
ATOM     17  C   LIG    1        1.425  -2.110   0.465  0.00  0.00    +0.010 C 
ENDBRANCH  13  16
ENDBRANCH   1  13
BRANCH   4  18
ATOM     18  C   LIG    1       -0.163  -4.453  -3.233  0.00  0.00    +0.200 C 
BRANCH  18  19
ATOM     19  O   LIG    1       -1.424  -5.126  -3.252  0.00  0.00    -0.560 OA
ATOM     20  H   LIG    1       -1.360  -6.084  -3.140  0.00  0.00    +0.380 HD
ENDBRANCH  18  19
ENDBRANCH   4  18
TORSDOF 8
ENDMDL
MODEL      124
REMARK  Name = ZINC000242688551
REMARK                            x       y       z     vdW  Elec       q    Type
REMARK                         _______ _______ _______ _____ _____    ______ ____
ROOT
ATOM      1  C   LIG    1       -0.075  -0.252  -2.441  0.00  0.00    +0.180 C 
ATOM      2  C   LIG    1       -1.389  -1.036  -2.378  0.00  0.00    +0.320 C 
ATOM      3  O   LIG    1       -1.105  -2.434  -2.296  0.00  0.00    -0.390 OA
ATOM      4  C   LIG    1       -0.385  -2.950  -3.417  0.00  0.00    +0.150 C 
ATOM      5  C   LIG    1        0.970  -2.244  -3.520  0.00  0.00    +0.130 C 
ATOM      6  C   LIG    1        0.742  -0.733  -3.644  0.00  0.00    +0.210 C 
ENDROOT
BRANCH   5   7
ATOM      7  O   LIG    1        1.669  -2.718  -4.673  0.00  0.00    -0.560 OA
ATOM      8  H   LIG    1        1.843  -3.669  -4.663  0.00  0.00    +0.380 HD
ENDBRANCH   5   7
BRANCH   2   9
ATOM      9  O   LIG    1       -2.131  -0.631  -1.226  0.00  0.00    -0.540 OA
ATOM     10  H   LIG    1       -2.977  -1.087  -1.123  0.00  0.00    +0.390 HD
ENDBRANCH   2   9
BRANCH   6  11
ATOM     11  O   LIG    1        0.029  -0.454  -4.850  0.00  0.00    -0.560 OA
ATOM     12  H   LIG    1        0.486  -0.739  -5.653  0.00  0.00    +0.390 HD
ENDBRANCH   6  11
BRANCH   1  13
ATOM     13  N   LIG    1        0.690  -0.478  -1.207  0.00  0.00    -0.520 NA
BRANCH  13  15
ATOM     14  C   LIG    1        1.004   1.883  -0.637  0.00  0.00    +0.020 C 
ATOM     15  C   LIG    1        0.386   0.552  -0.204  0.00  0.00    +0.180 C 
ENDBRANCH  13  15
BRANCH  13  16
ATOM     16  C   LIG    1        0.441  -1.823  -0.672  0.00  0.00    +0.180 C 
ATOM     17  C   LIG    1        1.424  -2.110   0.465  0.00  0.00    +0.010 C 
ENDBRANCH  13  16
ENDBRANCH   1  13
BRANCH   4  18
ATOM     18  C   LIG    1       -0.164  -4.453  -3.233  0.00  0.00    +0.200 C 
BRANCH  18  19
ATOM     19  O   LIG    1       -1.425  -5.125  -3.252  0.00  0.00    -0.560 OA
ATOM     20  H   LIG    1       -1.361  -6.084  -3.140  0.00  0.00    +0.380 HD
ENDBRANCH  18  19
ENDBRANCH   4  18
TORSDOF 8
ENDMDL
MODEL      125
REMARK  Name = ZINC000095908509
REMARK                            x       y       z     vdW  Elec       q    Type
REMARK                         _______ _______ _______ _____ _____    ______ ____
ROOT
ATOM      1  S   LIG    1        0.026  -0.329   2.771  0.00  0.00    +2.530 S 
ATOM      2  O   LIG    1       -0.567  -1.422   3.458  0.00  0.00    -0.890 OA
ATOM      3  O   LIG    1       -0.590   0.952   2.761  0.00  0.00    -0.920 OA
ENDROOT
BRANCH   1   9
ATOM      4  C   LIG    1       -0.018   1.461   0.010  0.00  0.00    +0.360 C 
ATOM      5  N   LIG    1        0.002  -0.004   0.002  0.00  0.00    -0.420 N 
ATOM      6  C   LIG    1        0.009  -0.813  -1.085  0.00  0.00    +0.420 A 
ATOM      7  N   LIG    1        0.027  -2.044  -0.652  0.00  0.00    -0.290 NA
ATOM      8  N   LIG    1        0.032  -2.051   0.634  0.00  0.00    -0.190 NA
ATOM      9  C   LIG    1        0.024  -0.825   1.080  0.00  0.00    -0.370 A 
ENDBRANCH   1   9
BRANCH   1  10
ATOM     10  C   LIG    1        1.784  -0.186   3.197  0.00  0.00    -0.480 C 
ATOM     11  C   LIG    1        2.412   1.161   2.795  0.00  0.00    +0.260 C 
ATOM     12  N   LIG    1        3.093   1.122   4.108  0.00  0.00    -0.640 NA
ATOM     13  H   LIG    1        3.973   0.632   4.045  0.00  0.00    +0.350 HD
ATOM     14  C   LIG    1        2.035   0.244   4.654  0.00  0.00    +0.270 C 
ENDBRANCH   1  10
TORSDOF 2
ENDMDL
MODEL      126
REMARK  Name = ZINC000022588876
REMARK                            x       y       z     vdW  Elec       q    Type
REMARK                         _______ _______ _______ _____ _____    ______ ____
ROOT
ATOM      1  C   LIG    1       -1.244  -2.135   0.003  0.00  0.00    +0.260 C 
ATOM      2  N   LIG    1       -2.607  -2.588   0.226  0.00  0.00    -0.440 NA
ATOM      3  C   LIG    1       -3.390  -2.387  -0.814  0.00  0.00    +0.490 C 
ATOM      4  N   LIG    1       -2.920  -1.795  -1.955  0.00  0.00    -0.160 NA
ATOM      5  N   LIG    1       -1.716  -1.903  -2.322  0.00  0.00    -0.080 NA
ATOM      6  N   LIG    1       -0.133  -2.687   0.755  0.00  0.00    -0.600 N 
ATOM      7  C   LIG    1       -0.153  -3.115   2.156  0.00  0.00    +0.360 C 
ATOM      8  C   LIG    1        0.913  -2.745  -0.102  0.00  0.00    +0.720 C 
ATOM      9  O   LIG    1        2.061  -2.936   0.250  0.00  0.00    -0.530 OA
ATOM     10  N   LIG    1        0.543  -2.553  -1.399  0.00  0.00    -0.610 N 
ATOM     11  C   LIG    1        1.422  -2.266  -2.536  0.00  0.00    +0.350 C 
ATOM     12  C   LIG    1       -0.899  -2.691  -1.421  0.00  0.00    +0.300 C 
ENDROOT
BRANCH   1  13
ATOM     13  C   LIG    1       -1.185  -0.630   0.010  0.00  0.00    +0.450 C 
ATOM     14  O   LIG    1       -2.208   0.015   0.023  0.00  0.00    -0.470 OA
BRANCH  13  16
ATOM     15  C   LIG    1       -0.018   1.448   0.010  0.00  0.00    +0.290 C 
ATOM     16  O   LIG    1        0.002  -0.004   0.002  0.00  0.00    -0.330 OA
ENDBRANCH  13  16
ENDBRANCH   1  13
TORSDOF 2
ENDMDL
MODEL      127
REMARK  Name = ZINC000022588881
REMARK                            x       y       z     vdW  Elec       q    Type
REMARK                         _______ _______ _______ _____ _____    ______ ____
ROOT
ATOM      1  C   LIG    1       -1.244  -2.135   0.003  0.00  0.00    +0.260 C 
ATOM      2  N   LIG    1       -0.197  -2.685   0.847  0.00  0.00    -0.450 NA
ATOM      3  C   LIG    1        1.004  -2.563   0.319  0.00  0.00    +0.490 C 
ATOM      4  N   LIG    1        1.189  -1.960  -0.896  0.00  0.00    -0.150 NA
ATOM      5  N   LIG    1        0.308  -1.984  -1.800  0.00  0.00    -0.070 NA
ATOM      6  N   LIG    1       -2.618  -2.587   0.115  0.00  0.00    -0.590 N 
ATOM      7  C   LIG    1       -3.309  -2.988   1.342  0.00  0.00    +0.360 C 
ATOM      8  C   LIG    1       -3.121  -2.583  -1.142  0.00  0.00    +0.720 C 
ATOM      9  O   LIG    1       -4.307  -2.681  -1.392  0.00  0.00    -0.530 OA
ATOM     10  N   LIG    1       -2.159  -2.444  -2.095  0.00  0.00    -0.620 N 
ATOM     11  C   LIG    1       -2.355  -2.115  -3.509  0.00  0.00    +0.360 C 
ATOM     12  C   LIG    1       -0.899  -2.691  -1.421  0.00  0.00    +0.300 C 
ENDROOT
BRANCH   1  13
ATOM     13  C   LIG    1       -1.185  -0.630   0.010  0.00  0.00    +0.440 C 
ATOM     14  O   LIG    1       -2.208   0.015   0.023  0.00  0.00    -0.460 OA
BRANCH  13  16
ATOM     15  C   LIG    1       -0.018   1.448   0.010  0.00  0.00    +0.290 C 
ATOM     16  O   LIG    1        0.002  -0.004   0.002  0.00  0.00    -0.350 OA
ENDBRANCH  13  16
ENDBRANCH   1  13
TORSDOF 2
ENDMDL
MODEL      128
REMARK  Name = ZINC000014807401
REMARK                            x       y       z     vdW  Elec       q    Type
REMARK                         _______ _______ _______ _____ _____    ______ ____
ROOT
ATOM      1  C   LIG    1        0.543  -2.065  -1.216  0.00  0.00    +0.000 C 
ATOM      2  C   LIG    1        1.273  -2.643  -2.189  0.00  0.00    +0.040 C 
ENDROOT
BRANCH   1   3
ATOM      3  C   LIG    1        0.456  -0.608  -1.136  0.00  0.00    +0.520 C 
ATOM      4  O   LIG    1        1.043   0.083  -1.947  0.00  0.00    -0.470 OA
BRANCH   3   6
ATOM      5  C   LIG    1       -0.317   1.399  -0.142  0.00  0.00    +0.250 C 
ATOM      6  O   LIG    1       -0.276  -0.029  -0.161  0.00  0.00    -0.340 OA
ENDBRANCH   3   6
ENDBRANCH   1   3
BRANCH   2   7
ATOM      7  O   LIG    1        2.019  -1.880  -3.017  0.00  0.00    -0.420 OA
ATOM      8  H   LIG    1        2.508  -2.384  -3.682  0.00  0.00    +0.390 HD
ENDBRANCH   2   7
BRANCH   1   9
ATOM      9  O   LIG    1       -0.115  -2.838  -0.307  0.00  0.00    -0.450 OA
ATOM     10  H   LIG    1       -0.063  -3.787  -0.488  0.00  0.00    +0.390 HD
ENDBRANCH   1   9
BRANCH   2  11
ATOM     11  C   LIG    1        1.258  -4.141  -2.353  0.00  0.00    +0.220 C 
BRANCH  11  12
ATOM     12  O   LIG    1        2.600  -4.632  -2.362  0.00  0.00    -0.530 OA
ATOM     13  H   LIG    1        3.146  -4.273  -3.074  0.00  0.00    +0.380 HD
ENDBRANCH  11  12
BRANCH  11  14
ATOM     14  C   LIG    1        0.574  -4.502  -3.673  0.00  0.00    +0.210 C 
BRANCH  14  15
ATOM     15  O   LIG    1        1.220  -3.817  -4.748  0.00  0.00    -0.540 OA
ATOM     16  H   LIG    1        2.158  -4.033  -4.844  0.00  0.00    +0.370 HD
ENDBRANCH  14  15
BRANCH  14  17
ATOM     17  C   LIG    1        0.668  -6.012  -3.900  0.00  0.00    +0.170 C 
BRANCH  17  18
ATOM     18  O   LIG    1       -0.070  -6.364  -5.072  0.00  0.00    -0.560 OA
ATOM     19  H   LIG    1       -0.054  -7.309  -5.277  0.00  0.00    +0.390 HD
ENDBRANCH  17  18
ENDBRANCH  14  17
ENDBRANCH  11  14
ENDBRANCH   2  11
TORSDOF 10
ENDMDL
MODEL      129
REMARK  Name = ZINC000005114222
REMARK                            x       y       z     vdW  Elec       q    Type
REMARK                         _______ _______ _______ _____ _____    ______ ____
ROOT
ATOM      1  C   LIG    1        0.013  -3.707  -3.396  0.00  0.00    +0.280 C 
ENDROOT
BRANCH   1   5
ATOM      2  C   LIG    1       -0.000  -0.730  -1.271  0.00  0.00    +0.110 A 
ATOM      3  N   LIG    1       -0.013  -0.185  -2.472  0.00  0.00    -0.420 NA
ATOM      4  C   LIG    1       -0.011  -1.148  -3.387  0.00  0.00    +0.180 A 
ATOM      5  C   LIG    1        0.004  -2.346  -2.747  0.00  0.00    -0.020 A 
ATOM      6  N   LIG    1        0.017  -2.091  -1.419  0.00  0.00    -0.520 N 
ATOM      7  H   LIG    1        0.029  -2.748  -0.706  0.00  0.00    +0.430 HD
BRANCH   2   9
ATOM      8  C   LIG    1       -0.018   1.503   0.010  0.00  0.00    +0.110 C 
ATOM      9  C   LIG    1        0.002  -0.004   0.002  0.00  0.00    +0.440 C 
ATOM     10  O   LIG    1        0.020  -0.616   1.049  0.00  0.00    -0.460 OA
ENDBRANCH   2   9
ENDBRANCH   1   5
BRANCH   1  11
ATOM     11  O   LIG    1        0.777  -3.654  -4.602  0.00  0.00    -0.510 OA
ATOM     12  H   LIG    1        0.437  -3.028  -5.256  0.00  0.00    +0.370 HD
ENDBRANCH   1  11
BRANCH   1  13
ATOM     13  C   LIG    1       -1.423  -4.126  -3.719  0.00  0.00    +0.170 C 
BRANCH  13  14
ATOM     14  O   LIG    1       -2.045  -3.118  -4.518  0.00  0.00    -0.540 OA
ATOM     15  H   LIG    1       -1.600  -2.953  -5.360  0.00  0.00    +0.370 HD
ENDBRANCH  13  14
BRANCH  13  16
ATOM     16  C   LIG    1       -1.406  -5.449  -4.489  0.00  0.00    +0.190 C 
BRANCH  16  17
ATOM     17  O   LIG    1       -0.577  -5.316  -5.645  0.00  0.00    -0.530 OA
ATOM     18  H   LIG    1       -0.868  -4.631  -6.262  0.00  0.00    +0.360 HD
ENDBRANCH  16  17
BRANCH  16  19
ATOM     19  C   LIG    1       -2.830  -5.805  -4.920  0.00  0.00    +0.160 C 
BRANCH  19  20
ATOM     20  O   LIG    1       -2.832  -7.095  -5.537  0.00  0.00    -0.570 OA
ATOM     21  H   LIG    1       -3.704  -7.386  -5.836  0.00  0.00    +0.380 HD
ENDBRANCH  19  20
ENDBRANCH  16  19
ENDBRANCH  13  16
ENDBRANCH   1  13
TORSDOF 9
ENDMDL
MODEL      130
REMARK  Name = ZINC000018059633
REMARK                            x       y       z     vdW  Elec       q    Type
REMARK                         _______ _______ _______ _____ _____    ______ ____
ROOT
ATOM      1  C   LIG    1        0.849  -2.021  -1.205  0.00  0.00    +0.220 C 
ATOM      2  C   LIG    1        1.690  -2.510  -2.393  0.00  0.00    +0.280 C 
ATOM      3  N   LIG    1        3.044  -1.953  -2.262  0.00  0.00    -0.690 N 
ATOM      4  H   LIG    1        3.489  -1.556  -3.028  0.00  0.00    +0.410 HD
ATOM      5  C   LIG    1        3.676  -2.002  -1.030  0.00  0.00    +0.410 A 
ATOM      6  C   LIG    1        2.933  -2.232   0.120  0.00  0.00    -0.120 A 
ATOM      7  C   LIG    1        3.588  -2.275   1.355  0.00  0.00    +0.540 A 
ATOM      8  N   LIG    1        4.926  -2.091   1.383  0.00  0.00    -0.650 N 
ATOM      9  H   LIG    1        5.400  -2.115   2.229  0.00  0.00    +0.410 HD
ATOM     10  C   LIG    1        5.610  -1.871   0.227  0.00  0.00    +0.630 A 
ATOM     11  O   LIG    1        2.963  -2.474   2.386  0.00  0.00    -0.540 OA
ATOM     12  N   LIG    1        5.000  -1.829  -0.938  0.00  0.00    -0.590 NA
ATOM     13  N   LIG    1        1.535  -2.419   0.035  0.00  0.00    -0.710 N 
ATOM     14  H   LIG    1        1.040  -2.801   0.776  0.00  0.00    +0.410 HD
ENDROOT
BRANCH  10  15
ATOM     15  N   LIG    1        6.969  -1.688   0.278  0.00  0.00    -0.830 N 
ATOM     16  H   LIG    1        7.468  -1.531  -0.538  0.00  0.00    +0.430 HD
ATOM     17  H   LIG    1        7.430  -1.717   1.131  0.00  0.00    +0.410 HD
ENDBRANCH  10  15
BRANCH   1  18
ATOM     18  C   LIG    1        0.718  -0.497  -1.257  0.00  0.00    +0.170 C 
BRANCH  18  20
ATOM     19  C   LIG    1       -0.019   1.526   0.010  0.00  0.00    +0.000 C 
ATOM     20  C   LIG    1        0.002  -0.004   0.002  0.00  0.00    +0.170 C 
BRANCH  20  21
ATOM     21  O   LIG    1        0.693  -0.477   1.160  0.00  0.00    -0.540 OA
ATOM     22  H   LIG    1        1.611  -0.180   1.219  0.00  0.00    +0.360 HD
ENDBRANCH  20  21
ENDBRANCH  18  20
BRANCH  18  23
ATOM     23  O   LIG    1        2.019   0.090  -1.326  0.00  0.00    -0.550 OA
ATOM     24  H   LIG    1        2.587  -0.122  -0.573  0.00  0.00    +0.370 HD
ENDBRANCH  18  23
ENDBRANCH   1  18
TORSDOF 5
ENDMDL
MODEL      131
REMARK  Name = ZINC000039150540
REMARK                            x       y       z     vdW  Elec       q    Type
REMARK                         _______ _______ _______ _____ _____    ______ ____
ROOT
ATOM      1  C   LIG    1        0.013  -3.707  -3.396  0.00  0.00    +0.270 C 
ENDROOT
BRANCH   1   5
ATOM      2  C   LIG    1       -0.000  -0.730  -1.271  0.00  0.00    +0.110 A 
ATOM      3  N   LIG    1       -0.013  -0.185  -2.472  0.00  0.00    -0.420 NA
ATOM      4  C   LIG    1       -0.011  -1.148  -3.387  0.00  0.00    +0.170 A 
ATOM      5  C   LIG    1        0.004  -2.346  -2.747  0.00  0.00    -0.020 A 
ATOM      6  N   LIG    1        0.017  -2.091  -1.419  0.00  0.00    -0.510 N 
ATOM      7  H   LIG    1        0.029  -2.748  -0.706  0.00  0.00    +0.430 HD
BRANCH   2   9
ATOM      8  C   LIG    1       -0.018   1.503   0.010  0.00  0.00    +0.110 C 
ATOM      9  C   LIG    1        0.002  -0.004   0.002  0.00  0.00    +0.440 C 
ATOM     10  O   LIG    1        0.020  -0.616   1.049  0.00  0.00    -0.460 OA
ENDBRANCH   2   9
ENDBRANCH   1   5
BRANCH   1  11
ATOM     11  O   LIG    1        0.777  -3.654  -4.602  0.00  0.00    -0.520 OA
ATOM     12  H   LIG    1        0.437  -3.028  -5.256  0.00  0.00    +0.380 HD
ENDBRANCH   1  11
BRANCH   1  13
ATOM     13  C   LIG    1       -1.423  -4.126  -3.719  0.00  0.00    +0.160 C 
BRANCH  13  14
ATOM     14  O   LIG    1       -2.187  -4.179  -2.513  0.00  0.00    -0.540 OA
ATOM     15  H   LIG    1       -1.847  -4.805  -1.859  0.00  0.00    +0.380 HD
ENDBRANCH  13  14
BRANCH  13  16
ATOM     16  C   LIG    1       -1.414  -5.507  -4.378  0.00  0.00    +0.190 C 
BRANCH  16  17
ATOM     17  O   LIG    1       -0.650  -5.455  -5.584  0.00  0.00    -0.530 OA
ATOM     18  H   LIG    1       -0.990  -4.829  -6.238  0.00  0.00    +0.370 HD
ENDBRANCH  16  17
BRANCH  16  19
ATOM     19  C   LIG    1       -2.849  -5.927  -4.701  0.00  0.00    +0.160 C 
BRANCH  19  20
ATOM     20  O   LIG    1       -2.852  -7.263  -5.209  0.00  0.00    -0.560 OA
ATOM     21  H   LIG    1       -3.731  -7.596  -5.436  0.00  0.00    +0.380 HD
ENDBRANCH  19  20
ENDBRANCH  16  19
ENDBRANCH  13  16
ENDBRANCH   1  13
TORSDOF 9
ENDMDL
MODEL      132
REMARK  Name = ZINC000005187731
REMARK                            x       y       z     vdW  Elec       q    Type
REMARK                         _______ _______ _______ _____ _____    ______ ____
ROOT
ATOM      1  CA  LIG    1       -0.735   1.537   1.254  0.00  0.00    +0.190 C 
ATOM      2  C   LIG    1       -0.363   2.957   1.646  0.00  0.00    +0.530 C 
ATOM      3  N   LIG    1        0.435   2.510   2.631  0.00  0.00    -0.540 N 
ATOM      4  CA  LIG    1        1.492   2.987   3.425  0.00  0.00    +0.070 C 
ATOM      5  C   LIG    1        2.417   2.146   3.870  0.00  0.00    -0.150 C 
ATOM      6  C   LIG    1        2.487   0.666   3.687  0.00  0.00    +0.250 C 
ATOM      7  S   LIG    1        1.476   0.096   2.287  0.00  0.00    -0.270 S 
ATOM      8  O   LIG    1       -0.666   4.057   1.234  0.00  0.00    -0.390 OA
ATOM      9  C   LIG    1       -0.034   1.089   2.532  0.00  0.00    +0.290 C 
ENDROOT
BRANCH   1  10
ATOM     10  N   LIG    1       -0.076   1.073   0.025  0.00  0.00    -0.610 N 
ATOM     11  H1  LIG    1       -0.574   1.427  -0.778  0.00  0.00    +0.440 HD
ATOM     12  H2  LIG    1        0.875   1.409   0.007  0.00  0.00    +0.440 HD
ATOM     13  H3  LIG    1       -0.076   0.064   0.004  0.00  0.00    +0.440 HD
ENDBRANCH   1  10
BRANCH   4  14
ATOM     14  C   LIG    1        1.574   4.417   3.761  0.00  0.00    +0.520 C 
ATOM     15  OXT LIG    1        0.784   5.209   3.265  0.00  0.00    -0.650 OA
ATOM     16  O   LIG    1        2.432   4.815   4.537  0.00  0.00    -0.650 OA
ENDBRANCH   4  14
BRANCH   5  17
ATOM     17  C   LIG    1        3.539   2.764   4.663  0.00  0.00    +0.300 C 
BRANCH  17  18
ATOM     18  O   LIG    1        4.509   1.762   4.976  0.00  0.00    -0.600 OA
ATOM     19  H   LIG    1        5.223   2.072   5.551  0.00  0.00    +0.390 HD
ENDBRANCH  17  18
ENDBRANCH   5  17
TORSDOF 4
ENDMDL
MODEL      133
REMARK  Name = ZINC000126769548
REMARK                            x       y       z     vdW  Elec       q    Type
REMARK                         _______ _______ _______ _____ _____    ______ ____
ROOT
ATOM      1  N   LIG    1       -2.643  -2.570   0.013  0.00  0.00    -0.720 N 
ATOM      2  H   LIG    1       -3.355  -1.912   0.024  0.00  0.00    +0.410 HD
ATOM      3  C   LIG    1       -2.941  -3.885   0.009  0.00  0.00    +0.520 C 
ATOM      4  O   LIG    1       -2.050  -4.708  -0.004  0.00  0.00    -0.510 OA
ENDROOT
BRANCH   3   5
ATOM      5  C   LIG    1       -4.380  -4.331   0.021  0.00  0.00    +0.160 C 
ATOM      6  C   LIG    1       -4.928  -4.247   1.449  0.00  0.00    +0.140 C 
ATOM      7  S   LIG    1       -6.681  -4.730   1.424  0.00  0.00    -0.250 S 
ATOM      8  C   LIG    1       -6.621  -6.317   0.538  0.00  0.00    +0.130 C 
ATOM      9  C   LIG    1       -5.839  -6.117  -0.765  0.00  0.00    +0.200 C 
ATOM     10  N   LIG    1       -4.464  -5.712  -0.462  0.00  0.00    -0.680 NA
ATOM     11  H   LIG    1       -3.862  -5.852  -1.259  0.00  0.00    +0.360 HD
ENDBRANCH   3   5
BRANCH   1  12
ATOM     12  C   LIG    1       -1.244  -2.135   0.003  0.00  0.00    +0.370 C 
BRANCH  12  13
ATOM     13  C   LIG    1       -1.185  -0.630   0.010  0.00  0.00    +0.460 C 
ATOM     14  O   LIG    1       -2.208   0.015   0.023  0.00  0.00    -0.500 OA
BRANCH  13  16
ATOM     15  C   LIG    1       -0.018   1.448   0.010  0.00  0.00    +0.290 C 
ATOM     16  O   LIG    1        0.002  -0.004   0.002  0.00  0.00    -0.350 OA
ENDBRANCH  13  16
ENDBRANCH  12  13
ENDBRANCH   1  12
TORSDOF 4
ENDMDL
MODEL      134
REMARK  Name = ZINC000042783804
REMARK                            x       y       z     vdW  Elec       q    Type
REMARK                         _______ _______ _______ _____ _____    ______ ____
ROOT
ATOM      1  C   LIG    1        1.254   1.958  -0.017  0.00  0.00    -0.020 A 
ATOM      2  C   LIG    1        2.519   1.436   0.048  0.00  0.00    -0.160 A 
ATOM      3  C   LIG    1        2.987   0.011   0.153  0.00  0.00    +0.270 C 
ATOM      4  N   LIG    1        4.417  -0.026  -0.205  0.00  0.00    -0.690 NA
ATOM      5  H   LIG    1        4.796  -0.953  -0.085  0.00  0.00    +0.350 HD
ATOM      6  C   LIG    1        5.193   0.963   0.555  0.00  0.00    +0.190 C 
ATOM      7  C   LIG    1        4.890   2.377   0.041  0.00  0.00    +0.150 C 
ATOM      8  C   LIG    1        3.390   2.535  -0.009  0.00  0.00    +0.050 A 
ATOM      9  N   LIG    1        2.667   3.609  -0.103  0.00  0.00    -0.260 NA
ATOM     10  N   LIG    1        1.412   3.315  -0.117  0.00  0.00    -0.380 N 
ATOM     11  H   LIG    1        0.689   3.958  -0.180  0.00  0.00    +0.450 HD
ENDROOT
BRANCH   1  13
ATOM     12  O   LIG    1       -0.690   1.196   1.020  0.00  0.00    -0.510 OA
ATOM     13  C   LIG    1       -0.014   1.212   0.009  0.00  0.00    +0.600 C 
ATOM     14  N   LIG    1       -0.425   0.543  -1.087  0.00  0.00    -0.610 N 
ATOM     15  C   LIG    1       -1.738  -0.123  -1.131  0.00  0.00    +0.300 C 
ATOM     16  C   LIG    1       -2.562   0.519  -2.249  0.00  0.00    +0.260 C 
ATOM     17  N   LIG    1       -1.771   0.646  -3.465  0.00  0.00    -0.720 N 
ATOM     18  H   LIG    1       -2.247   0.726  -4.306  0.00  0.00    +0.400 HD
ATOM     19  C   LIG    1       -0.438   0.658  -3.504  0.00  0.00    +0.510 C 
ATOM     20  O   LIG    1        0.108   0.850  -4.570  0.00  0.00    -0.540 OA
ATOM     21  C   LIG    1        0.417   0.453  -2.289  0.00  0.00    +0.330 C 
ENDBRANCH   1  13
TORSDOF 1
ENDMDL
MODEL      135
REMARK  Name = ZINC000005009568
REMARK                            x       y       z     vdW  Elec       q    Type
REMARK                         _______ _______ _______ _____ _____    ______ ____
ROOT
ATOM      1  N   LIG    1        2.407   1.043  -0.015  0.00  0.00    -0.660 N 
ATOM      2  H   LIG    1        2.242   0.087  -0.019  0.00  0.00    +0.440 HD
ENDROOT
BRANCH   1   3
ATOM      3  C   LIG    1        3.716   1.526  -0.025  0.00  0.00    +0.350 A 
ATOM      4  N   LIG    1        3.949   2.813  -0.015  0.00  0.00    -0.300 NA
ATOM      5  N   LIG    1        5.268   3.281  -0.025  0.00  0.00    -0.460 N 
ATOM      6  H   LIG    1        5.437   4.236  -0.017  0.00  0.00    +0.470 HD
ATOM      7  C   LIG    1        6.306   2.426  -0.045  0.00  0.00    +0.500 A 
ATOM      8  N   LIG    1        6.110   1.094  -0.056  0.00  0.00    -0.610 N 
ATOM      9  H   LIG    1        6.870   0.492  -0.070  0.00  0.00    +0.450 HD
ATOM     10  S   LIG    1        7.903   3.041  -0.057  0.00  0.00    -0.530 S 
ATOM     11  C   LIG    1        4.856   0.595  -0.041  0.00  0.00    +0.520 A 
ATOM     12  O   LIG    1        4.671  -0.607  -0.050  0.00  0.00    -0.450 OA
ENDBRANCH   1   3
BRANCH   1  13
ATOM     13  C   LIG    1        1.280   1.980   0.001  0.00  0.00    +0.330 C 
BRANCH  13  15
ATOM     14  O   LIG    1        0.002  -0.004   0.002  0.00  0.00    -0.530 OA
ATOM     15  C   LIG    1       -0.014   1.209   0.009  0.00  0.00    +0.510 C 
ATOM     16  N   LIG    1       -1.191   1.867   0.018  0.00  0.00    -0.720 N 
ATOM     17  H   LIG    1       -1.204   2.837   0.023  0.00  0.00    +0.410 HD
BRANCH  16  18
ATOM     18  C   LIG    1       -2.449   1.117   0.020  0.00  0.00    +0.290 C 
BRANCH  18  19
ATOM     19  C   LIG    1       -3.626   2.095   0.031  0.00  0.00    +0.190 C 
BRANCH  19  20
ATOM     20  O   LIG    1       -3.633   2.844  -1.186  0.00  0.00    -0.570 OA
ATOM     21  H   LIG    1       -4.354   3.486  -1.249  0.00  0.00    +0.390 HD
ENDBRANCH  19  20
ENDBRANCH  18  19
ENDBRANCH  16  18
ENDBRANCH  13  15
ENDBRANCH   1  13
TORSDOF 6
ENDMDL
MODEL      136
REMARK  Name = ZINC000044021593
REMARK                            x       y       z     vdW  Elec       q    Type
REMARK                         _______ _______ _______ _____ _____    ______ ____
ROOT
ATOM      1  N   LIG    1       -2.154  -0.018  -1.318  0.00  0.00    -0.500 NA
ATOM      2  C   LIG    1       -1.465  -0.580  -2.487  0.00  0.00    +0.140 C 
ATOM      3  C   LIG    1       -2.205  -0.171  -3.762  0.00  0.00    +0.140 C 
ATOM      4  C   LIG    1       -3.645  -0.688  -3.698  0.00  0.00    +0.150 C 
ATOM      5  C   LIG    1       -4.325  -0.126  -2.446  0.00  0.00    +0.220 C 
ATOM      6  C   LIG    1       -3.523  -0.536  -1.209  0.00  0.00    +0.160 C 
ENDROOT
BRANCH   5   7
ATOM      7  O   LIG    1       -5.652  -0.648  -2.350  0.00  0.00    -0.570 OA
ATOM      8  H   LIG    1       -6.217  -0.428  -3.104  0.00  0.00    +0.390 HD
ENDBRANCH   5   7
BRANCH   4   9
ATOM      9  O   LIG    1       -4.358  -0.262  -4.862  0.00  0.00    -0.550 OA
ATOM     10  H   LIG    1       -3.978  -0.579  -5.693  0.00  0.00    +0.380 HD
ENDBRANCH   4   9
BRANCH   3  11
ATOM     11  O   LIG    1       -2.213   1.253  -3.874  0.00  0.00    -0.530 OA
ATOM     12  H   LIG    1       -1.332   1.649  -3.917  0.00  0.00    +0.380 HD
ENDBRANCH   3  11
BRANCH   1  13
ATOM     13  C   LIG    1       -1.394  -0.272  -0.087  0.00  0.00    +0.190 C 
BRANCH  13  14
ATOM     14  C   LIG    1       -0.063   0.478  -0.144  0.00  0.00    +0.170 C 
BRANCH  14  15
ATOM     15  O   LIG    1       -0.309   1.886  -0.151  0.00  0.00    -0.550 OA
ATOM     16  H   LIG    1        0.492   2.426  -0.187  0.00  0.00    +0.370 HD
ENDBRANCH  14  15
ENDBRANCH  13  14
ENDBRANCH   1  13
BRANCH   6  17
ATOM     17  C   LIG    1       -4.188   0.040   0.043  0.00  0.00    +0.200 C 
BRANCH  17  18
ATOM     18  O   LIG    1       -4.295   1.459  -0.085  0.00  0.00    -0.550 OA
ATOM     19  H   LIG    1       -4.708   1.893   0.675  0.00  0.00    +0.370 HD
ENDBRANCH  17  18
ENDBRANCH   6  17
TORSDOF 8
ENDMDL
MODEL      137
REMARK  Name = ZINC000100165769
REMARK                            x       y       z     vdW  Elec       q    Type
REMARK                         _______ _______ _______ _____ _____    ______ ____
ROOT
ATOM      1  C   LIG    1        0.665  -2.071  -1.123  0.00  0.00    +0.080 C 
ATOM      2  C   LIG    1        1.297  -2.710  -2.144  0.00  0.00    +0.090 C 
ATOM      3  N   LIG    1        1.440  -4.085  -2.322  0.00  0.00    -0.640 N 
ATOM      4  H   LIG    1        1.102  -4.775  -1.730  0.00  0.00    +0.450 HD
ATOM      5  C   LIG    1        2.129  -4.285  -3.458  0.00  0.00    +0.710 C 
ATOM      6  N   LIG    1        2.450  -3.121  -4.043  0.00  0.00    -0.670 N 
ATOM      7  H   LIG    1        2.946  -3.029  -4.871  0.00  0.00    +0.450 HD
ATOM      8  O   LIG    1        2.423  -5.379  -3.900  0.00  0.00    -0.510 OA
ATOM      9  C   LIG    1        1.973  -2.096  -3.306  0.00  0.00    +0.550 C 
ATOM     10  O   LIG    1        2.084  -0.909  -3.545  0.00  0.00    -0.390 OA
ENDROOT
BRANCH   1  11
ATOM     11  C   LIG    1        0.466  -0.612  -1.178  0.00  0.00    +0.470 C 
ATOM     12  O   LIG    1        0.948   0.033  -2.088  0.00  0.00    -0.440 OA
BRANCH  11  14
ATOM     13  C   LIG    1       -0.405   1.447  -0.336  0.00  0.00    +0.290 C 
ATOM     14  O   LIG    1       -0.250   0.008  -0.218  0.00  0.00    -0.350 OA
ENDBRANCH  11  14
ENDBRANCH   1  11
BRANCH   1  15
ATOM     15  O   LIG    1        0.218  -2.776  -0.055  0.00  0.00    -0.310 OA
ATOM     16  C   LIG    1        0.848  -2.520   1.202  0.00  0.00    +0.250 C 
ENDBRANCH   1  15
TORSDOF 3
ENDMDL
MODEL      138
REMARK  Name = ZINC000334159035
REMARK                            x       y       z     vdW  Elec       q    Type
REMARK                         _______ _______ _______ _____ _____    ______ ____
ROOT
ATOM      1  C   LIG    1       -2.803  -3.938   0.008  0.00  0.00    +0.140 A 
ATOM      2  N   LIG    1       -1.629  -4.510  -0.001  0.00  0.00    -0.340 NA
ATOM      3  C   LIG    1       -1.543  -5.854  -0.009  0.00  0.00    +0.110 A 
ATOM      4  N   LIG    1       -0.593  -6.759  -0.019  0.00  0.00    -0.210 NA
ATOM      5  O   LIG    1       -1.079  -7.869  -0.024  0.00  0.00    +0.310 OA
ATOM      6  N   LIG    1       -2.292  -7.928  -0.018  0.00  0.00    -0.480 N 
ATOM      7  H   LIG    1       -2.822  -8.740  -0.020  0.00  0.00    +0.490 HD
ATOM      8  C   LIG    1       -2.776  -6.670  -0.008  0.00  0.00    +0.360 A 
ATOM      9  N   LIG    1       -3.955  -6.084   0.001  0.00  0.00    -0.570 NA
ATOM     10  C   LIG    1       -4.028  -4.749   0.015  0.00  0.00    +0.510 A 
ATOM     11  O   LIG    1       -5.119  -4.201   0.024  0.00  0.00    -0.450 OA
ENDROOT
BRANCH   1  12
ATOM     12  C   LIG    1       -2.902  -2.434   0.017  0.00  0.00    +0.240 C 
BRANCH  12  13
ATOM     13  C   LIG    1       -1.518  -1.840   0.007  0.00  0.00    +0.450 C 
ATOM     14  O   LIG    1       -0.550  -2.562  -0.006  0.00  0.00    -0.460 OA
BRANCH  13  15
ATOM     15  O   LIG    1       -1.360  -0.507   0.012  0.00  0.00    -0.360 OA
BRANCH  15  17
ATOM     16  C   LIG    1       -0.019   1.526   0.010  0.00  0.00    +0.070 C 
ATOM     17  C   LIG    1        0.002  -0.004   0.002  0.00  0.00    +0.200 C 
ENDBRANCH  15  17
ENDBRANCH  13  15
ENDBRANCH  12  13
ENDBRANCH   1  12
TORSDOF 4
ENDMDL
MODEL      139
REMARK  Name = ZINC000651885817
REMARK                            x       y       z     vdW  Elec       q    Type
REMARK                         _______ _______ _______ _____ _____    ______ ____
ROOT
ATOM      1  N   LIG    1        0.796  -0.399  -1.397  0.00  0.00    -1.000 NA
ATOM      2  C   LIG    1        0.060  -0.584  -2.656  0.00  0.00    +0.310 C 
ATOM      3  C   LIG    1        0.726   0.269  -3.740  0.00  0.00    +0.170 C 
ATOM      4  N   LIG    1        2.158  -0.056  -3.804  0.00  0.00    -0.530 NA
ATOM      5  C   LIG    1        2.837   0.280  -2.545  0.00  0.00    +0.170 C 
ATOM      6  C   LIG    1        2.257  -0.567  -1.413  0.00  0.00    +0.310 C 
ENDROOT
BRANCH   1   8
ATOM      7  C   LIG    1       -0.022   1.810   0.012  0.00  0.00    -0.280 C 
ATOM      8  S   LIG    1        0.002  -0.004   0.002  0.00  0.00    +2.610 S 
ATOM      9  O   LIG    1       -1.309  -0.519  -0.182  0.00  0.00    -0.950 OA
ATOM     10  O   LIG    1        0.845  -0.497   1.035  0.00  0.00    -0.950 OA
ENDBRANCH   1   8
BRANCH   4  11
ATOM     11  C   LIG    1        2.799   0.614  -4.943  0.00  0.00    +0.320 C 
BRANCH  11  12
ATOM     12  C   LIG    1        4.194   0.072  -5.123  0.00  0.00    +0.180 A 
ATOM     13  N   LIG    1        5.267   0.472  -4.498  0.00  0.00    -0.290 NA
ATOM     14  N   LIG    1        6.281  -0.210  -4.897  0.00  0.00    -0.300 NA
ATOM     15  C   LIG    1        5.901  -1.077  -5.796  0.00  0.00    +0.380 A 
ATOM     16  N   LIG    1        4.565  -0.926  -5.962  0.00  0.00    -0.570 N 
ATOM     17  H   LIG    1        3.992  -1.427  -6.562  0.00  0.00    +0.430 HD
ENDBRANCH  11  12
ENDBRANCH   4  11
TORSDOF 3
ENDMDL
MODEL      140
REMARK  Name = ZINC000072233433
REMARK                            x       y       z     vdW  Elec       q    Type
REMARK                         _______ _______ _______ _____ _____    ______ ____
ROOT
ATOM      1  N   LIG    1        1.875  -2.459   2.016  0.00  0.00    -0.400 N 
ATOM      2  N   LIG    1        1.802  -2.300   3.406  0.00  0.00    -0.070 NA
ATOM      3  N   LIG    1        2.863  -2.797   3.939  0.00  0.00    -0.170 NA
ATOM      4  C   LIG    1        3.666  -3.292   2.978  0.00  0.00    -0.190 A 
ATOM      5  C   LIG    1        3.045  -3.087   1.752  0.00  0.00    +0.420 A 
ENDROOT
BRANCH   1  12
ATOM      6  C   LIG    1       -0.018   1.465   0.010  0.00  0.00    +0.210 C 
ATOM      7  N   LIG    1        0.002  -0.004   0.002  0.00  0.00    -0.560 NA
ATOM      8  C   LIG    1       -1.355  -0.550  -0.191  0.00  0.00    +0.180 C 
ATOM      9  C   LIG    1       -1.237  -1.906  -0.840  0.00  0.00    +0.220 C 
ATOM     10  O   LIG    1       -1.214  -2.966   0.133  0.00  0.00    -0.380 OA
ATOM     11  C   LIG    1       -0.437  -2.719   1.323  0.00  0.00    +0.220 C 
ATOM     12  C   LIG    1        0.873  -2.033   1.035  0.00  0.00    +0.250 C 
ATOM     13  C   LIG    1        0.675  -0.505   1.129  0.00  0.00    +0.210 C 
ENDBRANCH   1  12
BRANCH   4  14
ATOM     14  C   LIG    1        4.966  -3.939   3.189  0.00  0.00    +0.620 C 
ATOM     15  O   LIG    1        5.603  -4.349   2.237  0.00  0.00    -0.560 OA
ATOM     16  N   LIG    1        5.454  -4.079   4.438  0.00  0.00    -0.840 N 
ATOM     17  H   LIG    1        6.314  -4.507   4.577  0.00  0.00    +0.410 HD
ATOM     18  H   LIG    1        4.946  -3.752   5.196  0.00  0.00    +0.410 HD
ENDBRANCH   4  14
BRANCH   5  19
ATOM     19  N   LIG    1        3.529  -3.446   0.511  0.00  0.00    -0.810 N 
ATOM     20  H   LIG    1        3.010  -3.254  -0.286  0.00  0.00    +0.410 HD
ATOM     21  H   LIG    1        4.388  -3.889   0.435  0.00  0.00    +0.440 HD
ENDBRANCH   5  19
TORSDOF 3
ENDMDL
MODEL      141
REMARK  Name = ZINC000072233434
REMARK                            x       y       z     vdW  Elec       q    Type
REMARK                         _______ _______ _______ _____ _____    ______ ____
ROOT
ATOM      1  N   LIG    1        1.018  -2.331   2.724  0.00  0.00    -0.400 N 
ATOM      2  N   LIG    1        2.406  -2.468   2.858  0.00  0.00    -0.070 NA
ATOM      3  N   LIG    1        2.673  -2.870   4.051  0.00  0.00    -0.170 NA
ATOM      4  C   LIG    1        1.530  -3.016   4.747  0.00  0.00    -0.190 A 
ATOM      5  C   LIG    1        0.472  -2.671   3.915  0.00  0.00    +0.420 A 
ENDROOT
BRANCH   1  12
ATOM      6  C   LIG    1       -0.018   1.465   0.010  0.00  0.00    +0.210 C 
ATOM      7  N   LIG    1        0.002  -0.004   0.002  0.00  0.00    -0.530 NA
ATOM      8  C   LIG    1        0.608  -0.507  -1.208  0.00  0.00    +0.150 C 
ATOM      9  C   LIG    1       -0.066  -1.799  -1.700  0.00  0.00    +0.230 C 
ATOM     10  O   LIG    1       -0.377  -2.712  -0.628  0.00  0.00    -0.370 OA
ATOM     11  C   LIG    1        0.593  -2.878   0.373  0.00  0.00    +0.230 C 
ATOM     12  C   LIG    1        0.296  -1.895   1.526  0.00  0.00    +0.250 C 
ATOM     13  C   LIG    1        0.711  -0.531   1.188  0.00  0.00    +0.180 C 
ENDBRANCH   1  12
BRANCH   4  14
ATOM     14  C   LIG    1        1.421  -3.458   6.143  0.00  0.00    +0.620 C 
ATOM     15  O   LIG    1        0.327  -3.552   6.667  0.00  0.00    -0.560 OA
ATOM     16  N   LIG    1        2.532  -3.759   6.843  0.00  0.00    -0.840 N 
ATOM     17  H   LIG    1        2.460  -4.051   7.765  0.00  0.00    +0.410 HD
ATOM     18  H   LIG    1        3.404  -3.684   6.425  0.00  0.00    +0.410 HD
ENDBRANCH   4  14
BRANCH   5  19
ATOM     19  N   LIG    1       -0.870  -2.682   4.236  0.00  0.00    -0.810 N 
ATOM     20  H   LIG    1       -1.529  -2.420   3.575  0.00  0.00    +0.410 HD
ATOM     21  H   LIG    1       -1.154  -2.951   5.124  0.00  0.00    +0.440 HD
ENDBRANCH   5  19
TORSDOF 3
ENDMDL
MODEL      142
REMARK  Name = ZINC000238853938
REMARK                            x       y       z     vdW  Elec       q    Type
REMARK                         _______ _______ _______ _____ _____    ______ ____
ROOT
ATOM      1  C   LIG    1        1.312  -2.473  -2.525  0.00  0.00    +0.200 C 
ATOM      2  C   LIG    1        2.821  -2.670  -2.226  0.00  0.00    -0.340 C 
ATOM      3  S   LIG    1        3.311  -3.800  -3.591  0.00  0.00    +2.390 S 
ATOM      4  C   LIG    1        1.737  -4.737  -3.608  0.00  0.00    -0.340 C 
ATOM      5  O   LIG    1        4.369  -4.643  -3.155  0.00  0.00    -0.930 OA
ATOM      6  O   LIG    1        3.440  -3.062  -4.798  0.00  0.00    -0.930 OA
ATOM      7  C   LIG    1        0.714  -3.825  -2.918  0.00  0.00    +0.210 C 
ENDROOT
BRANCH   1   8
ATOM      8  N   LIG    1        0.634  -1.962  -1.326  0.00  0.00    -0.650 NA
ATOM      9  H   LIG    1        1.009  -2.386  -0.490  0.00  0.00    +0.360 HD
BRANCH   8  10
ATOM     10  C   LIG    1        0.718  -0.497  -1.257  0.00  0.00    +0.190 C 
BRANCH  10  12
ATOM     11  C   LIG    1       -0.019   1.526   0.010  0.00  0.00    +0.000 C 
ATOM     12  C   LIG    1        0.002  -0.004   0.002  0.00  0.00    +0.170 C 
BRANCH  12  13
ATOM     13  O   LIG    1        0.693  -0.477   1.160  0.00  0.00    -0.570 OA
ATOM     14  H   LIG    1        0.294  -0.202   1.996  0.00  0.00    +0.380 HD
ENDBRANCH  12  13
ENDBRANCH  10  12
ENDBRANCH   8  10
ENDBRANCH   1   8
BRANCH   7  15
ATOM     15  O   LIG    1        0.229  -4.477  -1.743  0.00  0.00    -0.540 OA
ATOM     16  H   LIG    1       -0.226  -5.312  -1.916  0.00  0.00    +0.380 HD
ENDBRANCH   7  15
TORSDOF 5
ENDMDL
MODEL      143
REMARK  Name = ZINC000019789696
REMARK                            x       y       z     vdW  Elec       q    Type
REMARK                         _______ _______ _______ _____ _____    ______ ____
ROOT
ATOM      1  C   LIG    1       -3.953  -0.400  -2.812  0.00  0.00    +0.210 C 
ATOM      2  C   LIG    1       -3.563  -1.469  -3.866  0.00  0.00    -0.340 C 
ATOM      3  S   LIG    1       -4.849  -1.190  -5.150  0.00  0.00    +2.390 S 
ATOM      4  C   LIG    1       -6.189  -0.793  -3.964  0.00  0.00    -0.340 C 
ATOM      5  O   LIG    1       -5.138  -2.415  -5.809  0.00  0.00    -0.930 OA
ATOM      6  O   LIG    1       -4.524  -0.032  -5.907  0.00  0.00    -0.930 OA
ATOM      7  C   LIG    1       -5.475  -0.394  -2.665  0.00  0.00    +0.210 C 
ENDROOT
BRANCH   1   8
ATOM      8  N   LIG    1       -3.333  -0.730  -1.522  0.00  0.00    -0.650 NA
ATOM      9  H   LIG    1       -3.334  -1.726  -1.364  0.00  0.00    +0.360 HD
BRANCH   8  10
ATOM     10  C   LIG    1       -1.971  -0.185  -1.437  0.00  0.00    +0.170 C 
BRANCH  10  11
ATOM     11  C   LIG    1       -1.360  -0.549  -0.083  0.00  0.00    +0.180 C 
BRANCH  11  13
ATOM     12  C   LIG    1       -0.018   1.465   0.010  0.00  0.00    +0.190 C 
ATOM     13  N   LIG    1        0.002  -0.004   0.002  0.00  0.00    -0.550 NA
ATOM     14  C   LIG    1        0.706  -0.527   1.180  0.00  0.00    +0.190 C 
ENDBRANCH  11  13
ENDBRANCH  10  11
ENDBRANCH   8  10
ENDBRANCH   1   8
BRANCH   7  15
ATOM     15  O   LIG    1       -5.845  -1.311  -1.633  0.00  0.00    -0.540 OA
ATOM     16  H   LIG    1       -6.791  -1.317  -1.432  0.00  0.00    +0.380 HD
ENDBRANCH   7  15
TORSDOF 5
ENDMDL
MODEL      144
REMARK  Name = ZINC000238853939
REMARK                            x       y       z     vdW  Elec       q    Type
REMARK                         _______ _______ _______ _____ _____    ______ ____
ROOT
ATOM      1  C   LIG    1        1.312  -2.473  -2.525  0.00  0.00    +0.180 C 
ATOM      2  C   LIG    1        0.338  -2.406  -3.717  0.00  0.00    -0.280 C 
ATOM      3  S   LIG    1        0.800  -3.885  -4.707  0.00  0.00    +2.390 S 
ATOM      4  C   LIG    1        1.193  -4.915  -3.236  0.00  0.00    -0.330 C 
ATOM      5  O   LIG    1        1.987  -3.621  -5.442  0.00  0.00    -0.920 OA
ATOM      6  O   LIG    1       -0.349  -4.403  -5.364  0.00  0.00    -0.930 OA
ATOM      7  C   LIG    1        1.794  -3.893  -2.253  0.00  0.00    +0.200 C 
ENDROOT
BRANCH   1   8
ATOM      8  N   LIG    1        0.634  -1.962  -1.326  0.00  0.00    -0.670 NA
ATOM      9  H   LIG    1        1.009  -2.386  -0.490  0.00  0.00    +0.360 HD
BRANCH   8  10
ATOM     10  C   LIG    1        0.718  -0.497  -1.257  0.00  0.00    +0.190 C 
BRANCH  10  12
ATOM     11  C   LIG    1       -0.019   1.526   0.010  0.00  0.00    +0.000 C 
ATOM     12  C   LIG    1        0.002  -0.004   0.002  0.00  0.00    +0.170 C 
BRANCH  12  13
ATOM     13  O   LIG    1        0.693  -0.477   1.160  0.00  0.00    -0.570 OA
ATOM     14  H   LIG    1        0.294  -0.202   1.996  0.00  0.00    +0.380 HD
ENDBRANCH  12  13
ENDBRANCH  10  12
ENDBRANCH   8  10
ENDBRANCH   1   8
BRANCH   7  15
ATOM     15  O   LIG    1        3.218  -3.923  -2.366  0.00  0.00    -0.560 OA
ATOM     16  H   LIG    1        3.612  -4.777  -2.144  0.00  0.00    +0.390 HD
ENDBRANCH   7  15
TORSDOF 5
ENDMDL
MODEL      145
REMARK  Name = ZINC000019789693
REMARK                            x       y       z     vdW  Elec       q    Type
REMARK                         _______ _______ _______ _____ _____    ______ ____
ROOT
ATOM      1  C   LIG    1       -3.953  -0.400  -2.812  0.00  0.00    +0.210 C 
ATOM      2  C   LIG    1       -3.563  -1.469  -3.866  0.00  0.00    -0.340 C 
ATOM      3  S   LIG    1       -4.849  -1.190  -5.150  0.00  0.00    +2.400 S 
ATOM      4  C   LIG    1       -6.189  -0.793  -3.964  0.00  0.00    -0.330 C 
ATOM      5  O   LIG    1       -5.138  -2.415  -5.809  0.00  0.00    -0.930 OA
ATOM      6  O   LIG    1       -4.524  -0.032  -5.907  0.00  0.00    -0.920 OA
ATOM      7  C   LIG    1       -5.475  -0.394  -2.665  0.00  0.00    +0.210 C 
ENDROOT
BRANCH   1   8
ATOM      8  N   LIG    1       -3.333  -0.730  -1.522  0.00  0.00    -0.670 NA
ATOM      9  H   LIG    1       -3.334  -1.726  -1.364  0.00  0.00    +0.350 HD
BRANCH   8  10
ATOM     10  C   LIG    1       -1.971  -0.185  -1.437  0.00  0.00    +0.190 C 
BRANCH  10  11
ATOM     11  C   LIG    1       -1.360  -0.549  -0.083  0.00  0.00    +0.170 C 
BRANCH  11  13
ATOM     12  C   LIG    1       -0.018   1.465   0.010  0.00  0.00    +0.190 C 
ATOM     13  N   LIG    1        0.002  -0.004   0.002  0.00  0.00    -0.550 NA
ATOM     14  C   LIG    1        0.706  -0.527   1.180  0.00  0.00    +0.190 C 
ENDBRANCH  11  13
ENDBRANCH  10  11
ENDBRANCH   8  10
ENDBRANCH   1   8
BRANCH   7  15
ATOM     15  O   LIG    1       -5.893   0.921  -2.291  0.00  0.00    -0.550 OA
ATOM     16  H   LIG    1       -6.840   0.997  -2.115  0.00  0.00    +0.390 HD
ENDBRANCH   7  15
TORSDOF 5
ENDMDL
MODEL      146
REMARK  Name = ZINC000019789691
REMARK                            x       y       z     vdW  Elec       q    Type
REMARK                         _______ _______ _______ _____ _____    ______ ____
ROOT
ATOM      1  C   LIG    1       -3.953  -0.400  -2.812  0.00  0.00    +0.170 C 
ATOM      2  C   LIG    1       -4.571   1.010  -2.724  0.00  0.00    -0.280 C 
ATOM      3  S   LIG    1       -6.061   0.870  -3.791  0.00  0.00    +2.390 S 
ATOM      4  C   LIG    1       -6.402  -0.874  -3.321  0.00  0.00    -0.330 C 
ATOM      5  O   LIG    1       -5.682   0.936  -5.159  0.00  0.00    -0.930 OA
ATOM      6  O   LIG    1       -7.091   1.713  -3.292  0.00  0.00    -0.930 OA
ATOM      7  C   LIG    1       -4.990  -1.464  -3.148  0.00  0.00    +0.190 C 
ENDROOT
BRANCH   1   8
ATOM      8  N   LIG    1       -3.333  -0.730  -1.522  0.00  0.00    -0.670 NA
ATOM      9  H   LIG    1       -3.334  -1.726  -1.364  0.00  0.00    +0.360 HD
BRANCH   8  10
ATOM     10  C   LIG    1       -1.971  -0.185  -1.437  0.00  0.00    +0.170 C 
BRANCH  10  11
ATOM     11  C   LIG    1       -1.360  -0.549  -0.083  0.00  0.00    +0.180 C 
BRANCH  11  13
ATOM     12  C   LIG    1       -0.018   1.465   0.010  0.00  0.00    +0.190 C 
ATOM     13  N   LIG    1        0.002  -0.004   0.002  0.00  0.00    -0.550 NA
ATOM     14  C   LIG    1        0.706  -0.527   1.180  0.00  0.00    +0.190 C 
ENDBRANCH  11  13
ENDBRANCH  10  11
ENDBRANCH   8  10
ENDBRANCH   1   8
BRANCH   7  15
ATOM     15  O   LIG    1       -5.018  -2.430  -2.096  0.00  0.00    -0.550 OA
ATOM     16  H   LIG    1       -5.606  -3.179  -2.265  0.00  0.00    +0.390 HD
ENDBRANCH   7  15
TORSDOF 5
ENDMDL
MODEL      147
REMARK  Name = ZINC000019789694
REMARK                            x       y       z     vdW  Elec       q    Type
REMARK                         _______ _______ _______ _____ _____    ______ ____
ROOT
ATOM      1  C   LIG    1       -3.953  -0.400  -2.812  0.00  0.00    +0.180 C 
ATOM      2  C   LIG    1       -4.571   1.010  -2.724  0.00  0.00    -0.280 C 
ATOM      3  S   LIG    1       -6.061   0.870  -3.791  0.00  0.00    +2.390 S 
ATOM      4  C   LIG    1       -6.402  -0.874  -3.321  0.00  0.00    -0.330 C 
ATOM      5  O   LIG    1       -5.682   0.936  -5.159  0.00  0.00    -0.920 OA
ATOM      6  O   LIG    1       -7.091   1.713  -3.292  0.00  0.00    -0.930 OA
ATOM      7  C   LIG    1       -4.990  -1.464  -3.148  0.00  0.00    +0.200 C 
ENDROOT
BRANCH   1   8
ATOM      8  N   LIG    1       -3.333  -0.730  -1.522  0.00  0.00    -0.680 NA
ATOM      9  H   LIG    1       -3.334  -1.726  -1.364  0.00  0.00    +0.350 HD
BRANCH   8  10
ATOM     10  C   LIG    1       -1.971  -0.185  -1.437  0.00  0.00    +0.190 C 
BRANCH  10  11
ATOM     11  C   LIG    1       -1.360  -0.549  -0.083  0.00  0.00    +0.170 C 
BRANCH  11  13
ATOM     12  C   LIG    1       -0.018   1.465   0.010  0.00  0.00    +0.190 C 
ATOM     13  N   LIG    1        0.002  -0.004   0.002  0.00  0.00    -0.550 NA
ATOM     14  C   LIG    1        0.706  -0.527   1.180  0.00  0.00    +0.190 C 
ENDBRANCH  11  13
ENDBRANCH  10  11
ENDBRANCH   8  10
ENDBRANCH   1   8
BRANCH   7  15
ATOM     15  O   LIG    1       -4.606  -2.110  -4.364  0.00  0.00    -0.560 OA
ATOM     16  H   LIG    1       -5.179  -2.846  -4.616  0.00  0.00    +0.390 HD
ENDBRANCH   7  15
TORSDOF 5
ENDMDL
MODEL      148
REMARK  Name = ZINC000026442016
REMARK                            x       y       z     vdW  Elec       q    Type
REMARK                         _______ _______ _______ _____ _____    ______ ____
ROOT
ATOM      1  C   LIG    1       -2.810  -4.041   0.007  0.00  0.00    +0.370 C 
ATOM      2  O   LIG    1       -3.038  -4.521   1.333  0.00  0.00    -0.370 OA
ATOM      3  C   LIG    1       -4.261  -4.066   1.917  0.00  0.00    +0.180 C 
ATOM      4  C   LIG    1       -5.441  -4.558   1.075  0.00  0.00    +0.160 C 
ATOM      5  C   LIG    1       -5.278  -4.052  -0.362  0.00  0.00    +0.130 C 
ATOM      6  C   LIG    1       -3.931  -4.532  -0.912  0.00  0.00    +0.130 C 
ENDROOT
BRANCH   1   7
ATOM      7  N   LIG    1       -2.791  -2.572   0.015  0.00  0.00    -0.690 NA
ATOM      8  H   LIG    1       -3.305  -2.208   0.803  0.00  0.00    +0.340 HD
BRANCH   7   9
ATOM      9  C   LIG    1       -1.413  -2.063   0.004  0.00  0.00    +0.180 C 
BRANCH   9  10
ATOM     10  C   LIG    1       -1.433  -0.534   0.013  0.00  0.00    +0.010 C 
BRANCH  10  12
ATOM     11  C   LIG    1       -0.019   1.526   0.010  0.00  0.00    +0.000 C 
ATOM     12  C   LIG    1        0.002  -0.004   0.002  0.00  0.00    +0.000 C 
ENDBRANCH  10  12
ENDBRANCH   9  10
ENDBRANCH   7   9
ENDBRANCH   1   7
BRANCH   5  13
ATOM     13  O   LIG    1       -6.338  -4.566  -1.172  0.00  0.00    -0.560 OA
ATOM     14  H   LIG    1       -6.298  -4.285  -2.097  0.00  0.00    +0.380 HD
ENDBRANCH   5  13
BRANCH   4  15
ATOM     15  O   LIG    1       -6.661  -4.058   1.624  0.00  0.00    -0.550 OA
ATOM     16  H   LIG    1       -7.452  -4.331   1.139  0.00  0.00    +0.390 HD
ENDBRANCH   4  15
BRANCH   6  17
ATOM     17  O   LIG    1       -3.738  -4.006  -2.227  0.00  0.00    -0.540 OA
ATOM     18  H   LIG    1       -4.416  -4.274  -2.861  0.00  0.00    +0.380 HD
ENDBRANCH   6  17
BRANCH   3  19
ATOM     19  C   LIG    1       -4.384  -4.617   3.339  0.00  0.00    +0.230 C 
BRANCH  19  20
ATOM     20  O   LIG    1       -3.348  -4.066   4.154  0.00  0.00    -0.570 OA
ATOM     21  H   LIG    1       -3.364  -4.373   5.072  0.00  0.00    +0.380 HD
ENDBRANCH  19  20
ENDBRANCH   3  19
TORSDOF 9
ENDMDL
MODEL      149
REMARK  Name = ZINC000201779749
REMARK                            x       y       z     vdW  Elec       q    Type
REMARK                         _______ _______ _______ _____ _____    ______ ____
ROOT
ATOM      1  C   LIG    1        2.442  -1.839  -2.165  0.00  0.00    +0.010 C 
ATOM      2  C   LIG    1        1.392  -2.681  -2.171  0.00  0.00    +0.030 C 
ENDROOT
BRANCH   1   3
ATOM      3  C   LIG    1        2.221  -0.395  -2.099  0.00  0.00    +0.520 C 
ATOM      4  O   LIG    1        1.088   0.045  -2.050  0.00  0.00    -0.470 OA
BRANCH   3   6
ATOM      5  C   LIG    1        2.984   1.847  -2.028  0.00  0.00    +0.250 C 
ATOM      6  O   LIG    1        3.274   0.449  -2.094  0.00  0.00    -0.340 OA
ENDBRANCH   3   6
ENDBRANCH   1   3
BRANCH   2   7
ATOM      7  O   LIG    1        0.135  -2.192  -2.240  0.00  0.00    -0.420 OA
ATOM      8  H   LIG    1       -0.553  -2.872  -2.238  0.00  0.00    +0.390 HD
ENDBRANCH   2   7
BRANCH   1   9
ATOM      9  O   LIG    1        3.711  -2.332  -2.221  0.00  0.00    -0.450 OA
ATOM     10  H   LIG    1        3.759  -3.298  -2.203  0.00  0.00    +0.390 HD
ENDBRANCH   1   9
BRANCH   2  11
ATOM     11  C   LIG    1        1.619  -4.169  -2.101  0.00  0.00    +0.210 C 
BRANCH  11  12
ATOM     12  O   LIG    1        0.861  -4.716  -1.020  0.00  0.00    -0.530 OA
ATOM     13  H   LIG    1       -0.084  -4.514  -1.060  0.00  0.00    +0.380 HD
ENDBRANCH  11  12
BRANCH  11  14
ATOM     14  C   LIG    1        1.173  -4.815  -3.414  0.00  0.00    +0.190 C 
BRANCH  14  15
ATOM     15  O   LIG    1        1.931  -4.268  -4.495  0.00  0.00    -0.530 OA
ATOM     16  H   LIG    1        2.885  -4.408  -4.417  0.00  0.00    +0.380 HD
ENDBRANCH  14  15
BRANCH  14  17
ATOM     17  C   LIG    1        1.404  -6.326  -3.343  0.00  0.00    +0.170 C 
BRANCH  17  18
ATOM     18  O   LIG    1        0.882  -6.944  -4.521  0.00  0.00    -0.560 OA
ATOM     19  H   LIG    1        0.993  -7.904  -4.544  0.00  0.00    +0.390 HD
ENDBRANCH  17  18
ENDBRANCH  14  17
ENDBRANCH  11  14
ENDBRANCH   2  11
TORSDOF 10
ENDMDL
MODEL      150
REMARK  Name = ZINC000048547241
REMARK                            x       y       z     vdW  Elec       q    Type
REMARK                         _______ _______ _______ _____ _____    ______ ____
ROOT
ATOM      1  C   LIG    1       -2.810  -4.041   0.007  0.00  0.00    +0.330 C 
ATOM      2  O   LIG    1       -2.947  -4.509  -1.336  0.00  0.00    -0.340 OA
ATOM      3  C   LIG    1       -2.951  -5.932  -1.461  0.00  0.00    +0.180 C 
ATOM      4  C   LIG    1       -4.138  -6.508  -0.684  0.00  0.00    +0.170 C 
ATOM      5  C   LIG    1       -4.040  -6.070   0.781  0.00  0.00    +0.120 C 
ATOM      6  C   LIG    1       -3.991  -4.540   0.843  0.00  0.00    +0.130 C 
ENDROOT
BRANCH   1   7
ATOM      7  N   LIG    1       -2.791  -2.572   0.015  0.00  0.00    -0.670 NA
ATOM      8  H   LIG    1       -3.305  -2.208   0.803  0.00  0.00    +0.360 HD
BRANCH   7   9
ATOM      9  C   LIG    1       -1.413  -2.063   0.004  0.00  0.00    +0.170 C 
BRANCH   9  10
ATOM     10  C   LIG    1       -1.433  -0.534   0.013  0.00  0.00    +0.010 C 
BRANCH  10  12
ATOM     11  C   LIG    1       -0.019   1.526   0.010  0.00  0.00    +0.010 C 
ATOM     12  C   LIG    1        0.002  -0.004   0.002  0.00  0.00    +0.000 C 
ENDBRANCH  10  12
ENDBRANCH   9  10
ENDBRANCH   7   9
ENDBRANCH   1   7
BRANCH   5  13
ATOM     13  O   LIG    1       -5.182  -6.543   1.498  0.00  0.00    -0.560 OA
ATOM     14  H   LIG    1       -5.186  -6.302   2.435  0.00  0.00    +0.380 HD
ENDBRANCH   5  13
BRANCH   4  15
ATOM     15  O   LIG    1       -5.358  -6.023  -1.248  0.00  0.00    -0.540 OA
ATOM     16  H   LIG    1       -6.153  -6.348  -0.804  0.00  0.00    +0.390 HD
ENDBRANCH   4  15
BRANCH   6  17
ATOM     17  O   LIG    1       -3.828  -4.123   2.200  0.00  0.00    -0.560 OA
ATOM     18  H   LIG    1       -4.541  -4.409   2.788  0.00  0.00    +0.380 HD
ENDBRANCH   6  17
BRANCH   3  19
ATOM     19  C   LIG    1       -3.073  -6.315  -2.937  0.00  0.00    +0.220 C 
BRANCH  19  20
ATOM     20  O   LIG    1       -1.909  -5.877  -3.640  0.00  0.00    -0.570 OA
ATOM     21  H   LIG    1       -1.918  -6.087  -4.585  0.00  0.00    +0.380 HD
ENDBRANCH  19  20
ENDBRANCH   3  19
TORSDOF 9
ENDMDL
MODEL      151
REMARK  Name = ZINC000104145238
REMARK                            x       y       z     vdW  Elec       q    Type
REMARK                         _______ _______ _______ _____ _____    ______ ____
ROOT
ATOM      1  C   LIG    1       -1.286  -0.412   0.071  0.00  0.00    +0.260 C 
ATOM      2  C   LIG    1       -1.060  -1.900   0.066  0.00  0.00    +0.520 C 
ATOM      3  N   LIG    1       -1.193  -2.659   1.154  0.00  0.00    -0.720 N 
ATOM      4  H   LIG    1       -0.966  -3.599   1.078  0.00  0.00    +0.400 HD
ATOM      5  C   LIG    1       -1.655  -2.176   2.448  0.00  0.00    +0.260 C 
ATOM      6  C   LIG    1       -1.453  -0.664   2.566  0.00  0.00    +0.280 C 
ATOM      7  O   LIG    1       -0.741  -2.433  -0.976  0.00  0.00    -0.540 OA
ATOM      8  N   LIG    1       -1.950  -0.034   1.327  0.00  0.00    -0.610 N 
ATOM      9  C   LIG    1       -2.967   0.850   1.349  0.00  0.00    +0.530 C 
ATOM     10  O   LIG    1       -3.294   1.423   0.332  0.00  0.00    -0.500 OA
ENDROOT
BRANCH   9  11
ATOM     11  C   LIG    1       -3.699   1.125   2.638  0.00  0.00    +0.170 C 
ATOM     12  C   LIG    1       -4.521  -0.105   3.031  0.00  0.00    +0.170 C 
ATOM     13  N   LIG    1       -5.292   0.196   4.246  0.00  0.00    -0.680 NA
ATOM     14  H   LIG    1       -5.815  -0.611   4.552  0.00  0.00    +0.350 HD
ATOM     15  C   LIG    1       -6.180   1.348   4.028  0.00  0.00    +0.150 C 
ATOM     16  C   LIG    1       -5.340   2.563   3.625  0.00  0.00    +0.230 C 
ATOM     17  O   LIG    1       -4.574   2.242   2.461  0.00  0.00    -0.360 OA
ENDBRANCH   9  11
BRANCH   1  19
ATOM     18  C   LIG    1       -0.183   1.818  -0.152  0.00  0.00    +0.030 C 
ATOM     19  C   LIG    1        0.057   0.311  -0.038  0.00  0.00    +0.040 C 
ENDBRANCH   1  19
TORSDOF 2
ENDMDL
MODEL      152
REMARK  Name = ZINC000100005182
REMARK                            x       y       z     vdW  Elec       q    Type
REMARK                         _______ _______ _______ _____ _____    ______ ____
ROOT
ATOM      1  C   LIG    1        0.543  -2.065  -1.216  0.00  0.00    +0.000 C 
ATOM      2  C   LIG    1        1.273  -2.643  -2.189  0.00  0.00    +0.040 C 
ENDROOT
BRANCH   1   3
ATOM      3  C   LIG    1        0.456  -0.608  -1.136  0.00  0.00    +0.520 C 
ATOM      4  O   LIG    1        1.043   0.083  -1.947  0.00  0.00    -0.470 OA
BRANCH   3   6
ATOM      5  C   LIG    1       -0.317   1.399  -0.142  0.00  0.00    +0.250 C 
ATOM      6  O   LIG    1       -0.276  -0.029  -0.161  0.00  0.00    -0.340 OA
ENDBRANCH   3   6
ENDBRANCH   1   3
BRANCH   2   7
ATOM      7  O   LIG    1        2.019  -1.880  -3.017  0.00  0.00    -0.420 OA
ATOM      8  H   LIG    1        2.508  -2.384  -3.682  0.00  0.00    +0.390 HD
ENDBRANCH   2   7
BRANCH   1   9
ATOM      9  O   LIG    1       -0.115  -2.838  -0.307  0.00  0.00    -0.450 OA
ATOM     10  H   LIG    1       -0.063  -3.787  -0.488  0.00  0.00    +0.390 HD
ENDBRANCH   1   9
BRANCH   2  11
ATOM     11  C   LIG    1        1.258  -4.141  -2.353  0.00  0.00    +0.220 C 
BRANCH  11  12
ATOM     12  O   LIG    1        2.600  -4.632  -2.362  0.00  0.00    -0.530 OA
ATOM     13  H   LIG    1        3.146  -4.273  -3.074  0.00  0.00    +0.380 HD
ENDBRANCH  11  12
BRANCH  11  14
ATOM     14  C   LIG    1        0.574  -4.502  -3.673  0.00  0.00    +0.210 C 
BRANCH  14  15
ATOM     15  O   LIG    1        1.220  -3.817  -4.748  0.00  0.00    -0.540 OA
ATOM     16  H   LIG    1        2.158  -4.033  -4.844  0.00  0.00    +0.370 HD
ENDBRANCH  14  15
BRANCH  14  17
ATOM     17  C   LIG    1        0.668  -6.012  -3.900  0.00  0.00    +0.170 C 
BRANCH  17  18
ATOM     18  O   LIG    1       -0.070  -6.364  -5.072  0.00  0.00    -0.560 OA
ATOM     19  H   LIG    1       -0.054  -7.309  -5.277  0.00  0.00    +0.390 HD
ENDBRANCH  17  18
ENDBRANCH  14  17
ENDBRANCH  11  14
ENDBRANCH   2  11
TORSDOF 10
ENDMDL
MODEL      153
REMARK  Name = ZINC000252561111
REMARK                            x       y       z     vdW  Elec       q    Type
REMARK                         _______ _______ _______ _____ _____    ______ ____
ROOT
ATOM      1  N   LIG    1        1.568  -4.068   2.238  0.00  0.00    -0.670 NA
ATOM      2  H   LIG    1        0.679  -4.509   2.054  0.00  0.00    +0.360 HD
ENDROOT
BRANCH   1   3
ATOM      3  C   LIG    1        2.201  -4.638   3.434  0.00  0.00    +0.150 C 
ATOM      4  C   LIG    1        1.857  -6.136   3.570  0.00  0.00    +0.100 C 
ATOM      5  C   LIG    1        3.204  -6.819   3.491  0.00  0.00    +0.540 C 
ATOM      6  N   LIG    1        4.159  -5.893   3.338  0.00  0.00    -0.680 N 
ATOM      7  H   LIG    1        5.100  -6.116   3.266  0.00  0.00    +0.420 HD
ATOM      8  O   LIG    1        3.390  -8.015   3.556  0.00  0.00    -0.480 OA
ATOM      9  C   LIG    1        3.708  -4.629   3.295  0.00  0.00    +0.540 C 
ATOM     10  O   LIG    1        4.398  -3.641   3.163  0.00  0.00    -0.470 OA
ENDBRANCH   1   3
BRANCH   1  11
ATOM     11  C   LIG    1        1.417  -2.612   2.365  0.00  0.00    +0.210 C 
BRANCH  11  17
ATOM     12  C   LIG    1       -0.018   1.465   0.010  0.00  0.00    +0.190 C 
ATOM     13  N   LIG    1        0.002  -0.004   0.002  0.00  0.00    -0.540 NA
ATOM     14  C   LIG    1       -1.361  -0.549  -0.075  0.00  0.00    +0.140 C 
ATOM     15  C   LIG    1       -1.291  -2.077  -0.141  0.00  0.00    +0.230 C 
ATOM     16  O   LIG    1       -0.576  -2.566   0.997  0.00  0.00    -0.390 OA
ATOM     17  C   LIG    1        0.756  -2.056   1.102  0.00  0.00    +0.170 C 
ATOM     18  C   LIG    1        0.707  -0.528   1.181  0.00  0.00    +0.150 C 
ENDBRANCH  11  17
ENDBRANCH   1  11
TORSDOF 3
ENDMDL
MODEL      154
REMARK  Name = ZINC000110666018
REMARK                            x       y       z     vdW  Elec       q    Type
REMARK                         _______ _______ _______ _____ _____    ______ ____
ROOT
ATOM      1  C   LIG    1       -0.373   1.598   0.642  0.00  0.00    +0.070 C 
ATOM      2  C   LIG    1       -0.061   0.199   0.108  0.00  0.00    +0.160 C 
ATOM      3  C   LIG    1        0.687   0.311  -1.193  0.00  0.00    +0.520 C 
ATOM      4  N   LIG    1        1.988   0.040  -1.309  0.00  0.00    -0.720 N 
ATOM      5  H   LIG    1        2.406   0.200  -2.169  0.00  0.00    +0.400 HD
ATOM      6  C   LIG    1        2.823  -0.479  -0.235  0.00  0.00    +0.260 C 
ATOM      7  C   LIG    1        2.204  -0.173   1.131  0.00  0.00    +0.280 C 
ATOM      8  O   LIG    1        0.079   0.665  -2.181  0.00  0.00    -0.530 OA
ATOM      9  C   LIG    1       -1.367  -0.567  -0.114  0.00  0.00    +0.090 C 
ATOM     10  N   LIG    1        0.775  -0.524   1.077  0.00  0.00    -0.610 N 
ATOM     11  C   LIG    1        0.255  -1.470   1.884  0.00  0.00    +0.530 C 
ATOM     12  O   LIG    1       -0.906  -1.799   1.763  0.00  0.00    -0.500 OA
ENDROOT
BRANCH  11  13
ATOM     13  C   LIG    1        1.116  -2.119   2.938  0.00  0.00    +0.170 C 
ATOM     14  C   LIG    1        2.095  -3.089   2.271  0.00  0.00    +0.170 C 
ATOM     15  N   LIG    1        2.879  -3.775   3.308  0.00  0.00    -0.680 NA
ATOM     16  H   LIG    1        3.561  -4.394   2.896  0.00  0.00    +0.350 HD
ATOM     17  C   LIG    1        1.996  -4.504   4.231  0.00  0.00    +0.150 C 
ATOM     18  C   LIG    1        1.018  -3.519   4.878  0.00  0.00    +0.230 C 
ATOM     19  O   LIG    1        0.287  -2.838   3.854  0.00  0.00    -0.360 OA
ENDBRANCH  11  13
TORSDOF 1
ENDMDL
MODEL      155
REMARK  Name = ZINC000110666021
REMARK                            x       y       z     vdW  Elec       q    Type
REMARK                         _______ _______ _______ _____ _____    ______ ____
ROOT
ATOM      1  C   LIG    1       -0.013   1.499   0.369  0.00  0.00    +0.070 C 
ATOM      2  C   LIG    1       -0.006   0.015  -0.001  0.00  0.00    +0.160 C 
ATOM      3  C   LIG    1        0.635  -0.165  -1.349  0.00  0.00    +0.520 C 
ATOM      4  N   LIG    1        1.851  -0.689  -1.512  0.00  0.00    -0.720 N 
ATOM      5  H   LIG    1        2.217  -0.711  -2.410  0.00  0.00    +0.400 HD
ATOM      6  C   LIG    1        2.669  -1.231  -0.435  0.00  0.00    +0.260 C 
ATOM      7  C   LIG    1        2.235  -0.660   0.916  0.00  0.00    +0.280 C 
ATOM      8  O   LIG    1        0.019   0.182  -2.334  0.00  0.00    -0.530 OA
ATOM      9  C   LIG    1       -1.443  -0.511  -0.040  0.00  0.00    +0.090 C 
ATOM     10  N   LIG    1        0.767  -0.738   0.999  0.00  0.00    -0.610 N 
ATOM     11  C   LIG    1        0.156  -1.470   1.951  0.00  0.00    +0.530 C 
ATOM     12  O   LIG    1       -1.051  -1.588   1.944  0.00  0.00    -0.490 OA
ENDROOT
BRANCH  11  13
ATOM     13  C   LIG    1        0.973  -2.142   3.025  0.00  0.00    +0.110 C 
ATOM     14  C   LIG    1        1.563  -1.081   3.957  0.00  0.00    +0.210 C 
ATOM     15  N   LIG    1        2.295  -1.744   5.046  0.00  0.00    -0.680 NA
ATOM     16  H   LIG    1        3.095  -2.245   4.691  0.00  0.00    +0.340 HD
ATOM     17  C   LIG    1        1.405  -2.640   5.800  0.00  0.00    +0.200 C 
ATOM     18  C   LIG    1        0.816  -3.685   4.850  0.00  0.00    +0.180 C 
ATOM     19  O   LIG    1        0.136  -3.022   3.780  0.00  0.00    -0.350 OA
ENDBRANCH  11  13
TORSDOF 1
ENDMDL
MODEL      156
REMARK  Name = ZINC000231659808
REMARK                            x       y       z     vdW  Elec       q    Type
REMARK                         _______ _______ _______ _____ _____    ______ ____
ROOT
ATOM      1  C   LIG    1       -1.312  -2.034  -0.243  0.00  0.00    +0.520 C 
ATOM      2  N   LIG    1       -2.453  -2.750  -0.279  0.00  0.00    -0.610 N 
ATOM      3  C   LIG    1       -3.753  -2.097  -0.077  0.00  0.00    +0.270 C 
ATOM      4  C   LIG    1       -4.502  -2.826   1.043  0.00  0.00    +0.030 C 
ATOM      5  C   LIG    1       -4.593  -4.316   0.705  0.00  0.00    +0.070 C 
ATOM      6  C   LIG    1       -3.183  -4.904   0.604  0.00  0.00    -0.460 C 
ATOM      7  C   LIG    1       -2.420  -4.198  -0.526  0.00  0.00    +0.320 C 
ATOM      8  O   LIG    1       -0.245  -2.583  -0.416  0.00  0.00    -0.520 OA
ENDROOT
BRANCH   6   9
ATOM      9  S   LIG    1       -3.292  -6.679   0.243  0.00  0.00    +2.620 S 
ATOM     10  O   LIG    1       -3.796  -6.891  -1.069  0.00  0.00    -0.950 OA
ATOM     11  O   LIG    1       -3.827  -7.382   1.355  0.00  0.00    -0.960 OA
BRANCH   9  12
ATOM     12  N   LIG    1       -1.716  -7.181   0.161  0.00  0.00    -1.250 NA
ATOM     13  H   LIG    1       -1.026  -6.567  -0.134  0.00  0.00    +0.410 HD
ATOM     14  H   LIG    1       -1.484  -8.090   0.408  0.00  0.00    +0.420 HD
ENDBRANCH   9  12
ENDBRANCH   6   9
BRANCH   1  15
ATOM     15  C   LIG    1       -1.362  -0.549   0.012  0.00  0.00    +0.220 C 
BRANCH  15  17
ATOM     16  C   LIG    1       -0.018   1.465   0.010  0.00  0.00    +0.200 C 
ATOM     17  N   LIG    1        0.002  -0.004   0.002  0.00  0.00    -0.530 NA
ATOM     18  C   LIG    1        0.786  -0.526   1.129  0.00  0.00    +0.200 C 
ENDBRANCH  15  17
ENDBRANCH   1  15
TORSDOF 4
ENDMDL
MODEL      157
REMARK  Name = ZINC000000181384
REMARK                            x       y       z     vdW  Elec       q    Type
REMARK                         _______ _______ _______ _____ _____    ______ ____
ROOT
ATOM      1  N   LIG    1       -1.160  -2.882   1.280  0.00  0.00    -0.500 NA
ATOM      2  C   LIG    1       -2.385  -2.268   0.752  0.00  0.00    +0.170 C 
ATOM      3  C   LIG    1       -3.599  -3.087   1.195  0.00  0.00    +0.080 C 
ATOM      4  C   LIG    1       -3.647  -3.133   2.725  0.00  0.00    -0.010 C 
ATOM      5  C   LIG    1       -2.340  -3.733   3.250  0.00  0.00    +0.050 C 
ATOM      6  C   LIG    1       -1.162  -2.895   2.748  0.00  0.00    +0.200 C 
ENDROOT
BRANCH   1  11
ATOM      7  C   LIG    1       -0.018   1.461   0.010  0.00  0.00    +0.310 C 
ATOM      8  N   LIG    1        0.002  -0.004   0.002  0.00  0.00    -0.580 N 
ATOM      9  C   LIG    1        0.007  -0.722  -1.128  0.00  0.00    +0.520 C 
ATOM     10  C   LIG    1        0.028  -2.195  -0.781  0.00  0.00    +0.100 C 
ATOM     11  C   LIG    1        0.035  -2.204   0.761  0.00  0.00    +0.190 C 
ATOM     12  O   LIG    1       -0.004  -0.265  -2.251  0.00  0.00    -0.470 OA
ATOM     13  C   LIG    1        0.023  -0.735   1.124  0.00  0.00    +0.500 C 
ATOM     14  O   LIG    1        0.024  -0.290   2.252  0.00  0.00    -0.470 OA
ENDBRANCH   1  11
BRANCH   4  15
ATOM     15  C   LIG    1       -4.807  -3.988   3.166  0.00  0.00    +0.520 C 
ATOM     16  O   LIG    1       -5.525  -4.510   2.340  0.00  0.00    -0.540 OA
ATOM     17  N   LIG    1       -5.046  -4.174   4.480  0.00  0.00    -0.860 N 
ATOM     18  H   LIG    1       -5.792  -4.724   4.764  0.00  0.00    +0.400 HD
ATOM     19  H   LIG    1       -4.471  -3.757   5.141  0.00  0.00    +0.400 HD
ENDBRANCH   4  15
TORSDOF 2
ENDMDL
MODEL      158
REMARK  Name = ZINC000000285928
REMARK                            x       y       z     vdW  Elec       q    Type
REMARK                         _______ _______ _______ _____ _____    ______ ____
ROOT
ATOM      1  C   LIG    1       -0.018   1.461   0.010  0.00  0.00    +0.340 C 
ATOM      2  N   LIG    1        0.002  -0.004   0.002  0.00  0.00    -0.510 N 
ATOM      3  C   LIG    1       -1.189  -0.711   0.004  0.00  0.00    +0.340 A 
ATOM      4  C   LIG    1       -1.144  -2.106  -0.004  0.00  0.00    -0.150 A 
ATOM      5  N   LIG    1       -2.454  -2.529  -0.001  0.00  0.00    -0.380 N 
ATOM      6  C   LIG    1       -3.010  -3.815   0.000  0.00  0.00    +0.140 A 
ATOM      7  C   LIG    1       -4.323  -3.921  -0.214  0.00  0.00    +0.290 A 
ATOM      8  N   LIG    1       -5.096  -2.778  -0.451  0.00  0.00    -0.560 N 
ATOM      9  H   LIG    1       -5.943  -2.842  -0.919  0.00  0.00    +0.440 HD
ATOM     10  N   LIG    1       -4.618  -1.525   0.006  0.00  0.00    -0.510 N 
ATOM     11  H   LIG    1       -5.208  -0.812   0.295  0.00  0.00    +0.450 HD
ATOM     12  C   LIG    1       -3.237  -1.402   0.006  0.00  0.00    +0.540 A 
ATOM     13  C   LIG    1        0.109  -2.746  -0.014  0.00  0.00    +0.600 A 
ATOM     14  N   LIG    1        1.234  -2.002  -0.015  0.00  0.00    -0.550 N 
ATOM     15  C   LIG    1        2.538  -2.670  -0.026  0.00  0.00    +0.360 C 
ATOM     16  O   LIG    1        0.177  -3.962  -0.021  0.00  0.00    -0.510 OA
ATOM     17  N   LIG    1       -2.475  -0.343   0.011  0.00  0.00    -0.510 NA
ATOM     18  C   LIG    1        1.178  -0.660  -0.013  0.00  0.00    +0.710 A 
ATOM     19  O   LIG    1        2.213  -0.022  -0.014  0.00  0.00    -0.530 OA
ENDROOT
TORSDOF 0
ENDMDL
MODEL      159
REMARK  Name = ZINC000101690064
REMARK                            x       y       z     vdW  Elec       q    Type
REMARK                         _______ _______ _______ _____ _____    ______ ____
ROOT
ATOM      1  C   LIG    1       -4.079  -0.528  -2.653  0.00  0.00    +0.060 C 
ATOM      2  C   LIG    1       -5.371  -0.885  -3.062  0.00  0.00    +0.060 C 
ATOM      3  C   LIG    1       -5.229  -0.227  -4.369  0.00  0.00    +0.360 C 
ATOM      4  O   LIG    1       -5.920  -0.066  -5.357  0.00  0.00    -0.410 OA
ATOM      5  C   LIG    1       -3.864   0.157  -3.936  0.00  0.00    +0.340 C 
ATOM      6  O   LIG    1       -2.945   0.778  -4.436  0.00  0.00    -0.420 OA
ENDROOT
BRANCH   1   7
ATOM      7  N   LIG    1       -3.329  -0.728  -1.522  0.00  0.00    -0.680 N 
ATOM      8  H   LIG    1       -3.698  -1.230  -0.777  0.00  0.00    +0.410 HD
BRANCH   7   9
ATOM      9  C   LIG    1       -1.971  -0.185  -1.437  0.00  0.00    +0.270 C 
BRANCH   9  10
ATOM     10  C   LIG    1       -1.360  -0.549  -0.083  0.00  0.00    +0.160 C 
BRANCH  10  12
ATOM     11  C   LIG    1       -0.018   1.465   0.010  0.00  0.00    +0.190 C 
ATOM     12  N   LIG    1        0.002  -0.004   0.002  0.00  0.00    -0.540 NA
ATOM     13  C   LIG    1        0.706  -0.527   1.180  0.00  0.00    +0.190 C 
ENDBRANCH  10  12
ENDBRANCH   9  10
ENDBRANCH   7   9
ENDBRANCH   1   7
BRANCH   2  14
ATOM     14  N   LIG    1       -6.389  -1.587  -2.466  0.00  0.00    -0.690 N 
ATOM     15  H   LIG    1       -6.272  -1.946  -1.573  0.00  0.00    +0.410 HD
BRANCH  14  16
ATOM     16  C   LIG    1       -7.652  -1.793  -3.179  0.00  0.00    +0.280 C 
BRANCH  16  17
ATOM     17  C   LIG    1       -8.609  -2.599  -2.298  0.00  0.00    +0.190 C 
BRANCH  17  18
ATOM     18  O   LIG    1       -8.949  -1.834  -1.140  0.00  0.00    -0.570 OA
ATOM     19  H   LIG    1       -9.554  -2.285  -0.535  0.00  0.00    +0.390 HD
ENDBRANCH  17  18
ENDBRANCH  16  17
ENDBRANCH  14  16
ENDBRANCH   2  14
TORSDOF 8
ENDMDL
MODEL      160
REMARK  Name = ZINC000001589437
REMARK                            x       y       z     vdW  Elec       q    Type
REMARK                         _______ _______ _______ _____ _____    ______ ____
ROOT
ATOM      1  CA  HIS A  1       -0.699   1.479   1.216  0.00  0.00    +0.180 C 
ENDROOT
BRANCH   1   2
ATOM      2  N   HIS A  1       -0.012   1.005   0.008  0.00  0.00    -0.620 N 
ATOM      3  H1  HIS A  1       -0.500   1.339  -0.810  0.00  0.00    +0.430 HD
ATOM      4  H2  HIS A  1        0.935   1.354   0.000  0.00  0.00    +0.440 HD
ATOM      5  H3  HIS A  1        0.002  -0.004   0.002  0.00  0.00    +0.440 HD
ENDBRANCH   1   2
BRANCH   1   6
ATOM      6  C   HIS A  1        0.030   0.979   2.437  0.00  0.00    +0.500 C 
ATOM      7  N   SER A  2       -0.150   1.589   3.626  0.00  0.00    -0.650 N 
ATOM      8  H   SER A  2       -0.749   2.349   3.695  0.00  0.00    +0.410 HD
ATOM      9  O   HIS A  1        0.778   0.029   2.350  0.00  0.00    -0.540 OA
BRANCH   7  10
ATOM     10  CA  SER A  2        0.558   1.103   4.812  0.00  0.00    +0.170 C 
BRANCH  10  11
ATOM     11  C   SER A  2       -0.221  -0.025   5.436  0.00  0.00    +0.500 C 
ATOM     12  OXT SER A  2        0.198  -0.573   6.441  0.00  0.00    -0.680 OA
ATOM     13  O   SER A  2       -1.272  -0.391   4.936  0.00  0.00    -0.680 OA
ENDBRANCH  10  11
BRANCH  10  14
ATOM     14  CB  SER A  2        0.702   2.244   5.823  0.00  0.00    +0.200 C 
BRANCH  14  15
ATOM     15  OG  SER A  2       -0.592   2.634   6.288  0.00  0.00    -0.560 OA
ATOM     16  H   SER A  2       -0.578   3.354   6.933  0.00  0.00    +0.380 HD
ENDBRANCH  14  15
ENDBRANCH  10  14
ENDBRANCH   7  10
ENDBRANCH   1   6
BRANCH   1  17
ATOM     17  CB  HIS A  1       -2.135   0.949   1.227  0.00  0.00    +0.200 C 
BRANCH  17  18
ATOM     18  CG  HIS A  1       -2.899   1.546   0.074  0.00  0.00    -0.040 A 
ATOM     19  CD2 HIS A  1       -3.567   0.859  -0.873  0.00  0.00    +0.150 A 
ATOM     20  NE2 HIS A  1       -4.113   1.784  -1.722  0.00  0.00    -0.560 N 
ATOM     21  HE2 HIS A  1       -4.653   1.598  -2.506  0.00  0.00    +0.430 HD
ATOM     22  CE1 HIS A  1       -3.760   3.004  -1.263  0.00  0.00    +0.420 A 
ATOM     23  ND1 HIS A  1       -3.038   2.854  -0.187  0.00  0.00    -0.490 NA
ENDBRANCH  17  18
ENDBRANCH   1  17
TORSDOF 8
ENDMDL
MODEL      161
REMARK  Name = ZINC000043708029
REMARK                            x       y       z     vdW  Elec       q    Type
REMARK                         _______ _______ _______ _____ _____    ______ ____
ROOT
ATOM      1  O   LIG    1        0.030   0.003  -0.113  0.00  0.00    -0.520 OA
ATOM      2  C   LIG    1       -0.014   1.209   0.009  0.00  0.00    +0.520 C 
ATOM      3  N   LIG    1       -1.202   1.827   0.157  0.00  0.00    -0.610 N 
ATOM      4  C   LIG    1       -1.289   3.295   0.201  0.00  0.00    +0.270 C 
ATOM      5  C   LIG    1       -2.348   3.750  -0.809  0.00  0.00    +0.170 C 
ATOM      6  N   LIG    1       -3.609   3.046  -0.542  0.00  0.00    -0.530 NA
ATOM      7  C   LIG    1       -3.461   1.597  -0.732  0.00  0.00    +0.170 C 
ATOM      8  C   LIG    1       -2.447   1.053   0.274  0.00  0.00    +0.300 C 
ENDROOT
BRANCH   2   9
ATOM      9  C   LIG    1        1.258   2.016  -0.012  0.00  0.00    +0.170 C 
ATOM     10  C   LIG    1        1.413   2.690  -1.377  0.00  0.00    +0.170 C 
ATOM     11  N   LIG    1        2.693   3.413  -1.419  0.00  0.00    -0.680 NA
ATOM     12  H   LIG    1        2.805   3.901  -2.295  0.00  0.00    +0.350 HD
ATOM     13  C   LIG    1        3.817   2.496  -1.179  0.00  0.00    +0.150 C 
ATOM     14  C   LIG    1        3.638   1.823   0.185  0.00  0.00    +0.230 C 
ATOM     15  O   LIG    1        2.375   1.152   0.218  0.00  0.00    -0.360 OA
ENDBRANCH   2   9
BRANCH   6  16
ATOM     16  C   LIG    1       -4.696   3.577  -1.375  0.00  0.00    +0.190 C 
BRANCH  16  17
ATOM     17  C   LIG    1       -6.032   3.001  -0.899  0.00  0.00    +0.180 C 
BRANCH  17  18
ATOM     18  O   LIG    1       -6.307   3.466   0.423  0.00  0.00    -0.560 OA
ATOM     19  H   LIG    1       -7.141   3.140   0.789  0.00  0.00    +0.380 HD
ENDBRANCH  17  18
ENDBRANCH  16  17
ENDBRANCH   6  16
TORSDOF 4
ENDMDL
MODEL      162
REMARK  Name = ZINC000001708444
REMARK                            x       y       z     vdW  Elec       q    Type
REMARK                         _______ _______ _______ _____ _____    ______ ____
ROOT
ATOM      1  N   LIG    1        1.354  -2.503  -2.345  0.00  0.00    -0.720 N 
ATOM      2  H   LIG    1        1.691  -1.827  -2.954  0.00  0.00    +0.420 HD
ATOM      3  C   LIG    1        1.527  -3.809  -2.627  0.00  0.00    +0.520 C 
ATOM      4  O   LIG    1        1.106  -4.655  -1.866  0.00  0.00    -0.530 OA
ENDROOT
BRANCH   1   5
ATOM      5  C   LIG    1        0.657  -2.104  -1.120  0.00  0.00    +0.370 C 
BRANCH   5   6
ATOM      6  C   LIG    1        0.598  -0.600  -1.043  0.00  0.00    +0.460 C 
ATOM      7  O   LIG    1        1.088   0.070  -1.921  0.00  0.00    -0.500 OA
BRANCH   6   9
ATOM      8  C   LIG    1       -0.018   1.448   0.010  0.00  0.00    +0.290 C 
ATOM      9  O   LIG    1        0.002  -0.004   0.002  0.00  0.00    -0.350 OA
ENDBRANCH   6   9
ENDBRANCH   5   6
ENDBRANCH   1   5
BRANCH   3  10
ATOM     10  C   LIG    1        2.243  -4.220  -3.888  0.00  0.00    +0.300 C 
BRANCH  10  11
ATOM     11  N   LIG    1        2.301  -5.682  -3.962  0.00  0.00    -0.720 N 
ATOM     12  H   LIG    1        1.908  -6.220  -3.257  0.00  0.00    +0.410 HD
ATOM     13  C   LIG    1        2.899  -6.280  -5.011  0.00  0.00    +0.510 C 
ATOM     14  O   LIG    1        3.390  -5.608  -5.893  0.00  0.00    -0.520 OA
BRANCH  13  15
ATOM     15  C   LIG    1        2.958  -7.784  -5.088  0.00  0.00    +0.220 C 
BRANCH  15  16
ATOM     16  N   LIG    1        3.657  -8.184  -6.317  0.00  0.00    -0.830 NA
ATOM     17  H   LIG    1        3.709  -9.189  -6.392  0.00  0.00    +0.350 HD
ATOM     18  H   LIG    1        4.575  -7.769  -6.362  0.00  0.00    +0.350 HD
ENDBRANCH  15  16
ENDBRANCH  13  15
ENDBRANCH  10  11
ENDBRANCH   3  10
TORSDOF 7
ENDMDL
MODEL      163
REMARK  Name = ZINC000001771816
REMARK                            x       y       z     vdW  Elec       q    Type
REMARK                         _______ _______ _______ _____ _____    ______ ____
ROOT
ATOM      1  O   LIG    1        0.002  -0.004   0.002  0.00  0.00    -0.930 OA
ATOM      2  S   LIG    1       -0.017   1.417   0.010  0.00  0.00    +2.400 S 
ATOM      3  C   LIG    1       -0.460   2.009   1.687  0.00  0.00    -0.350 C 
ATOM      4  C   LIG    1        0.923   2.140   2.374  0.00  0.00    +0.200 C 
ATOM      5  C   LIG    1        1.869   2.779   1.343  0.00  0.00    +0.180 C 
ATOM      6  O   LIG    1       -0.784   2.119  -0.959  0.00  0.00    -0.930 OA
ATOM      7  C   LIG    1        1.700   2.046  -0.003  0.00  0.00    -0.300 C 
ENDROOT
BRANCH   5   8
ATOM      8  N   LIG    1        3.259   2.652   1.800  0.00  0.00    -0.670 NA
ATOM      9  H   LIG    1        3.310   2.666   2.808  0.00  0.00    +0.360 HD
BRANCH   8  10
ATOM     10  C   LIG    1        4.104   3.701   1.216  0.00  0.00    +0.180 C 
BRANCH  10  11
ATOM     11  C   LIG    1        5.541   3.535   1.715  0.00  0.00    +0.030 C 
BRANCH  11  12
ATOM     12  C   LIG    1        6.422   4.628   1.106  0.00  0.00    +0.180 C 
BRANCH  12  13
ATOM     13  O   LIG    1        7.764   4.474   1.572  0.00  0.00    -0.570 OA
ATOM     14  H   LIG    1        8.379   5.134   1.226  0.00  0.00    +0.380 HD
ENDBRANCH  12  13
ENDBRANCH  11  12
ENDBRANCH  10  11
ENDBRANCH   8  10
ENDBRANCH   5   8
BRANCH   4  15
ATOM     15  O   LIG    1        0.819   2.977   3.528  0.00  0.00    -0.550 OA
ATOM     16  H   LIG    1        0.220   2.638   4.207  0.00  0.00    +0.390 HD
ENDBRANCH   4  15
TORSDOF 6
ENDMDL
MODEL      164
REMARK  Name = ZINC000001771817
REMARK                            x       y       z     vdW  Elec       q    Type
REMARK                         _______ _______ _______ _____ _____    ______ ____
ROOT
ATOM      1  O   LIG    1        0.002  -0.004   0.002  0.00  0.00    -0.930 OA
ATOM      2  S   LIG    1       -0.017   1.417   0.010  0.00  0.00    +2.400 S 
ATOM      3  C   LIG    1       -0.460   2.009   1.687  0.00  0.00    -0.280 C 
ATOM      4  C   LIG    1        0.923   2.140   2.374  0.00  0.00    +0.180 C 
ATOM      5  C   LIG    1        1.869   2.779   1.343  0.00  0.00    +0.190 C 
ATOM      6  O   LIG    1       -0.784   2.119  -0.959  0.00  0.00    -0.930 OA
ATOM      7  C   LIG    1        1.700   2.046  -0.003  0.00  0.00    -0.340 C 
ENDROOT
BRANCH   5   8
ATOM      8  O   LIG    1        1.539   4.160   1.179  0.00  0.00    -0.540 OA
ATOM      9  H   LIG    1        2.098   4.625   0.541  0.00  0.00    +0.390 HD
ENDBRANCH   5   8
BRANCH   4  10
ATOM     10  N   LIG    1        0.816   3.001   3.560  0.00  0.00    -0.660 NA
ATOM     11  H   LIG    1        1.680   3.494   3.728  0.00  0.00    +0.350 HD
BRANCH  10  12
ATOM     12  C   LIG    1        0.416   2.223   4.741  0.00  0.00    +0.180 C 
BRANCH  12  13
ATOM     13  C   LIG    1        0.315   3.151   5.953  0.00  0.00    +0.030 C 
BRANCH  13  14
ATOM     14  C   LIG    1       -0.102   2.341   7.182  0.00  0.00    +0.170 C 
BRANCH  14  15
ATOM     15  O   LIG    1       -0.196   3.208   8.314  0.00  0.00    -0.570 OA
ATOM     16  H   LIG    1       -0.457   2.761   9.131  0.00  0.00    +0.380 HD
ENDBRANCH  14  15
ENDBRANCH  13  14
ENDBRANCH  12  13
ENDBRANCH  10  12
ENDBRANCH   4  10
TORSDOF 6
ENDMDL
MODEL      165
REMARK  Name = ZINC000002561109
REMARK                            x       y       z     vdW  Elec       q    Type
REMARK                         _______ _______ _______ _____ _____    ______ ____
ROOT
ATOM      1  N   LIG    1       -0.876  -2.426  -1.433  0.00  0.00    -0.710 N 
ATOM      2  H   LIG    1       -0.936  -1.804  -2.174  0.00  0.00    +0.410 HD
ATOM      3  C   LIG    1       -0.298  -3.631  -1.609  0.00  0.00    +0.530 C 
ATOM      4  O   LIG    1       -0.224  -4.410  -0.682  0.00  0.00    -0.520 OA
ENDROOT
BRANCH   1   5
ATOM      5  C   LIG    1       -1.416  -2.058  -0.121  0.00  0.00    +0.250 C 
BRANCH   5   6
ATOM      6  C   LIG    1       -2.819  -2.590   0.013  0.00  0.00    +0.510 C 
ATOM      7  O   LIG    1       -3.320  -3.216  -0.898  0.00  0.00    -0.530 OA
ATOM      8  N   LIG    1       -3.518  -2.371   1.144  0.00  0.00    -0.850 N 
ATOM      9  H   LIG    1       -4.421  -2.713   1.230  0.00  0.00    +0.400 HD
ATOM     10  H   LIG    1       -3.118  -1.870   1.872  0.00  0.00    +0.400 HD
ENDBRANCH   5   6
BRANCH   5  11
ATOM     11  C   LIG    1       -1.433  -0.534   0.013  0.00  0.00    +0.050 C 
BRANCH  11  13
ATOM     12  C   LIG    1       -0.019   1.526   0.010  0.00  0.00    +0.030 C 
ATOM     13  C   LIG    1        0.002  -0.004   0.002  0.00  0.00    -0.020 C 
ATOM     14  C   LIG    1        0.742  -0.511   1.242  0.00  0.00    +0.030 C 
ENDBRANCH  11  13
ENDBRANCH   5  11
ENDBRANCH   1   5
BRANCH   3  15
ATOM     15  CA  LIG    1        0.257  -4.010  -2.958  0.00  0.00    +0.190 C 
BRANCH  15  16
ATOM     16  N   LIG    1        1.224  -5.104  -2.800  0.00  0.00    -0.820 NA
ATOM     17  H1  LIG    1        1.658  -5.333  -3.681  0.00  0.00    +0.360 HD
ATOM     18  H2  LIG    1        0.789  -5.916  -2.389  0.00  0.00    +0.350 HD
ENDBRANCH  15  16
BRANCH  15  19
ATOM     19  C   LIG    1       -0.885  -4.467  -3.869  0.00  0.00    +0.160 C 
BRANCH  19  20
ATOM     20  O   LIG    1       -0.377  -4.715  -5.181  0.00  0.00    -0.570 OA
ATOM     21  H   LIG    1       -1.047  -5.010  -5.813  0.00  0.00    +0.390 HD
ENDBRANCH  19  20
ENDBRANCH  15  19
ENDBRANCH   3  15
TORSDOF 8
ENDMDL
MODEL      166
REMARK  Name = ZINC000002566806
REMARK                            x       y       z     vdW  Elec       q    Type
REMARK                         _______ _______ _______ _____ _____    ______ ____
ROOT
ATOM      1  N   LIG    1       -0.876  -2.426  -1.433  0.00  0.00    -0.700 N 
ATOM      2  H   LIG    1       -0.936  -1.804  -2.174  0.00  0.00    +0.410 HD
ATOM      3  C   LIG    1       -0.298  -3.631  -1.609  0.00  0.00    +0.490 C 
ATOM      4  O   LIG    1       -0.224  -4.410  -0.682  0.00  0.00    -0.540 OA
ENDROOT
BRANCH   1   5
ATOM      5  C   LIG    1       -1.416  -2.058  -0.121  0.00  0.00    +0.240 C 
BRANCH   5   6
ATOM      6  C   LIG    1       -2.819  -2.590   0.013  0.00  0.00    +0.510 C 
ATOM      7  O   LIG    1       -3.320  -3.216  -0.898  0.00  0.00    -0.530 OA
ATOM      8  N   LIG    1       -3.518  -2.371   1.144  0.00  0.00    -0.850 N 
ATOM      9  H   LIG    1       -4.421  -2.713   1.230  0.00  0.00    +0.400 HD
ATOM     10  H   LIG    1       -3.118  -1.870   1.872  0.00  0.00    +0.400 HD
ENDBRANCH   5   6
BRANCH   5  11
ATOM     11  C   LIG    1       -1.433  -0.534   0.013  0.00  0.00    +0.050 C 
BRANCH  11  13
ATOM     12  C   LIG    1       -0.019   1.526   0.010  0.00  0.00    +0.030 C 
ATOM     13  C   LIG    1        0.002  -0.004   0.002  0.00  0.00    -0.030 C 
ATOM     14  C   LIG    1        0.742  -0.511   1.242  0.00  0.00    +0.030 C 
ENDBRANCH  11  13
ENDBRANCH   5  11
ENDBRANCH   1   5
BRANCH   3  15
ATOM     15  CA  LIG    1        0.257  -4.010  -2.958  0.00  0.00    +0.190 C 
BRANCH  15  16
ATOM     16  N   LIG    1        0.385  -5.471  -3.041  0.00  0.00    -0.810 NA
ATOM     17  H1  LIG    1       -0.518  -5.917  -2.986  0.00  0.00    +0.350 HD
ATOM     18  H2  LIG    1        1.006  -5.821  -2.326  0.00  0.00    +0.350 HD
ENDBRANCH  15  16
BRANCH  15  19
ATOM     19  C   LIG    1        1.631  -3.365  -3.143  0.00  0.00    +0.190 C 
BRANCH  19  20
ATOM     20  O   LIG    1        2.106  -3.628  -4.465  0.00  0.00    -0.550 OA
ATOM     21  H   LIG    1        2.975  -3.248  -4.654  0.00  0.00    +0.380 HD
ENDBRANCH  19  20
ENDBRANCH  15  19
ENDBRANCH   3  15
TORSDOF 8
ENDMDL
MODEL      167
REMARK  Name = ZINC000003010507
REMARK                            x       y       z     vdW  Elec       q    Type
REMARK                         _______ _______ _______ _____ _____    ______ ____
ROOT
ATOM      1  N   LIG    1       -0.930  -2.548   1.294  0.00  0.00    -0.700 N 
ATOM      2  H   LIG    1       -1.018  -1.998   2.087  0.00  0.00    +0.410 HD
ATOM      3  C   LIG    1       -0.359  -3.766   1.378  0.00  0.00    +0.490 C 
ATOM      4  O   LIG    1       -0.250  -4.454   0.385  0.00  0.00    -0.540 OA
ENDROOT
BRANCH   1   5
ATOM      5  C   LIG    1       -1.419  -2.056   0.003  0.00  0.00    +0.240 C 
BRANCH   5   6
ATOM      6  C   LIG    1       -2.816  -2.568  -0.234  0.00  0.00    +0.510 C 
ATOM      7  O   LIG    1       -3.351  -3.275   0.594  0.00  0.00    -0.530 OA
ATOM      8  N   LIG    1       -3.471  -2.240  -1.365  0.00  0.00    -0.850 N 
ATOM      9  H   LIG    1       -4.370  -2.570  -1.518  0.00  0.00    +0.400 HD
ATOM     10  H   LIG    1       -3.043  -1.675  -2.027  0.00  0.00    +0.400 HD
ENDBRANCH   5   6
BRANCH   5  11
ATOM     11  C   LIG    1       -1.431  -0.526   0.013  0.00  0.00    +0.050 C 
BRANCH  11  13
ATOM     12  C   LIG    1        0.799  -0.378  -1.103  0.00  0.00    +0.030 C 
ATOM     13  C   LIG    1        0.001  -0.005   0.147  0.00  0.00    -0.030 C 
ATOM     14  C   LIG    1       -0.022   1.517   0.302  0.00  0.00    +0.030 C 
ENDBRANCH  11  13
ENDBRANCH   5  11
ENDBRANCH   1   5
BRANCH   3  15
ATOM     15  CA  LIG    1        0.143  -4.272   2.705  0.00  0.00    +0.190 C 
BRANCH  15  16
ATOM     16  N   LIG    1        1.117  -5.350   2.481  0.00  0.00    -0.810 NA
ATOM     17  H1  LIG    1        1.933  -5.005   1.998  0.00  0.00    +0.350 HD
ATOM     18  H2  LIG    1        0.697  -6.118   1.980  0.00  0.00    +0.350 HD
ENDBRANCH  15  16
BRANCH  15  19
ATOM     19  C   LIG    1       -1.032  -4.809   3.524  0.00  0.00    +0.200 C 
BRANCH  19  20
ATOM     20  O   LIG    1       -0.575  -5.182   4.826  0.00  0.00    -0.560 OA
ATOM     21  H   LIG    1       -1.269  -5.532   5.401  0.00  0.00    +0.380 HD
ENDBRANCH  19  20
ENDBRANCH  15  19
ENDBRANCH   3  15
TORSDOF 8
ENDMDL
MODEL      168
REMARK  Name = ZINC000082756768
REMARK                            x       y       z     vdW  Elec       q    Type
REMARK                         _______ _______ _______ _____ _____    ______ ____
ROOT
ATOM      1  N   LIG    1       -2.341  -2.896  -0.254  0.00  0.00    -0.650 NA
ATOM      2  H   LIG    1       -2.151  -3.875  -0.101  0.00  0.00    +0.360 HD
ENDROOT
BRANCH   1   6
ATOM      3  C   LIG    1       -0.018   1.461   0.010  0.00  0.00    +0.280 C 
ATOM      4  N   LIG    1        0.002  -0.004   0.002  0.00  0.00    -0.610 N 
ATOM      5  C   LIG    1       -1.276  -0.705   0.004  0.00  0.00    +0.280 C 
ATOM      6  C   LIG    1       -1.097  -2.146  -0.473  0.00  0.00    +0.130 C 
ATOM      7  C   LIG    1        0.043  -2.790   0.325  0.00  0.00    +0.040 C 
ATOM      8  C   LIG    1        1.354  -2.104  -0.066  0.00  0.00    +0.080 C 
ATOM      9  C   LIG    1        1.188  -0.613  -0.013  0.00  0.00    +0.510 C 
ATOM     10  O   LIG    1        2.187   0.075   0.027  0.00  0.00    -0.550 OA
ENDBRANCH   1   6
BRANCH   1  11
ATOM     11  C   LIG    1       -3.273  -2.709  -1.373  0.00  0.00    +0.180 C 
ATOM     12  C   LIG    1       -4.723  -2.987  -0.926  0.00  0.00    +0.120 C 
ATOM     13  C   LIG    1       -5.145  -4.152  -1.795  0.00  0.00    +0.530 C 
ATOM     14  N   LIG    1       -4.131  -4.490  -2.601  0.00  0.00    -0.680 N 
ATOM     15  H   LIG    1       -4.189  -5.215  -3.242  0.00  0.00    +0.420 HD
ATOM     16  O   LIG    1       -6.230  -4.692  -1.767  0.00  0.00    -0.480 OA
ATOM     17  C   LIG    1       -3.026  -3.742  -2.451  0.00  0.00    +0.500 C 
ATOM     18  O   LIG    1       -1.996  -3.877  -3.076  0.00  0.00    -0.470 OA
ENDBRANCH   1  11
TORSDOF 2
ENDMDL
MODEL      169
REMARK  Name = ZINC000004136195
REMARK                            x       y       z     vdW  Elec       q    Type
REMARK                         _______ _______ _______ _____ _____    ______ ____
ROOT
ATOM      1  O   LIG    1        0.002  -0.004   0.002  0.00  0.00    -0.930 OA
ATOM      2  S   LIG    1       -0.017   1.417   0.010  0.00  0.00    +2.400 S 
ATOM      3  C   LIG    1       -0.410   2.019   1.702  0.00  0.00    -0.340 C 
ATOM      4  C   LIG    1        0.371   3.359   1.733  0.00  0.00    +0.210 C 
ATOM      5  C   LIG    1        1.738   3.144   1.080  0.00  0.00    +0.210 C 
ATOM      6  O   LIG    1       -0.796   2.124  -0.946  0.00  0.00    -0.920 OA
ATOM      7  C   LIG    1        1.700   2.055  -0.003  0.00  0.00    -0.330 C 
ENDROOT
BRANCH   5   8
ATOM      8  N   LIG    1        2.177   4.405   0.469  0.00  0.00    -0.680 NA
ATOM      9  H   LIG    1        1.744   4.541  -0.432  0.00  0.00    +0.350 HD
BRANCH   8  10
ATOM     10  C   LIG    1        3.642   4.456   0.363  0.00  0.00    +0.180 C 
BRANCH  10  11
ATOM     11  C   LIG    1        4.061   5.782  -0.277  0.00  0.00    +0.030 C 
BRANCH  11  12
ATOM     12  C   LIG    1        5.586   5.834  -0.388  0.00  0.00    +0.170 C 
BRANCH  12  13
ATOM     13  O   LIG    1        5.977   7.072  -0.985  0.00  0.00    -0.570 OA
ATOM     14  H   LIG    1        6.934   7.175  -1.087  0.00  0.00    +0.380 HD
ENDBRANCH  12  13
ENDBRANCH  11  12
ENDBRANCH  10  11
ENDBRANCH   8  10
ENDBRANCH   5   8
BRANCH   4  15
ATOM     15  O   LIG    1        0.549   3.780   3.087  0.00  0.00    -0.540 OA
ATOM     16  H   LIG    1       -0.279   3.944   3.560  0.00  0.00    +0.390 HD
ENDBRANCH   4  15
TORSDOF 6
ENDMDL
MODEL      170
REMARK  Name = ZINC000004136199
REMARK                            x       y       z     vdW  Elec       q    Type
REMARK                         _______ _______ _______ _____ _____    ______ ____
ROOT
ATOM      1  O   LIG    1        0.002  -0.004   0.002  0.00  0.00    -0.920 OA
ATOM      2  S   LIG    1       -0.017   1.417   0.010  0.00  0.00    +2.390 S 
ATOM      3  C   LIG    1       -0.378   2.026   1.706  0.00  0.00    -0.340 C 
ATOM      4  C   LIG    1        0.974   1.855   2.427  0.00  0.00    +0.200 C 
ATOM      5  C   LIG    1        2.152   1.876   1.460  0.00  0.00    +0.210 C 
ATOM      6  O   LIG    1       -0.806   2.127  -0.935  0.00  0.00    -0.930 OA
ATOM      7  C   LIG    1        1.704   2.063  -0.003  0.00  0.00    -0.340 C 
ENDROOT
BRANCH   5   8
ATOM      8  N   LIG    1        3.049   2.980   1.826  0.00  0.00    -0.650 NA
ATOM      9  H   LIG    1        2.708   3.858   1.464  0.00  0.00    +0.350 HD
BRANCH   8  10
ATOM     10  C   LIG    1        4.420   2.719   1.368  0.00  0.00    +0.170 C 
BRANCH  10  11
ATOM     11  C   LIG    1        5.322   3.888   1.767  0.00  0.00    +0.030 C 
BRANCH  11  12
ATOM     12  C   LIG    1        6.750   3.615   1.290  0.00  0.00    +0.170 C 
BRANCH  12  13
ATOM     13  O   LIG    1        7.594   4.707   1.662  0.00  0.00    -0.570 OA
ATOM     14  H   LIG    1        8.516   4.602   1.391  0.00  0.00    +0.380 HD
ENDBRANCH  12  13
ENDBRANCH  11  12
ENDBRANCH  10  11
ENDBRANCH   8  10
ENDBRANCH   5   8
BRANCH   4  15
ATOM     15  O   LIG    1        1.133   2.916   3.371  0.00  0.00    -0.530 OA
ATOM     16  H   LIG    1        0.457   2.932   4.062  0.00  0.00    +0.380 HD
ENDBRANCH   4  15
TORSDOF 6
ENDMDL
MODEL      171
REMARK  Name = ZINC000082756769
REMARK                            x       y       z     vdW  Elec       q    Type
REMARK                         _______ _______ _______ _____ _____    ______ ____
ROOT
ATOM      1  N   LIG    1       -2.339  -2.899   0.248  0.00  0.00    -0.650 NA
ATOM      2  H   LIG    1       -2.840  -2.638  -0.588  0.00  0.00    +0.360 HD
ENDROOT
BRANCH   1   6
ATOM      3  C   LIG    1       -0.330   1.610  -0.041  0.00  0.00    +0.280 C 
ATOM      4  N   LIG    1       -0.211   0.150  -0.061  0.00  0.00    -0.610 N 
ATOM      5  C   LIG    1       -1.438  -0.636  -0.017  0.00  0.00    +0.230 C 
ATOM      6  C   LIG    1       -1.139  -2.070   0.424  0.00  0.00    +0.170 C 
ATOM      7  C   LIG    1        0.002  -2.621  -0.439  0.00  0.00    +0.050 C 
ATOM      8  C   LIG    1        1.282  -1.853  -0.097  0.00  0.00    +0.080 C 
ATOM      9  C   LIG    1        1.013  -0.376  -0.123  0.00  0.00    +0.510 C 
ATOM     10  O   LIG    1        1.959   0.379  -0.198  0.00  0.00    -0.550 OA
ENDBRANCH   1   6
BRANCH   1  11
ATOM     11  C   LIG    1       -3.209  -2.822   1.429  0.00  0.00    +0.160 C 
ATOM     12  C   LIG    1       -2.839  -3.917   2.449  0.00  0.00    +0.110 C 
ATOM     13  C   LIG    1       -4.098  -4.750   2.548  0.00  0.00    +0.530 C 
ATOM     14  N   LIG    1       -5.031  -4.237   1.736  0.00  0.00    -0.680 N 
ATOM     15  H   LIG    1       -5.918  -4.620   1.647  0.00  0.00    +0.420 HD
ATOM     16  O   LIG    1       -4.240  -5.728   3.251  0.00  0.00    -0.480 OA
ATOM     17  C   LIG    1       -4.640  -3.147   1.058  0.00  0.00    +0.530 C 
ATOM     18  O   LIG    1       -5.324  -2.526   0.272  0.00  0.00    -0.470 OA
ENDBRANCH   1  11
TORSDOF 2
ENDMDL
MODEL      172
REMARK  Name = ZINC000004533525
REMARK                            x       y       z     vdW  Elec       q    Type
REMARK                         _______ _______ _______ _____ _____    ______ ____
ROOT
ATOM      1  CA  HIS A  1       -0.699   1.479   1.216  0.00  0.00    +0.180 C 
ENDROOT
BRANCH   1   2
ATOM      2  N   HIS A  1       -0.012   1.005   0.008  0.00  0.00    -0.620 N 
ATOM      3  H1  HIS A  1       -0.500   1.339  -0.810  0.00  0.00    +0.440 HD
ATOM      4  H2  HIS A  1        0.935   1.354   0.000  0.00  0.00    +0.440 HD
ATOM      5  H3  HIS A  1        0.002  -0.004   0.002  0.00  0.00    +0.440 HD
ENDBRANCH   1   2
BRANCH   1   6
ATOM      6  C   HIS A  1       -2.113   0.957   1.227  0.00  0.00    +0.500 C 
ATOM      7  N   SER A  2       -3.047   1.558   1.989  0.00  0.00    -0.660 N 
ATOM      8  H   SER A  2       -2.810   2.327   2.531  0.00  0.00    +0.400 HD
ATOM      9  O   HIS A  1       -2.410  -0.004   0.549  0.00  0.00    -0.540 OA
BRANCH   7  10
ATOM     10  CA  SER A  2       -4.422   1.051   2.000  0.00  0.00    +0.170 C 
BRANCH  10  11
ATOM     11  C   SER A  2       -5.186   1.648   0.846  0.00  0.00    +0.500 C 
ATOM     12  OXT SER A  2       -6.357   1.354   0.673  0.00  0.00    -0.680 OA
ATOM     13  O   SER A  2       -4.634   2.425   0.086  0.00  0.00    -0.690 OA
ENDBRANCH  10  11
BRANCH  10  14
ATOM     14  CB  SER A  2       -5.099   1.440   3.316  0.00  0.00    +0.200 C 
BRANCH  14  15
ATOM     15  OG  SER A  2       -5.220   2.862   3.388  0.00  0.00    -0.560 OA
ATOM     16  H   SER A  2       -5.641   3.180   4.197  0.00  0.00    +0.380 HD
ENDBRANCH  14  15
ENDBRANCH  10  14
ENDBRANCH   7  10
ENDBRANCH   1   6
BRANCH   1  17
ATOM     17  CB  HIS A  1        0.041   0.972   2.456  0.00  0.00    +0.190 C 
BRANCH  17  18
ATOM     18  CG  HIS A  1        1.414   1.591   2.509  0.00  0.00    -0.040 A 
ATOM     19  CD2 HIS A  1        1.929   2.284   3.543  0.00  0.00    +0.180 A 
ATOM     20  NE2 HIS A  1        3.192   2.663   3.175  0.00  0.00    -0.560 N 
ATOM     21  HE2 HIS A  1        3.818   3.176   3.709  0.00  0.00    +0.430 HD
ATOM     22  CE1 HIS A  1        3.404   2.188   1.928  0.00  0.00    +0.440 A 
ATOM     23  ND1 HIS A  1        2.338   1.544   1.539  0.00  0.00    -0.530 NA
ENDBRANCH  17  18
ENDBRANCH   1  17
TORSDOF 8
ENDMDL
MODEL      173
REMARK  Name = ZINC000004533526
REMARK                            x       y       z     vdW  Elec       q    Type
REMARK                         _______ _______ _______ _____ _____    ______ ____
ROOT
ATOM      1  CA  HIS A  1       -0.699   1.479   1.216  0.00  0.00    +0.190 C 
ENDROOT
BRANCH   1   2
ATOM      2  N   HIS A  1       -0.012   1.005   0.008  0.00  0.00    -0.620 N 
ATOM      3  H1  HIS A  1       -0.500   1.339  -0.810  0.00  0.00    +0.430 HD
ATOM      4  H2  HIS A  1        0.935   1.354   0.000  0.00  0.00    +0.440 HD
ATOM      5  H3  HIS A  1        0.002  -0.004   0.002  0.00  0.00    +0.440 HD
ENDBRANCH   1   2
BRANCH   1   6
ATOM      6  C   HIS A  1        0.030   0.979   2.437  0.00  0.00    +0.490 C 
ATOM      7  N   SER A  2       -0.150   1.589   3.626  0.00  0.00    -0.650 N 
ATOM      8  H   SER A  2       -0.749   2.349   3.695  0.00  0.00    +0.410 HD
ATOM      9  O   HIS A  1        0.778   0.029   2.350  0.00  0.00    -0.540 OA
BRANCH   7  10
ATOM     10  CA  SER A  2        0.558   1.103   4.812  0.00  0.00    +0.170 C 
BRANCH  10  11
ATOM     11  C   SER A  2        1.931   1.723   4.866  0.00  0.00    +0.500 C 
ATOM     12  OXT SER A  2        2.854   1.115   5.382  0.00  0.00    -0.680 OA
ATOM     13  O   SER A  2        2.119   2.831   4.394  0.00  0.00    -0.680 OA
ENDBRANCH  10  11
BRANCH  10  14
ATOM     14  CB  SER A  2       -0.226   1.491   6.068  0.00  0.00    +0.190 C 
BRANCH  14  15
ATOM     15  OG  SER A  2       -0.247   2.914   6.196  0.00  0.00    -0.550 OA
ATOM     16  H   SER A  2       -0.728   3.232   6.973  0.00  0.00    +0.370 HD
ENDBRANCH  14  15
ENDBRANCH  10  14
ENDBRANCH   7  10
ENDBRANCH   1   6
BRANCH   1  17
ATOM     17  CB  HIS A  1       -2.135   0.949   1.227  0.00  0.00    +0.190 C 
BRANCH  17  18
ATOM     18  CG  HIS A  1       -2.899   1.546   0.074  0.00  0.00    -0.050 A 
ATOM     19  CD2 HIS A  1       -3.567   0.859  -0.873  0.00  0.00    +0.150 A 
ATOM     20  NE2 HIS A  1       -4.113   1.784  -1.722  0.00  0.00    -0.560 N 
ATOM     21  HE2 HIS A  1       -4.653   1.598  -2.506  0.00  0.00    +0.430 HD
ATOM     22  CE1 HIS A  1       -3.760   3.004  -1.263  0.00  0.00    +0.420 A 
ATOM     23  ND1 HIS A  1       -3.038   2.854  -0.187  0.00  0.00    -0.490 NA
ENDBRANCH  17  18
ENDBRANCH   1  17
TORSDOF 8
ENDMDL
MODEL      174
REMARK  Name = ZINC000004533527
REMARK                            x       y       z     vdW  Elec       q    Type
REMARK                         _______ _______ _______ _____ _____    ______ ____
ROOT
ATOM      1  CA  HIS A  1       -0.699   1.479   1.216  0.00  0.00    +0.180 C 
ENDROOT
BRANCH   1   2
ATOM      2  N   HIS A  1       -0.012   1.005   0.008  0.00  0.00    -0.620 N 
ATOM      3  H1  HIS A  1       -0.500   1.339  -0.810  0.00  0.00    +0.430 HD
ATOM      4  H2  HIS A  1        0.935   1.354   0.000  0.00  0.00    +0.440 HD
ATOM      5  H3  HIS A  1        0.002  -0.004   0.002  0.00  0.00    +0.440 HD
ENDBRANCH   1   2
BRANCH   1   6
ATOM      6  C   HIS A  1       -2.113   0.957   1.227  0.00  0.00    +0.490 C 
ATOM      7  N   SER A  2       -3.047   1.558   1.989  0.00  0.00    -0.660 N 
ATOM      8  H   SER A  2       -2.810   2.327   2.531  0.00  0.00    +0.410 HD
ATOM      9  O   HIS A  1       -2.410  -0.004   0.549  0.00  0.00    -0.530 OA
BRANCH   7  10
ATOM     10  CA  SER A  2       -4.422   1.051   2.000  0.00  0.00    +0.170 C 
BRANCH  10  11
ATOM     11  C   SER A  2       -4.536  -0.070   2.999  0.00  0.00    +0.500 C 
ATOM     12  OXT SER A  2       -5.342  -0.968   2.820  0.00  0.00    -0.680 OA
ATOM     13  O   SER A  2       -3.822  -0.081   3.988  0.00  0.00    -0.670 OA
ENDBRANCH  10  11
BRANCH  10  14
ATOM     14  CB  SER A  2       -5.379   2.180   2.388  0.00  0.00    +0.190 C 
BRANCH  14  15
ATOM     15  OG  SER A  2       -5.116   2.586   3.733  0.00  0.00    -0.550 OA
ATOM     16  H   SER A  2       -5.687   3.300   4.047  0.00  0.00    +0.370 HD
ENDBRANCH  14  15
ENDBRANCH  10  14
ENDBRANCH   7  10
ENDBRANCH   1   6
BRANCH   1  17
ATOM     17  CB  HIS A  1        0.041   0.972   2.456  0.00  0.00    +0.190 C 
BRANCH  17  18
ATOM     18  CG  HIS A  1        1.414   1.591   2.509  0.00  0.00    -0.040 A 
ATOM     19  CD2 HIS A  1        1.929   2.284   3.543  0.00  0.00    +0.180 A 
ATOM     20  NE2 HIS A  1        3.192   2.663   3.175  0.00  0.00    -0.560 N 
ATOM     21  HE2 HIS A  1        3.818   3.176   3.709  0.00  0.00    +0.430 HD
ATOM     22  CE1 HIS A  1        3.404   2.188   1.928  0.00  0.00    +0.430 A 
ATOM     23  ND1 HIS A  1        2.338   1.544   1.539  0.00  0.00    -0.530 NA
ENDBRANCH  17  18
ENDBRANCH   1  17
TORSDOF 8
ENDMDL
MODEL      175
REMARK  Name = ZINC000004785978
REMARK                            x       y       z     vdW  Elec       q    Type
REMARK                         _______ _______ _______ _____ _____    ______ ____
ROOT
ATOM      1  N   LIG    1        3.190   3.043   1.707  0.00  0.00    -0.660 NA
ATOM      2  H   LIG    1        3.180   3.806   1.046  0.00  0.00    +0.360 HD
ENDROOT
BRANCH   1   7
ATOM      3  O   LIG    1        0.002  -0.004   0.002  0.00  0.00    -0.930 OA
ATOM      4  S   LIG    1       -0.017   1.417   0.010  0.00  0.00    +2.400 S 
ATOM      5  C   LIG    1       -0.459   2.008   1.683  0.00  0.00    -0.310 C 
ATOM      6  C   LIG    1        0.789   2.760   2.186  0.00  0.00    +0.080 C 
ATOM      7  C   LIG    1        2.033   2.160   1.508  0.00  0.00    +0.190 C 
ATOM      8  O   LIG    1       -0.784   2.119  -0.959  0.00  0.00    -0.940 OA
ATOM      9  C   LIG    1        1.704   2.048  -0.003  0.00  0.00    -0.350 C 
ENDBRANCH   1   7
BRANCH   1  10
ATOM     10  C   LIG    1        4.448   2.290   1.623  0.00  0.00    +0.160 C 
BRANCH  10  11
ATOM     11  C   LIG    1        5.627   3.242   1.835  0.00  0.00    +0.230 C 
BRANCH  11  12
ATOM     12  O   LIG    1        5.610   4.254   0.826  0.00  0.00    -0.550 OA
ATOM     13  H   LIG    1        5.678   3.912  -0.076  0.00  0.00    +0.370 HD
ENDBRANCH  11  12
BRANCH  11  14
ATOM     14  C   LIG    1        6.938   2.457   1.747  0.00  0.00    +0.150 C 
BRANCH  14  15
ATOM     15  O   LIG    1        8.032   3.321   2.060  0.00  0.00    -0.560 OA
ATOM     16  H   LIG    1        8.897   2.889   2.024  0.00  0.00    +0.380 HD
ENDBRANCH  14  15
ENDBRANCH  11  14
ENDBRANCH  10  11
ENDBRANCH   1  10
TORSDOF 6
ENDMDL
MODEL      176
REMARK  Name = ZINC000004785980
REMARK                            x       y       z     vdW  Elec       q    Type
REMARK                         _______ _______ _______ _____ _____    ______ ____
ROOT
ATOM      1  N   LIG    1        3.190   3.043   1.707  0.00  0.00    -0.660 NA
ATOM      2  H   LIG    1        3.180   3.806   1.046  0.00  0.00    +0.350 HD
ENDROOT
BRANCH   1   7
ATOM      3  O   LIG    1        0.002  -0.004   0.002  0.00  0.00    -0.930 OA
ATOM      4  S   LIG    1       -0.017   1.417   0.010  0.00  0.00    +2.400 S 
ATOM      5  C   LIG    1       -0.459   2.008   1.683  0.00  0.00    -0.310 C 
ATOM      6  C   LIG    1        0.789   2.760   2.186  0.00  0.00    +0.080 C 
ATOM      7  C   LIG    1        2.033   2.160   1.508  0.00  0.00    +0.190 C 
ATOM      8  O   LIG    1       -0.784   2.119  -0.959  0.00  0.00    -0.940 OA
ATOM      9  C   LIG    1        1.704   2.048  -0.003  0.00  0.00    -0.350 C 
ENDBRANCH   1   7
BRANCH   1  10
ATOM     10  C   LIG    1        4.448   2.290   1.623  0.00  0.00    +0.150 C 
BRANCH  10  11
ATOM     11  C   LIG    1        5.627   3.242   1.835  0.00  0.00    +0.210 C 
BRANCH  11  12
ATOM     12  O   LIG    1        5.587   3.762   3.165  0.00  0.00    -0.540 OA
ATOM     13  H   LIG    1        5.638   3.085   3.854  0.00  0.00    +0.370 HD
ENDBRANCH  11  12
BRANCH  11  14
ATOM     14  C   LIG    1        6.939   2.483   1.624  0.00  0.00    +0.140 C 
BRANCH  14  15
ATOM     15  O   LIG    1        8.036   3.395   1.707  0.00  0.00    -0.560 OA
ATOM     16  H   LIG    1        8.901   2.982   1.583  0.00  0.00    +0.380 HD
ENDBRANCH  14  15
ENDBRANCH  11  14
ENDBRANCH  10  11
ENDBRANCH   1  10
TORSDOF 6
ENDMDL
MODEL      177
REMARK  Name = ZINC000004785979
REMARK                            x       y       z     vdW  Elec       q    Type
REMARK                         _______ _______ _______ _____ _____    ______ ____
ROOT
ATOM      1  N   LIG    1        3.259   2.652   1.800  0.00  0.00    -0.670 NA
ATOM      2  H   LIG    1        3.310   2.666   2.808  0.00  0.00    +0.350 HD
ENDROOT
BRANCH   1   7
ATOM      3  O   LIG    1        0.002  -0.004   0.002  0.00  0.00    -0.930 OA
ATOM      4  S   LIG    1       -0.017   1.417   0.010  0.00  0.00    +2.390 S 
ATOM      5  C   LIG    1       -0.460   2.009   1.687  0.00  0.00    -0.310 C 
ATOM      6  C   LIG    1        0.923   2.140   2.374  0.00  0.00    +0.070 C 
ATOM      7  C   LIG    1        1.869   2.779   1.343  0.00  0.00    +0.160 C 
ATOM      8  O   LIG    1       -0.784   2.119  -0.959  0.00  0.00    -0.940 OA
ATOM      9  C   LIG    1        1.700   2.046  -0.003  0.00  0.00    -0.310 C 
ENDBRANCH   1   7
BRANCH   1  10
ATOM     10  C   LIG    1        4.104   3.701   1.216  0.00  0.00    +0.160 C 
BRANCH  10  11
ATOM     11  C   LIG    1        5.541   3.535   1.715  0.00  0.00    +0.210 C 
BRANCH  11  12
ATOM     12  O   LIG    1        6.076   2.303   1.227  0.00  0.00    -0.540 OA
ATOM     13  H   LIG    1        6.100   2.240   0.263  0.00  0.00    +0.370 HD
ENDBRANCH  11  12
BRANCH  11  14
ATOM     14  C   LIG    1        6.395   4.699   1.207  0.00  0.00    +0.140 C 
BRANCH  14  15
ATOM     15  O   LIG    1        7.706   4.608   1.767  0.00  0.00    -0.560 OA
ATOM     16  H   LIG    1        8.304   5.315   1.488  0.00  0.00    +0.380 HD
ENDBRANCH  14  15
ENDBRANCH  11  14
ENDBRANCH  10  11
ENDBRANCH   1  10
TORSDOF 6
ENDMDL
MODEL      178
REMARK  Name = ZINC000004785977
REMARK                            x       y       z     vdW  Elec       q    Type
REMARK                         _______ _______ _______ _____ _____    ______ ____
ROOT
ATOM      1  N   LIG    1        3.259   2.652   1.800  0.00  0.00    -0.670 NA
ATOM      2  H   LIG    1        3.310   2.666   2.808  0.00  0.00    +0.360 HD
ENDROOT
BRANCH   1   7
ATOM      3  O   LIG    1        0.002  -0.004   0.002  0.00  0.00    -0.930 OA
ATOM      4  S   LIG    1       -0.017   1.417   0.010  0.00  0.00    +2.390 S 
ATOM      5  C   LIG    1       -0.460   2.009   1.687  0.00  0.00    -0.310 C 
ATOM      6  C   LIG    1        0.923   2.140   2.374  0.00  0.00    +0.070 C 
ATOM      7  C   LIG    1        1.869   2.779   1.343  0.00  0.00    +0.160 C 
ATOM      8  O   LIG    1       -0.784   2.119  -0.959  0.00  0.00    -0.940 OA
ATOM      9  C   LIG    1        1.700   2.046  -0.003  0.00  0.00    -0.300 C 
ENDBRANCH   1   7
BRANCH   1  10
ATOM     10  C   LIG    1        4.104   3.701   1.216  0.00  0.00    +0.160 C 
BRANCH  10  11
ATOM     11  C   LIG    1        5.541   3.535   1.715  0.00  0.00    +0.230 C 
BRANCH  11  12
ATOM     12  O   LIG    1        5.566   3.643   3.140  0.00  0.00    -0.550 OA
ATOM     13  H   LIG    1        5.243   4.490   3.476  0.00  0.00    +0.370 HD
ENDBRANCH  11  12
BRANCH  11  14
ATOM     14  C   LIG    1        6.422   4.628   1.106  0.00  0.00    +0.150 C 
BRANCH  14  15
ATOM     15  O   LIG    1        7.783   4.406   1.479  0.00  0.00    -0.560 OA
ATOM     16  H   LIG    1        8.400   5.062   1.127  0.00  0.00    +0.380 HD
ENDBRANCH  14  15
ENDBRANCH  11  14
ENDBRANCH  10  11
ENDBRANCH   1  10
TORSDOF 6
ENDMDL
MODEL      179
REMARK  Name = ZINC000253417458
REMARK                            x       y       z     vdW  Elec       q    Type
REMARK                         _______ _______ _______ _____ _____    ______ ____
ROOT
ATOM      1  N   LIG    1        1.220  -1.738  -1.362  0.00  0.00    -0.380 N 
ATOM      2  C   LIG    1        1.899  -2.337  -0.205  0.00  0.00    +0.250 C 
ATOM      3  C   LIG    1        1.376  -3.761   0.012  0.00  0.00    +0.330 C 
ATOM      4  N   LIG    1        1.536  -4.513  -1.242  0.00  0.00    -0.620 N 
ATOM      5  C   LIG    1        1.028  -3.908  -2.483  0.00  0.00    +0.230 C 
ATOM      6  C   LIG    1       -0.501  -3.884  -2.455  0.00  0.00    +0.040 C 
ATOM      7  C   LIG    1        2.131  -5.722  -1.254  0.00  0.00    +0.460 C 
ATOM      8  O   LIG    1        2.367  -6.272  -2.309  0.00  0.00    -0.520 OA
ATOM      9  C   LIG    1        1.569  -2.477  -2.582  0.00  0.00    +0.250 C 
ATOM     10  H   LIG    1        0.222  -1.776  -1.221  0.00  0.00    +0.420 HD
ENDROOT
BRANCH   7  11
ATOM     11  C   LIG    1        2.502  -6.386   0.035  0.00  0.00    +0.500 C 
ATOM     12  O   LIG    1        2.157  -5.893   1.097  0.00  0.00    -0.650 OA
ATOM     13  O   LIG    1        3.150  -7.420   0.025  0.00  0.00    -0.610 OA
ENDBRANCH   7  11
BRANCH   1  14
ATOM     14  C   LIG    1        1.641  -0.338  -1.503  0.00  0.00    +0.220 C 
BRANCH  14  16
ATOM     15  C   LIG    1        1.302   1.772  -2.798  0.00  0.00    +0.040 C 
ATOM     16  C   LIG    1        0.909   0.298  -2.686  0.00  0.00    +0.200 C 
BRANCH  16  17
ATOM     17  O   LIG    1       -0.502   0.195  -2.485  0.00  0.00    -0.560 OA
ATOM     18  H   LIG    1       -0.818   0.636  -1.684  0.00  0.00    +0.390 HD
ENDBRANCH  16  17
ENDBRANCH  14  16
ENDBRANCH   1  14
TORSDOF 4
ENDMDL
MODEL      180
REMARK  Name = ZINC000253417458
REMARK                            x       y       z     vdW  Elec       q    Type
REMARK                         _______ _______ _______ _____ _____    ______ ____
ROOT
ATOM      1  N   LIG    1        0.393  -1.694  -1.833  0.00  0.00    -0.380 N 
ATOM      2  C   LIG    1       -0.918  -2.001  -2.418  0.00  0.00    +0.240 C 
ATOM      3  C   LIG    1       -1.154  -3.514  -2.376  0.00  0.00    +0.340 C 
ATOM      4  N   LIG    1       -0.022  -4.181  -3.038  0.00  0.00    -0.620 N 
ATOM      5  C   LIG    1        1.340  -3.810  -2.623  0.00  0.00    +0.210 C 
ATOM      6  C   LIG    1        2.356  -4.428  -3.585  0.00  0.00    +0.080 C 
ATOM      7  C   LIG    1       -0.227  -5.106  -3.997  0.00  0.00    +0.460 C 
ATOM      8  O   LIG    1        0.713  -5.553  -4.618  0.00  0.00    -0.510 OA
ATOM      9  C   LIG    1        1.457  -2.283  -2.656  0.00  0.00    +0.240 C 
ATOM     10  H   LIG    1        0.441  -2.075  -0.900  0.00  0.00    +0.420 HD
ENDROOT
BRANCH   7  11
ATOM     11  C   LIG    1       -1.615  -5.580  -4.294  0.00  0.00    +0.500 C 
ATOM     12  O   LIG    1       -2.546  -5.222  -3.591  0.00  0.00    -0.650 OA
ATOM     13  O   LIG    1       -1.816  -6.325  -5.240  0.00  0.00    -0.620 OA
ENDBRANCH   7  11
BRANCH   1  14
ATOM     14  C   LIG    1        0.572  -0.237  -1.773  0.00  0.00    +0.220 C 
BRANCH  14  16
ATOM     15  C   LIG    1       -0.353   1.891  -0.846  0.00  0.00    +0.040 C 
ATOM     16  C   LIG    1       -0.456   0.365  -0.813  0.00  0.00    +0.200 C 
BRANCH  16  17
ATOM     17  O   LIG    1       -0.200  -0.102   0.513  0.00  0.00    -0.560 OA
ATOM     18  H   LIG    1        0.676   0.132   0.850  0.00  0.00    +0.390 HD
ENDBRANCH  16  17
ENDBRANCH  14  16
ENDBRANCH   1  14
TORSDOF 4
ENDMDL
MODEL      181
REMARK  Name = ZINC000253417457
REMARK                            x       y       z     vdW  Elec       q    Type
REMARK                         _______ _______ _______ _____ _____    ______ ____
ROOT
ATOM      1  N   LIG    1        1.175  -1.749  -1.342  0.00  0.00    -0.380 N 
ATOM      2  C   LIG    1        1.921  -2.330  -0.219  0.00  0.00    +0.250 C 
ATOM      3  C   LIG    1        1.466  -3.777   0.001  0.00  0.00    +0.330 C 
ATOM      4  N   LIG    1        1.608  -4.509  -1.267  0.00  0.00    -0.620 N 
ATOM      5  C   LIG    1        1.028  -3.913  -2.480  0.00  0.00    +0.210 C 
ATOM      6  C   LIG    1        1.489  -4.698  -3.709  0.00  0.00    +0.080 C 
ATOM      7  C   LIG    1        2.252  -5.692  -1.315  0.00  0.00    +0.460 C 
ATOM      8  O   LIG    1        2.468  -6.222  -2.385  0.00  0.00    -0.510 OA
ATOM      9  C   LIG    1        1.506  -2.461  -2.583  0.00  0.00    +0.240 C 
ATOM     10  H   LIG    1        0.185  -1.829  -1.163  0.00  0.00    +0.420 HD
ENDROOT
BRANCH   7  11
ATOM     11  C   LIG    1        2.699  -6.353  -0.049  0.00  0.00    +0.500 C 
ATOM     12  O   LIG    1        2.379  -5.884   1.031  0.00  0.00    -0.650 OA
ATOM     13  O   LIG    1        3.385  -7.362  -0.096  0.00  0.00    -0.610 OA
ENDBRANCH   7  11
BRANCH   1  14
ATOM     14  C   LIG    1        1.532  -0.331  -1.483  0.00  0.00    +0.220 C 
BRANCH  14  16
ATOM     15  C   LIG    1        1.085   1.768  -2.763  0.00  0.00    +0.040 C 
ATOM     16  C   LIG    1        0.733   0.284  -2.633  0.00  0.00    +0.200 C 
BRANCH  16  17
ATOM     17  O   LIG    1       -0.665   0.147  -2.369  0.00  0.00    -0.560 OA
ATOM     18  H   LIG    1       -0.956   0.581  -1.556  0.00  0.00    +0.390 HD
ENDBRANCH  16  17
ENDBRANCH  14  16
ENDBRANCH   1  14
TORSDOF 4
ENDMDL
MODEL      182
REMARK  Name = ZINC000253417457
REMARK                            x       y       z     vdW  Elec       q    Type
REMARK                         _______ _______ _______ _____ _____    ______ ____
ROOT
ATOM      1  N   LIG    1        0.498  -1.622  -1.964  0.00  0.00    -0.380 N 
ATOM      2  C   LIG    1       -0.889  -2.041  -2.202  0.00  0.00    +0.240 C 
ATOM      3  C   LIG    1       -1.038  -3.527  -1.858  0.00  0.00    +0.330 C 
ATOM      4  N   LIG    1       -0.035  -4.286  -2.621  0.00  0.00    -0.620 N 
ATOM      5  C   LIG    1        1.363  -3.833  -2.570  0.00  0.00    +0.230 C 
ATOM      6  C   LIG    1        1.935  -4.087  -1.174  0.00  0.00    +0.040 C 
ATOM      7  C   LIG    1       -0.388  -5.365  -3.347  0.00  0.00    +0.460 C 
ATOM      8  O   LIG    1        0.421  -5.892  -4.082  0.00  0.00    -0.520 OA
ATOM      9  C   LIG    1        1.398  -2.333  -2.881  0.00  0.00    +0.250 C 
ATOM     10  H   LIG    1        0.754  -1.836  -1.012  0.00  0.00    +0.420 HD
ENDROOT
BRANCH   7  11
ATOM     11  C   LIG    1       -1.777  -5.913  -3.247  0.00  0.00    +0.500 C 
ATOM     12  O   LIG    1       -2.551  -5.465  -2.417  0.00  0.00    -0.650 OA
ATOM     13  O   LIG    1       -2.135  -6.808  -3.995  0.00  0.00    -0.610 OA
ENDBRANCH   7  11
BRANCH   1  14
ATOM     14  C   LIG    1        0.616  -0.175  -2.188  0.00  0.00    +0.220 C 
BRANCH  14  16
ATOM     15  C   LIG    1       -0.200   2.070  -1.457  0.00  0.00    +0.050 C 
ATOM     16  C   LIG    1       -0.222   0.572  -1.148  0.00  0.00    +0.200 C 
BRANCH  16  17
ATOM     17  O   LIG    1        0.323   0.345   0.154  0.00  0.00    -0.560 OA
ATOM     18  H   LIG    1        1.237   0.644   0.255  0.00  0.00    +0.390 HD
ENDBRANCH  16  17
ENDBRANCH  14  16
ENDBRANCH   1  14
TORSDOF 4
ENDMDL
MODEL      183
REMARK  Name = ZINC000005187721
REMARK                            x       y       z     vdW  Elec       q    Type
REMARK                         _______ _______ _______ _____ _____    ______ ____
ROOT
ATOM      1  CA  LIG    1       -0.642   1.836   1.197  0.00  0.00    +0.190 C 
ATOM      2  C   LIG    1       -0.354   3.213   1.770  0.00  0.00    +0.530 C 
ATOM      3  N   LIG    1        0.028   2.681   2.943  0.00  0.00    -0.530 N 
ATOM      4  CA  LIG    1        0.206   3.092   4.275  0.00  0.00    +0.060 C 
ATOM      5  C   LIG    1        0.024   2.229   5.265  0.00  0.00    -0.140 C 
ATOM      6  C   LIG    1       -0.321   0.778   5.177  0.00  0.00    +0.230 C 
ATOM      7  S   LIG    1       -1.050   0.340   3.570  0.00  0.00    -0.210 S 
ATOM      8  O   LIG    1       -0.436   4.344   1.339  0.00  0.00    -0.410 OA
ATOM      9  C   LIG    1        0.036   1.268   2.440  0.00  0.00    +0.250 C 
ENDROOT
BRANCH   1  10
ATOM     10  N   LIG    1        0.081   1.553  -0.050  0.00  0.00    -0.620 N 
ATOM     11  H1  LIG    1       -0.406   1.978  -0.825  0.00  0.00    +0.450 HD
ATOM     12  H2  LIG    1        1.015   1.932   0.009  0.00  0.00    +0.440 HD
ATOM     13  H3  LIG    1        0.131   0.555  -0.191  0.00  0.00    +0.440 HD
ENDBRANCH   1  10
BRANCH   4  14
ATOM     14  C   LIG    1        0.597   4.480   4.571  0.00  0.00    +0.520 C 
ATOM     15  OXT LIG    1        0.875   5.245   3.658  0.00  0.00    -0.650 OA
ATOM     16  O   LIG    1        0.643   4.869   5.730  0.00  0.00    -0.650 OA
ENDBRANCH   4  14
BRANCH   5  17
ATOM     17  C   LIG    1        0.183   2.783   6.658  0.00  0.00    +0.300 C 
BRANCH  17  18
ATOM     18  O   LIG    1        0.049   1.725   7.609  0.00  0.00    -0.600 OA
ATOM     19  H   LIG    1        0.064   2.020   8.530  0.00  0.00    +0.380 HD
ENDBRANCH  17  18
ENDBRANCH   5  17
TORSDOF 4
ENDMDL
MODEL      184
REMARK  Name = ZINC000005187736
REMARK                            x       y       z     vdW  Elec       q    Type
REMARK                         _______ _______ _______ _____ _____    ______ ____
ROOT
ATOM      1  CA  LIG    1       -0.725   1.406   1.201  0.00  0.00    +0.190 C 
ATOM      2  C   LIG    1       -1.929   0.576   1.612  0.00  0.00    +0.530 C 
ATOM      3  N   LIG    1       -1.420   0.388   2.842  0.00  0.00    -0.530 N 
ATOM      4  CA  LIG    1       -1.869   0.007   4.118  0.00  0.00    +0.060 C 
ATOM      5  C   LIG    1       -1.262   0.476   5.200  0.00  0.00    -0.140 C 
ATOM      6  C   LIG    1       -0.066   1.367   5.279  0.00  0.00    +0.230 C 
ATOM      7  S   LIG    1        0.220   2.274   3.729  0.00  0.00    -0.210 S 
ATOM      8  O   LIG    1       -2.946   0.223   1.053  0.00  0.00    -0.400 OA
ATOM      9  C   LIG    1       -0.074   0.957   2.505  0.00  0.00    +0.250 C 
ENDROOT
BRANCH   1  10
ATOM     10  N   LIG    1       -0.045   0.904  -0.001  0.00  0.00    -0.620 N 
ATOM     11  H1  LIG    1       -0.541   1.215  -0.822  0.00  0.00    +0.450 HD
ATOM     12  H2  LIG    1        0.900   1.257  -0.025  0.00  0.00    +0.440 HD
ATOM     13  H3  LIG    1       -0.027  -0.104   0.020  0.00  0.00    +0.440 HD
ENDBRANCH   1  10
BRANCH   4  14
ATOM     14  C   LIG    1       -3.012  -0.910   4.254  0.00  0.00    +0.520 C 
ATOM     15  OXT LIG    1       -3.638  -1.258   3.262  0.00  0.00    -0.650 OA
ATOM     16  O   LIG    1       -3.336  -1.325   5.358  0.00  0.00    -0.650 OA
ENDBRANCH   4  14
BRANCH   5  17
ATOM     17  C   LIG    1       -1.854   0.054   6.520  0.00  0.00    +0.290 C 
BRANCH  17  18
ATOM     18  O   LIG    1       -1.172   0.721   7.584  0.00  0.00    -0.600 OA
ATOM     19  H   LIG    1       -1.449   0.440   8.466  0.00  0.00    +0.380 HD
ENDBRANCH  17  18
ENDBRANCH   5  17
TORSDOF 4
ENDMDL
MODEL      185
REMARK  Name = ZINC000005187725
REMARK                            x       y       z     vdW  Elec       q    Type
REMARK                         _______ _______ _______ _____ _____    ______ ____
ROOT
ATOM      1  CA  LIG    1       -1.034   1.343   1.225  0.00  0.00    +0.190 C 
ATOM      2  C   LIG    1       -2.107   0.360   1.663  0.00  0.00    +0.540 C 
ATOM      3  N   LIG    1       -1.321  -0.108   2.648  0.00  0.00    -0.540 N 
ATOM      4  CA  LIG    1       -1.232  -1.244   3.471  0.00  0.00    +0.060 C 
ATOM      5  C   LIG    1       -0.049  -1.654   3.908  0.00  0.00    -0.150 C 
ATOM      6  C   LIG    1        1.289  -1.028   3.684  0.00  0.00    +0.250 C 
ATOM      7  S   LIG    1        1.294   0.093   2.253  0.00  0.00    -0.270 S 
ATOM      8  O   LIG    1       -3.227   0.100   1.277  0.00  0.00    -0.400 OA
ATOM      9  C   LIG    1       -0.287   0.969   2.501  0.00  0.00    +0.290 C 
ENDROOT
BRANCH   1  10
ATOM     10  N   LIG    1       -0.336   0.944  -0.005  0.00  0.00    -0.610 N 
ATOM     11  H1  LIG    1       -0.896   1.196  -0.806  0.00  0.00    +0.440 HD
ATOM     12  H2  LIG    1        0.554   1.417  -0.055  0.00  0.00    +0.440 HD
ATOM     13  H3  LIG    1       -0.187  -0.054   0.001  0.00  0.00    +0.440 HD
ENDBRANCH   1  10
BRANCH   4  14
ATOM     14  C   LIG    1       -2.451  -1.978   3.848  0.00  0.00    +0.520 C 
ATOM     15  OXT LIG    1       -3.550  -1.537   3.540  0.00  0.00    -0.650 OA
ATOM     16  O   LIG    1       -2.365  -3.028   4.470  0.00  0.00    -0.650 OA
ENDBRANCH   4  14
BRANCH   5  17
ATOM     17  C   LIG    1       -0.054  -2.913   4.736  0.00  0.00    +0.300 C 
BRANCH  17  18
ATOM     18  O   LIG    1        1.268  -3.178   5.208  0.00  0.00    -0.600 OA
ATOM     19  H   LIG    1        1.355  -4.015   5.685  0.00  0.00    +0.390 HD
ENDBRANCH  17  18
ENDBRANCH   5  17
TORSDOF 4
ENDMDL
MODEL      186
REMARK  Name = ZINC000005725583
REMARK                            x       y       z     vdW  Elec       q    Type
REMARK                         _______ _______ _______ _____ _____    ______ ____
ROOT
ATOM      1  C   LIG    1       -0.555  -0.726   0.198  0.00  0.00    +0.110 C 
ATOM      2  C   LIG    1        0.355  -0.935  -1.016  0.00  0.00    +0.190 C 
ATOM      3  O   LIG    1       -0.222  -0.298  -2.158  0.00  0.00    -0.370 OA
ATOM      4  C   LIG    1       -1.504  -0.811  -2.526  0.00  0.00    +0.300 C 
ATOM      5  C   LIG    1       -2.488  -0.597  -1.373  0.00  0.00    +0.210 C 
ATOM      6  C   LIG    1       -1.947  -1.284  -0.114  0.00  0.00    +0.170 C 
ENDROOT
BRANCH   1   7
ATOM      7  O   LIG    1       -0.653   0.670   0.486  0.00  0.00    -0.550 OA
ATOM      8  H   LIG    1        0.194   1.090   0.691  0.00  0.00    +0.380 HD
ENDBRANCH   1   7
BRANCH   5   9
ATOM      9  O   LIG    1       -3.756  -1.160  -1.717  0.00  0.00    -0.550 OA
ATOM     10  H   LIG    1       -4.430  -1.060  -1.030  0.00  0.00    +0.390 HD
ENDBRANCH   5   9
BRANCH   4  11
ATOM     11  O   LIG    1       -1.396  -2.208  -2.807  0.00  0.00    -0.550 OA
ATOM     12  H   LIG    1       -0.786  -2.418  -3.528  0.00  0.00    +0.390 HD
ENDBRANCH   4  11
BRANCH   6  13
ATOM     13  O   LIG    1       -2.824  -1.029   0.985  0.00  0.00    -0.560 OA
ATOM     14  H   LIG    1       -2.542  -1.435   1.816  0.00  0.00    +0.380 HD
ENDBRANCH   6  13
BRANCH   4  15
ATOM     15  C   LIG    1       -2.009  -0.078  -3.771  0.00  0.00    +0.210 C 
BRANCH  15  16
ATOM     16  N   LIG    1       -1.180  -0.447  -4.926  0.00  0.00    -0.540 NA
ATOM     17  C   LIG    1        0.246  -0.254  -4.633  0.00  0.00    +0.160 C 
ATOM     18  C   LIG    1        1.084  -0.783  -5.800  0.00  0.00    +0.020 C 
ATOM     19  C   LIG    1        0.700  -0.033  -7.078  0.00  0.00    +0.000 C 
ATOM     20  C   LIG    1       -0.799  -0.209  -7.334  0.00  0.00    +0.020 C 
ATOM     21  C   LIG    1       -1.582   0.303  -6.123  0.00  0.00    +0.170 C 
ENDBRANCH  15  16
ENDBRANCH   4  15
TORSDOF 6
ENDMDL
MODEL      187
REMARK  Name = ZINC000001579627
REMARK                            x       y       z     vdW  Elec       q    Type
REMARK                         _______ _______ _______ _____ _____    ______ ____
ROOT
ATOM      1  N   LIG    1       -1.372  -0.511   0.012  0.00  0.00    -0.710 N 
ATOM      2  H   LIG    1       -1.794  -0.752   0.852  0.00  0.00    +0.420 HD
ATOM      3  C   LIG    1       -2.051  -0.643  -1.145  0.00  0.00    +0.520 C 
ATOM      4  O   LIG    1       -1.524  -0.341  -2.194  0.00  0.00    -0.540 OA
ENDROOT
BRANCH   1   6
ATOM      5  C   LIG    1       -0.019   1.526   0.010  0.00  0.00    +0.060 C 
ATOM      6  C   LIG    1        0.002  -0.004   0.002  0.00  0.00    +0.240 C 
BRANCH   6   7
ATOM      7  C   LIG    1        0.731  -0.503   1.223  0.00  0.00    +0.520 C 
ATOM      8  O   LIG    1        0.159  -1.213   2.023  0.00  0.00    -0.540 OA
ATOM      9  N   LIG    1        2.019  -0.161   1.426  0.00  0.00    -0.850 N 
ATOM     10  H   LIG    1        2.488  -0.483   2.212  0.00  0.00    +0.410 HD
ATOM     11  H   LIG    1        2.476   0.406   0.786  0.00  0.00    +0.410 HD
ENDBRANCH   6   7
ENDBRANCH   1   6
BRANCH   3  12
ATOM     12  C   LIG    1       -3.465  -1.164  -1.134  0.00  0.00    +0.300 C 
BRANCH  12  13
ATOM     13  N   LIG    1       -3.978  -1.213  -2.505  0.00  0.00    -0.720 N 
ATOM     14  H   LIG    1       -3.416  -0.931  -3.244  0.00  0.00    +0.410 HD
ATOM     15  C   LIG    1       -5.231  -1.650  -2.741  0.00  0.00    +0.510 C 
ATOM     16  O   LIG    1       -5.933  -2.003  -1.818  0.00  0.00    -0.520 OA
BRANCH  15  17
ATOM     17  C   LIG    1       -5.758  -1.700  -4.152  0.00  0.00    +0.220 C 
BRANCH  17  18
ATOM     18  N   LIG    1       -7.136  -2.209  -4.141  0.00  0.00    -0.830 NA
ATOM     19  H   LIG    1       -7.513  -2.252  -5.077  0.00  0.00    +0.350 HD
ATOM     20  H   LIG    1       -7.723  -1.650  -3.541  0.00  0.00    +0.350 HD
ENDBRANCH  17  18
ENDBRANCH  15  17
ENDBRANCH  12  13
ENDBRANCH   3  12
TORSDOF 6
ENDMDL
MODEL      188
REMARK  Name = ZINC000253417454
REMARK                            x       y       z     vdW  Elec       q    Type
REMARK                         _______ _______ _______ _____ _____    ______ ____
ROOT
ATOM      1  N   LIG    1       -1.266  -2.089  -0.217  0.00  0.00    -0.380 N 
ATOM      2  C   LIG    1       -1.086  -2.610  -1.579  0.00  0.00    +0.240 C 
ATOM      3  C   LIG    1       -1.153  -4.140  -1.552  0.00  0.00    +0.320 C 
ATOM      4  N   LIG    1       -2.414  -4.541  -0.911  0.00  0.00    -0.620 N 
ATOM      5  C   LIG    1       -2.754  -3.939   0.388  0.00  0.00    +0.190 C 
ATOM      6  C   LIG    1       -4.194  -4.298   0.761  0.00  0.00    +0.080 C 
ATOM      7  C   LIG    1       -3.236  -5.435  -1.496  0.00  0.00    +0.460 C 
ATOM      8  O   LIG    1       -4.251  -5.786  -0.932  0.00  0.00    -0.510 OA
ATOM      9  C   LIG    1       -2.612  -2.418   0.268  0.00  0.00    +0.240 C 
ATOM     10  H   LIG    1       -0.579  -2.505   0.394  0.00  0.00    +0.420 HD
ENDROOT
BRANCH   7  11
ATOM     11  C   LIG    1       -2.896  -5.995  -2.842  0.00  0.00    +0.500 C 
ATOM     12  O   LIG    1       -1.819  -5.738  -3.355  0.00  0.00    -0.650 OA
ATOM     13  O   LIG    1       -3.696  -6.708  -3.426  0.00  0.00    -0.610 OA
ENDBRANCH   7  11
BRANCH   1  14
ATOM     14  C   LIG    1       -1.093  -0.631  -0.225  0.00  0.00    +0.220 C 
BRANCH  14  16
ATOM     15  C   LIG    1        0.530   1.229  -0.615  0.00  0.00    +0.040 C 
ATOM     16  C   LIG    1        0.349  -0.290  -0.607  0.00  0.00    +0.210 C 
BRANCH  16  17
ATOM     17  O   LIG    1        1.244  -0.871   0.345  0.00  0.00    -0.560 OA
ATOM     18  H   LIG    1        1.108  -0.562   1.251  0.00  0.00    +0.390 HD
ENDBRANCH  16  17
ENDBRANCH  14  16
ENDBRANCH   1  14
TORSDOF 4
ENDMDL
MODEL      189
REMARK  Name = ZINC000253417454
REMARK                            x       y       z     vdW  Elec       q    Type
REMARK                         _______ _______ _______ _____ _____    ______ ____
ROOT
ATOM      1  N   LIG    1       -1.629  -1.952   0.058  0.00  0.00    -0.380 N 
ATOM      2  C   LIG    1       -1.172  -2.392   1.382  0.00  0.00    +0.240 C 
ATOM      3  C   LIG    1       -1.078  -3.921   1.407  0.00  0.00    +0.310 C 
ATOM      4  N   LIG    1       -2.379  -4.475   0.999  0.00  0.00    -0.610 N 
ATOM      5  C   LIG    1       -2.990  -3.967  -0.239  0.00  0.00    +0.230 C 
ATOM      6  C   LIG    1       -2.179  -4.443  -1.446  0.00  0.00    +0.040 C 
ATOM      7  C   LIG    1       -2.992  -5.420   1.738  0.00  0.00    +0.460 C 
ATOM      8  O   LIG    1       -4.051  -5.885   1.371  0.00  0.00    -0.520 OA
ATOM      9  C   LIG    1       -2.994  -2.436  -0.184  0.00  0.00    +0.250 C 
ATOM     10  H   LIG    1       -1.012  -2.323  -0.650  0.00  0.00    +0.420 HD
ENDROOT
BRANCH   7  11
ATOM     11  C   LIG    1       -2.368  -5.897   3.012  0.00  0.00    +0.500 C 
ATOM     12  O   LIG    1       -1.250  -5.517   3.323  0.00  0.00    -0.650 OA
ATOM     13  O   LIG    1       -2.976  -6.665   3.740  0.00  0.00    -0.610 OA
ENDBRANCH   7  11
BRANCH   1  14
ATOM     14  C   LIG    1       -1.614  -0.485  -0.001  0.00  0.00    +0.220 C 
BRANCH  14  16
ATOM     15  C   LIG    1       -2.025   1.499  -1.463  0.00  0.00    +0.040 C 
ATOM     16  C   LIG    1       -1.940  -0.028  -1.425  0.00  0.00    +0.200 C 
BRANCH  16  17
ATOM     17  O   LIG    1       -0.913  -0.471  -2.314  0.00  0.00    -0.560 OA
ATOM     18  H   LIG    1       -0.033  -0.130  -2.100  0.00  0.00    +0.390 HD
ENDBRANCH  16  17
ENDBRANCH  14  16
ENDBRANCH   1  14
TORSDOF 4
ENDMDL
MODEL      190
REMARK  Name = ZINC000253417455
REMARK                            x       y       z     vdW  Elec       q    Type
REMARK                         _______ _______ _______ _____ _____    ______ ____
ROOT
ATOM      1  N   LIG    1       -1.535  -1.955  -0.019  0.00  0.00    -0.380 N 
ATOM      2  C   LIG    1       -0.996  -2.381  -1.317  0.00  0.00    +0.240 C 
ATOM      3  C   LIG    1       -0.776  -3.897  -1.304  0.00  0.00    +0.310 C 
ATOM      4  N   LIG    1       -2.041  -4.549  -0.929  0.00  0.00    -0.610 N 
ATOM      5  C   LIG    1       -2.737  -4.069   0.275  0.00  0.00    +0.230 C 
ATOM      6  C   LIG    1       -1.934  -4.452   1.520  0.00  0.00    +0.040 C 
ATOM      7  C   LIG    1       -2.547  -5.556  -1.667  0.00  0.00    +0.460 C 
ATOM      8  O   LIG    1       -3.579  -6.098  -1.327  0.00  0.00    -0.520 OA
ATOM      9  C   LIG    1       -2.864  -2.544   0.186  0.00  0.00    +0.250 C 
ATOM     10  H   LIG    1       -0.916  -2.259   0.717  0.00  0.00    +0.420 HD
ENDROOT
BRANCH   7  11
ATOM     11  C   LIG    1       -1.837  -6.008  -2.905  0.00  0.00    +0.500 C 
ATOM     12  O   LIG    1       -0.741  -5.550  -3.180  0.00  0.00    -0.650 OA
ATOM     13  O   LIG    1       -2.356  -6.833  -3.639  0.00  0.00    -0.610 OA
ENDBRANCH   7  11
BRANCH   1  14
ATOM     14  C   LIG    1       -1.642  -0.490   0.007  0.00  0.00    +0.220 C 
BRANCH  14  16
ATOM     15  C   LIG    1       -0.355   1.651  -0.050  0.00  0.00    +0.050 C 
ATOM     16  C   LIG    1       -0.244   0.125  -0.077  0.00  0.00    +0.210 C 
BRANCH  16  17
ATOM     17  O   LIG    1        0.538  -0.315   1.034  0.00  0.00    -0.560 OA
ATOM     18  H   LIG    1        0.171  -0.071   1.895  0.00  0.00    +0.390 HD
ENDBRANCH  16  17
ENDBRANCH  14  16
ENDBRANCH   1  14
TORSDOF 4
ENDMDL
MODEL      191
REMARK  Name = ZINC000253417455
REMARK                            x       y       z     vdW  Elec       q    Type
REMARK                         _______ _______ _______ _____ _____    ______ ____
ROOT
ATOM      1  N   LIG    1       -1.668  -1.837  -0.487  0.00  0.00    -0.380 N 
ATOM      2  C   LIG    1       -1.196  -1.983   0.896  0.00  0.00    +0.240 C 
ATOM      3  C   LIG    1       -1.091  -3.472   1.244  0.00  0.00    +0.310 C 
ATOM      4  N   LIG    1       -2.391  -4.106   0.976  0.00  0.00    -0.620 N 
ATOM      5  C   LIG    1       -3.018  -3.875  -0.335  0.00  0.00    +0.210 C 
ATOM      6  C   LIG    1       -4.450  -4.413  -0.322  0.00  0.00    +0.080 C 
ATOM      7  C   LIG    1       -2.991  -4.876   1.905  0.00  0.00    +0.460 C 
ATOM      8  O   LIG    1       -4.039  -5.431   1.648  0.00  0.00    -0.510 OA
ATOM      9  C   LIG    1       -3.032  -2.367  -0.607  0.00  0.00    +0.240 C 
ATOM     10  H   LIG    1       -1.055  -2.346  -1.106  0.00  0.00    +0.420 HD
ENDROOT
BRANCH   7  11
ATOM     11  C   LIG    1       -2.365  -5.046   3.254  0.00  0.00    +0.500 C 
ATOM     12  O   LIG    1       -1.257  -4.584   3.475  0.00  0.00    -0.650 OA
ATOM     13  O   LIG    1       -2.962  -5.648   4.132  0.00  0.00    -0.610 OA
ENDBRANCH   7  11
BRANCH   1  14
ATOM     14  C   LIG    1       -1.663  -0.415  -0.856  0.00  0.00    +0.220 C 
BRANCH  14  16
ATOM     15  C   LIG    1       -2.098   1.211  -2.702  0.00  0.00    +0.040 C 
ATOM     16  C   LIG    1       -2.002  -0.272  -2.341  0.00  0.00    +0.200 C 
BRANCH  16  17
ATOM     17  O   LIG    1       -0.979  -0.889  -3.125  0.00  0.00    -0.560 OA
ATOM     18  H   LIG    1       -0.100  -0.507  -2.995  0.00  0.00    +0.390 HD
ENDBRANCH  16  17
ENDBRANCH  14  16
ENDBRANCH   1  14
TORSDOF 4
ENDMDL
MODEL      192
REMARK  Name = ZINC000043708030
REMARK                            x       y       z     vdW  Elec       q    Type
REMARK                         _______ _______ _______ _____ _____    ______ ____
ROOT
ATOM      1  O   LIG    1        0.002  -0.004   0.002  0.00  0.00    -0.510 OA
ATOM      2  C   LIG    1       -0.014   1.209   0.009  0.00  0.00    +0.530 C 
ATOM      3  N   LIG    1       -1.191   1.867   0.018  0.00  0.00    -0.610 N 
ATOM      4  C   LIG    1       -1.233   3.337   0.020  0.00  0.00    +0.290 C 
ATOM      5  C   LIG    1       -2.166   3.798  -1.105  0.00  0.00    +0.170 C 
ATOM      6  N   LIG    1       -3.470   3.139  -0.957  0.00  0.00    -0.530 NA
ATOM      7  C   LIG    1       -3.350   1.682  -1.099  0.00  0.00    +0.170 C 
ATOM      8  C   LIG    1       -2.466   1.133   0.020  0.00  0.00    +0.300 C 
ENDROOT
BRANCH   2   9
ATOM      9  C   LIG    1        1.280   1.980   0.001  0.00  0.00    +0.120 C 
ATOM     10  C   LIG    1        1.421   2.757   1.312  0.00  0.00    +0.220 C 
ATOM     11  N   LIG    1        2.720   3.445   1.331  0.00  0.00    -0.680 NA
ATOM     12  H   LIG    1        2.766   4.151   0.612  0.00  0.00    +0.340 HD
ATOM     13  C   LIG    1        3.822   2.482   1.195  0.00  0.00    +0.200 C 
ATOM     14  C   LIG    1        3.657   1.708  -0.115  0.00  0.00    +0.180 C 
ATOM     15  O   LIG    1        2.377   1.071  -0.130  0.00  0.00    -0.350 OA
ENDBRANCH   2   9
BRANCH   6  16
ATOM     16  C   LIG    1       -4.446   3.682  -1.911  0.00  0.00    +0.190 C 
BRANCH  16  17
ATOM     17  C   LIG    1       -5.842   3.159  -1.567  0.00  0.00    +0.180 C 
BRANCH  17  18
ATOM     18  O   LIG    1       -6.239   3.665  -0.291  0.00  0.00    -0.560 OA
ATOM     19  H   LIG    1       -7.116   3.373  -0.008  0.00  0.00    +0.380 HD
ENDBRANCH  17  18
ENDBRANCH  16  17
ENDBRANCH   6  16
TORSDOF 4
ENDMDL
MODEL      193
REMARK  Name = ZINC000253536167
REMARK                            x       y       z     vdW  Elec       q    Type
REMARK                         _______ _______ _______ _____ _____    ______ ____
ROOT
ATOM      1  C   LIG    1       -0.018   1.461   0.010  0.00  0.00    +0.340 C 
ATOM      2  N   LIG    1        0.002  -0.004   0.002  0.00  0.00    -0.540 N 
ATOM      3  C   LIG    1        0.006  -0.677  -1.181  0.00  0.00    +0.660 A 
ATOM      4  N   LIG    1        0.023  -1.991  -1.229  0.00  0.00    -0.590 NA
ATOM      5  C   LIG    1        0.039  -2.727  -0.109  0.00  0.00    +0.420 A 
ATOM      6  C   LIG    1        0.036  -2.093   1.127  0.00  0.00    -0.120 A 
ATOM      7  N   LIG    1        0.051  -2.829   2.309  0.00  0.00    -0.590 N 
ATOM      8  H   LIG    1        0.050  -2.374   3.165  0.00  0.00    +0.430 HD
ATOM      9  C   LIG    1        0.070  -4.178   2.258  0.00  0.00    +0.500 A 
ATOM     10  C   LIG    1        0.072  -4.853   0.929  0.00  0.00    +0.510 A 
ATOM     11  O   LIG    1        0.088  -6.065   0.858  0.00  0.00    -0.450 OA
ATOM     12  O   LIG    1        0.083  -4.833   3.282  0.00  0.00    -0.480 OA
ATOM     13  N   LIG    1        0.056  -4.105  -0.192  0.00  0.00    -0.510 N 
ATOM     14  C   LIG    1        0.059  -4.757  -1.504  0.00  0.00    +0.330 C 
ATOM     15  C   LIG    1        0.022  -0.684   1.168  0.00  0.00    +0.560 A 
ATOM     16  O   LIG    1        0.020  -0.092   2.235  0.00  0.00    -0.520 OA
ENDROOT
BRANCH   3  17
ATOM     17  N   LIG    1       -0.009   0.034  -2.354  0.00  0.00    -0.810 N 
ATOM     18  H   LIG    1       -0.007  -0.433  -3.204  0.00  0.00    +0.430 HD
ATOM     19  H   LIG    1       -0.022   1.003  -2.333  0.00  0.00    +0.420 HD
ENDBRANCH   3  17
TORSDOF 1
ENDMDL
MODEL      194
REMARK  Name = ZINC000253536167
REMARK                            x       y       z     vdW  Elec       q    Type
REMARK                         _______ _______ _______ _____ _____    ______ ____
ROOT
ATOM      1  C   LIG    1       -0.018   1.461   0.010  0.00  0.00    +0.340 C 
ATOM      2  N   LIG    1        0.002  -0.004   0.002  0.00  0.00    -0.540 N 
ATOM      3  C   LIG    1        0.006  -0.677  -1.181  0.00  0.00    +0.660 A 
ATOM      4  N   LIG    1        0.023  -1.991  -1.229  0.00  0.00    -0.590 NA
ATOM      5  C   LIG    1        0.039  -2.727  -0.109  0.00  0.00    +0.420 A 
ATOM      6  C   LIG    1        0.036  -2.093   1.127  0.00  0.00    -0.120 A 
ATOM      7  N   LIG    1        0.051  -2.829   2.309  0.00  0.00    -0.590 N 
ATOM      8  H   LIG    1        0.050  -2.374   3.165  0.00  0.00    +0.430 HD
ATOM      9  C   LIG    1        0.070  -4.178   2.258  0.00  0.00    +0.500 A 
ATOM     10  C   LIG    1        0.072  -4.853   0.929  0.00  0.00    +0.510 A 
ATOM     11  O   LIG    1        0.088  -6.065   0.858  0.00  0.00    -0.450 OA
ATOM     12  O   LIG    1        0.083  -4.833   3.282  0.00  0.00    -0.480 OA
ATOM     13  N   LIG    1        0.056  -4.105  -0.192  0.00  0.00    -0.510 N 
ATOM     14  C   LIG    1        0.059  -4.757  -1.504  0.00  0.00    +0.330 C 
ATOM     15  C   LIG    1        0.022  -0.684   1.168  0.00  0.00    +0.560 A 
ATOM     16  O   LIG    1        0.020  -0.092   2.235  0.00  0.00    -0.520 OA
ENDROOT
BRANCH   3  17
ATOM     17  N   LIG    1       -0.009   0.034  -2.354  0.00  0.00    -0.810 N 
ATOM     18  H   LIG    1       -0.007  -0.433  -3.204  0.00  0.00    +0.430 HD
ATOM     19  H   LIG    1       -0.022   1.003  -2.333  0.00  0.00    +0.420 HD
ENDBRANCH   3  17
TORSDOF 1
ENDMDL
MODEL      195
REMARK  Name = ZINC000095172634
REMARK                            x       y       z     vdW  Elec       q    Type
REMARK                         _______ _______ _______ _____ _____    ______ ____
ROOT
ATOM      1  N   LIG    1       -1.376  -0.512   0.012  0.00  0.00    -0.380 N 
ATOM      2  C   LIG    1       -1.355  -1.976   0.129  0.00  0.00    +0.250 C 
ATOM      3  C   LIG    1       -2.790  -2.498   0.256  0.00  0.00    +0.310 C 
ATOM      4  N   LIG    1       -3.572  -1.991  -0.882  0.00  0.00    -0.640 N 
ATOM      5  C   LIG    1       -3.520  -0.550  -1.173  0.00  0.00    +0.310 C 
ATOM      6  C   LIG    1       -4.317  -2.823  -1.637  0.00  0.00    +0.530 C 
ATOM      7  O   LIG    1       -4.349  -4.008  -1.382  0.00  0.00    -0.490 OA
ATOM      8  C   LIG    1       -2.050  -0.122  -1.232  0.00  0.00    +0.250 C 
ATOM      9  H   LIG    1       -1.872  -0.121   0.799  0.00  0.00    +0.420 HD
ENDROOT
BRANCH   1  11
ATOM     10  C   LIG    1       -0.019   1.526   0.010  0.00  0.00    +0.070 C 
ATOM     11  C   LIG    1        0.002  -0.004   0.002  0.00  0.00    +0.250 C 
ENDBRANCH   1  11
BRANCH   6  12
ATOM     12  C   LIG    1       -5.111  -2.281  -2.798  0.00  0.00    +0.190 C 
BRANCH  12  13
ATOM     13  C   LIG    1       -5.849  -3.409  -3.471  0.00  0.00    +0.050 A 
ATOM     14  N   LIG    1       -5.403  -4.164  -4.464  0.00  0.00    -0.380 NA
ATOM     15  N   LIG    1       -6.330  -5.011  -4.756  0.00  0.00    -0.190 NA
ATOM     16  N   LIG    1       -7.339  -4.813  -3.982  0.00  0.00    -0.190 NA
ATOM     17  N   LIG    1       -7.069  -3.839  -3.181  0.00  0.00    -0.380 NA
ENDBRANCH  12  13
ENDBRANCH   6  12
TORSDOF 3
ENDMDL
MODEL      196
REMARK  Name = ZINC000252561112
REMARK                            x       y       z     vdW  Elec       q    Type
REMARK                         _______ _______ _______ _____ _____    ______ ____
ROOT
ATOM      1  N   LIG    1        1.402  -4.080   2.324  0.00  0.00    -0.660 NA
ATOM      2  H   LIG    1        0.448  -4.410   2.328  0.00  0.00    +0.360 HD
ENDROOT
BRANCH   1   3
ATOM      3  C   LIG    1        2.160  -4.648   3.446  0.00  0.00    +0.150 C 
ATOM      4  C   LIG    1        1.667  -6.074   3.768  0.00  0.00    +0.100 C 
ATOM      5  C   LIG    1        2.889  -6.934   3.531  0.00  0.00    +0.540 C 
ATOM      6  N   LIG    1        3.906  -6.156   3.142  0.00  0.00    -0.680 N 
ATOM      7  H   LIG    1        4.787  -6.507   2.937  0.00  0.00    +0.420 HD
ATOM      8  O   LIG    1        2.938  -8.137   3.670  0.00  0.00    -0.480 OA
ATOM      9  C   LIG    1        3.610  -4.849   3.062  0.00  0.00    +0.540 C 
ATOM     10  O   LIG    1        4.380  -3.973   2.732  0.00  0.00    -0.470 OA
ENDBRANCH   1   3
BRANCH   1  11
ATOM     11  C   LIG    1        1.451  -2.612   2.345  0.00  0.00    +0.210 C 
BRANCH  11  17
ATOM     12  C   LIG    1       -0.018   1.465   0.010  0.00  0.00    +0.190 C 
ATOM     13  N   LIG    1        0.002  -0.004   0.002  0.00  0.00    -0.540 NA
ATOM     14  C   LIG    1        0.607  -0.516  -1.236  0.00  0.00    +0.140 C 
ATOM     15  C   LIG    1        0.553  -2.046  -1.230  0.00  0.00    +0.220 C 
ATOM     16  O   LIG    1        1.216  -2.536  -0.061  0.00  0.00    -0.360 OA
ATOM     17  C   LIG    1        0.652  -2.058   1.164  0.00  0.00    +0.170 C 
ATOM     18  C   LIG    1        0.707  -0.528   1.181  0.00  0.00    +0.160 C 
ENDBRANCH  11  17
ENDBRANCH   1  11
TORSDOF 3
ENDMDL
MODEL      197
REMARK  Name = ZINC000026442013
REMARK                            x       y       z     vdW  Elec       q    Type
REMARK                         _______ _______ _______ _____ _____    ______ ____
ROOT
ATOM      1  C   LIG    1       -2.810  -4.041   0.007  0.00  0.00    +0.320 C 
ATOM      2  O   LIG    1       -2.947  -4.509  -1.336  0.00  0.00    -0.340 OA
ATOM      3  C   LIG    1       -2.951  -5.932  -1.461  0.00  0.00    +0.180 C 
ATOM      4  C   LIG    1       -4.138  -6.508  -0.684  0.00  0.00    +0.170 C 
ATOM      5  C   LIG    1       -4.040  -6.070   0.781  0.00  0.00    +0.120 C 
ATOM      6  C   LIG    1       -3.991  -4.540   0.843  0.00  0.00    +0.130 C 
ENDROOT
BRANCH   1   7
ATOM      7  N   LIG    1       -2.791  -2.572   0.015  0.00  0.00    -0.670 NA
ATOM      8  H   LIG    1       -3.305  -2.208   0.803  0.00  0.00    +0.360 HD
BRANCH   7   9
ATOM      9  C   LIG    1       -1.413  -2.063   0.004  0.00  0.00    +0.170 C 
BRANCH   9  10
ATOM     10  C   LIG    1       -1.433  -0.534   0.013  0.00  0.00    +0.010 C 
BRANCH  10  12
ATOM     11  C   LIG    1       -0.019   1.526   0.010  0.00  0.00    +0.010 C 
ATOM     12  C   LIG    1        0.002  -0.004   0.002  0.00  0.00    +0.000 C 
ENDBRANCH  10  12
ENDBRANCH   9  10
ENDBRANCH   7   9
ENDBRANCH   1   7
BRANCH   5  13
ATOM     13  O   LIG    1       -5.182  -6.543   1.498  0.00  0.00    -0.560 OA
ATOM     14  H   LIG    1       -5.186  -6.302   2.435  0.00  0.00    +0.380 HD
ENDBRANCH   5  13
BRANCH   4  15
ATOM     15  O   LIG    1       -4.112  -7.934  -0.760  0.00  0.00    -0.550 OA
ATOM     16  H   LIG    1       -4.837  -8.367  -0.289  0.00  0.00    +0.390 HD
ENDBRANCH   4  15
BRANCH   6  17
ATOM     17  O   LIG    1       -3.828  -4.123   2.200  0.00  0.00    -0.560 OA
ATOM     18  H   LIG    1       -4.541  -4.409   2.788  0.00  0.00    +0.380 HD
ENDBRANCH   6  17
BRANCH   3  19
ATOM     19  C   LIG    1       -3.073  -6.315  -2.937  0.00  0.00    +0.230 C 
BRANCH  19  20
ATOM     20  O   LIG    1       -1.909  -5.877  -3.640  0.00  0.00    -0.570 OA
ATOM     21  H   LIG    1       -1.918  -6.087  -4.585  0.00  0.00    +0.380 HD
ENDBRANCH  19  20
ENDBRANCH   3  19
TORSDOF 9
ENDMDL
MODEL      198
REMARK  Name = ZINC000001498437
REMARK                            x       y       z     vdW  Elec       q    Type
REMARK                         _______ _______ _______ _____ _____    ______ ____
ROOT
ATOM      1  C   LIG    1       -0.018   1.461   0.010  0.00  0.00    +0.350 C 
ATOM      2  N   LIG    1        0.002  -0.004   0.002  0.00  0.00    -0.520 N 
ATOM      3  C   LIG    1       -1.184  -0.706   0.004  0.00  0.00    +0.360 A 
ATOM      4  C   LIG    1       -1.151  -2.072  -0.004  0.00  0.00    -0.090 A 
ATOM      5  N   LIG    1       -2.476  -2.539  -0.000  0.00  0.00    -0.490 N 
ATOM      6  C   LIG    1       -3.302  -1.428   0.010  0.00  0.00    +0.520 A 
ATOM      7  N   LIG    1       -4.604  -1.439   0.017  0.00  0.00    -0.310 NA
ATOM      8  C   LIG    1        0.094  -2.731  -0.014  0.00  0.00    +0.590 A 
ATOM      9  N   LIG    1        1.228  -2.002  -0.016  0.00  0.00    -0.650 N 
ATOM     10  H   LIG    1        2.088  -2.451  -0.022  0.00  0.00    +0.440 HD
ATOM     11  O   LIG    1        0.145  -3.949  -0.022  0.00  0.00    -0.510 OA
ATOM     12  N   LIG    1       -2.494  -0.302   0.013  0.00  0.00    -0.640 N 
ATOM     13  H   LIG    1       -2.804   0.617   0.019  0.00  0.00    +0.430 HD
ATOM     14  C   LIG    1        1.178  -0.658  -0.013  0.00  0.00    +0.710 A 
ATOM     15  O   LIG    1        2.215  -0.022  -0.014  0.00  0.00    -0.530 OA
ENDROOT
BRANCH   7  16
ATOM     16  N   LIG    1       -5.315  -0.231   0.027  0.00  0.00    -0.790 N 
ATOM     17  H   LIG    1       -4.837   0.613   0.029  0.00  0.00    +0.360 HD
ATOM     18  H   LIG    1       -6.285  -0.240   0.032  0.00  0.00    +0.420 HD
ENDBRANCH   7  16
BRANCH   5  19
ATOM     19  C   LIG    1       -2.903  -3.940  -0.006  0.00  0.00    +0.360 C 
BRANCH  19  20
ATOM     20  C   LIG    1       -3.045  -4.436   1.434  0.00  0.00    +0.170 C 
BRANCH  20  21
ATOM     21  O   LIG    1       -4.099  -3.722   2.082  0.00  0.00    -0.560 OA
ATOM     22  H   LIG    1       -4.246  -3.985   3.001  0.00  0.00    +0.380 HD
ENDBRANCH  20  21
ENDBRANCH  19  20
ENDBRANCH   5  19
TORSDOF 4
ENDMDL
MODEL      199
REMARK  Name = ZINC000039125300
REMARK                            x       y       z     vdW  Elec       q    Type
REMARK                         _______ _______ _______ _____ _____    ______ ____
ROOT
ATOM      1  C   LIG    1        0.152   1.248  -0.082  0.00  0.00    +0.360 C 
ATOM      2  N   LIG    1        0.099  -0.214  -0.098  0.00  0.00    -0.550 N 
ATOM      3  C   LIG    1        0.181  -0.879  -1.267  0.00  0.00    +0.570 A 
ATOM      4  C   LIG    1       -0.064  -2.273  -1.283  0.00  0.00    -0.080 A 
ATOM      5  C   LIG    1       -0.306  -2.943  -0.092  0.00  0.00    +0.420 A 
ATOM      6  N   LIG    1       -0.053  -2.252   1.066  0.00  0.00    -0.540 N 
ATOM      7  C   LIG    1        0.223  -2.886   2.356  0.00  0.00    +0.350 C 
ATOM      8  N   LIG    1       -0.729  -4.240  -0.145  0.00  0.00    -0.540 N 
ATOM      9  C   LIG    1       -0.463  -4.989  -1.247  0.00  0.00    +0.520 A 
ATOM     10  C   LIG    1       -0.137  -4.295  -2.522  0.00  0.00    +0.510 A 
ATOM     11  O   LIG    1        0.023  -4.920  -3.551  0.00  0.00    -0.460 OA
ATOM     12  O   LIG    1       -0.525  -6.198  -1.194  0.00  0.00    -0.430 OA
ATOM     13  C   LIG    1       -1.509  -4.894   0.907  0.00  0.00    +0.340 C 
ATOM     14  N   LIG    1       -0.012  -2.952  -2.500  0.00  0.00    -0.590 N 
ATOM     15  H   LIG    1        0.112  -2.461  -3.327  0.00  0.00    +0.430 HD
ATOM     16  O   LIG    1        0.442  -0.286  -2.297  0.00  0.00    -0.490 OA
ATOM     17  C   LIG    1       -0.015  -0.898   1.050  0.00  0.00    +0.700 A 
ATOM     18  O   LIG    1       -0.087  -0.299   2.104  0.00  0.00    -0.510 OA
ENDROOT
TORSDOF 0
ENDMDL
MODEL      200
REMARK  Name = ZINC000067172843
REMARK                            x       y       z     vdW  Elec       q    Type
REMARK                         _______ _______ _______ _____ _____    ______ ____
ROOT
ATOM      1  O   LIG    1        0.074  -0.001  -0.007  0.00  0.00    -0.520 OA
ATOM      2  C   LIG    1       -0.014   1.211   0.009  0.00  0.00    +0.610 C 
ATOM      3  N   LIG    1       -1.227   1.798   0.060  0.00  0.00    -0.590 N 
ATOM      4  C   LIG    1       -1.361   3.261  -0.011  0.00  0.00    +0.290 C 
ATOM      5  C   LIG    1       -2.233   3.727   1.160  0.00  0.00    +0.160 C 
ATOM      6  N   LIG    1       -3.501   2.985   1.148  0.00  0.00    -0.690 NA
ATOM      7  H   LIG    1       -4.141   3.353   1.835  0.00  0.00    +0.350 HD
ATOM      8  C   LIG    1       -3.279   1.548   1.352  0.00  0.00    +0.170 C 
ATOM      9  C   LIG    1       -2.451   0.992   0.182  0.00  0.00    +0.300 C 
ENDROOT
BRANCH   2  10
ATOM     10  C   LIG    1        1.208   2.042  -0.034  0.00  0.00    +0.150 A 
ATOM     11  N   LIG    1        2.445   1.603   0.034  0.00  0.00    -0.250 NA
ATOM     12  N   LIG    1        3.246   2.610  -0.035  0.00  0.00    -0.300 N 
ATOM     13  C   LIG    1        2.512   3.732  -0.150  0.00  0.00    +0.430 A 
ATOM     14  N   LIG    1        1.251   3.382  -0.155  0.00  0.00    -0.480 NA
BRANCH  12  15
ATOM     15  C   LIG    1        4.709   2.545   0.006  0.00  0.00    +0.350 C 
BRANCH  15  16
ATOM     16  C   LIG    1        5.152   1.801   1.267  0.00  0.00    +0.200 C 
BRANCH  16  17
ATOM     17  O   LIG    1        6.579   1.738   1.306  0.00  0.00    -0.570 OA
ATOM     18  H   LIG    1        6.931   1.278   2.081  0.00  0.00    +0.390 HD
ENDBRANCH  16  17
ENDBRANCH  15  16
ENDBRANCH  12  15
ENDBRANCH   2  10
TORSDOF 4
ENDMDL
MODEL      201
REMARK  Name = ZINC000104145242
REMARK                            x       y       z     vdW  Elec       q    Type
REMARK                         _______ _______ _______ _____ _____    ______ ____
ROOT
ATOM      1  C   LIG    1       -1.503  -0.578  -0.018  0.00  0.00    +0.270 C 
ATOM      2  C   LIG    1       -1.589  -2.068  -0.211  0.00  0.00    +0.520 C 
ATOM      3  N   LIG    1       -1.949  -2.907   0.761  0.00  0.00    -0.720 N 
ATOM      4  H   LIG    1       -1.918  -3.858   0.570  0.00  0.00    +0.400 HD
ATOM      5  C   LIG    1       -2.386  -2.497   2.088  0.00  0.00    +0.260 C 
ATOM      6  C   LIG    1       -1.884  -1.089   2.413  0.00  0.00    +0.280 C 
ATOM      7  O   LIG    1       -1.319  -2.526  -1.301  0.00  0.00    -0.540 OA
ATOM      8  N   LIG    1       -2.155  -0.222   1.251  0.00  0.00    -0.610 N 
ATOM      9  C   LIG    1       -2.967   0.850   1.349  0.00  0.00    +0.530 C 
ATOM     10  O   LIG    1       -3.109   1.592   0.401  0.00  0.00    -0.500 OA
ENDROOT
BRANCH   9  11
ATOM     11  C   LIG    1       -3.699   1.125   2.638  0.00  0.00    +0.120 C 
ATOM     12  C   LIG    1       -2.718   1.680   3.674  0.00  0.00    +0.220 C 
ATOM     13  N   LIG    1       -3.451   2.019   4.902  0.00  0.00    -0.670 NA
ATOM     14  H   LIG    1       -3.835   1.192   5.334  0.00  0.00    +0.340 HD
ATOM     15  C   LIG    1       -4.504   3.006   4.625  0.00  0.00    +0.200 C 
ATOM     16  C   LIG    1       -5.467   2.438   3.580  0.00  0.00    +0.180 C 
ATOM     17  O   LIG    1       -4.733   2.085   2.404  0.00  0.00    -0.350 OA
ENDBRANCH   9  11
BRANCH   1  19
ATOM     18  C   LIG    1        0.051   1.375   0.100  0.00  0.00    +0.030 C 
ATOM     19  C   LIG    1       -0.035  -0.151   0.023  0.00  0.00    +0.040 C 
ENDBRANCH   1  19
TORSDOF 2
ENDMDL
MODEL      202
REMARK  Name = ZINC000104145234
REMARK                            x       y       z     vdW  Elec       q    Type
REMARK                         _______ _______ _______ _____ _____    ______ ____
ROOT
ATOM      1  C   LIG    1       -1.462  -0.433  -0.057  0.00  0.00    +0.250 C 
ATOM      2  C   LIG    1       -1.597  -1.922   0.113  0.00  0.00    +0.520 C 
ATOM      3  N   LIG    1       -2.372  -2.675  -0.669  0.00  0.00    -0.720 N 
ATOM      4  H   LIG    1       -2.452  -3.617  -0.452  0.00  0.00    +0.400 HD
ATOM      5  C   LIG    1       -3.106  -2.182  -1.827  0.00  0.00    +0.260 C 
ATOM      6  C   LIG    1       -3.324  -0.671  -1.728  0.00  0.00    +0.280 C 
ATOM      7  O   LIG    1       -0.973  -2.462   1.001  0.00  0.00    -0.530 OA
ATOM      8  N   LIG    1       -2.046  -0.043  -1.349  0.00  0.00    -0.610 N 
ATOM      9  C   LIG    1       -1.436   0.848  -2.155  0.00  0.00    +0.530 C 
ATOM     10  O   LIG    1       -0.351   1.297  -1.851  0.00  0.00    -0.490 OA
ENDROOT
BRANCH   9  11
ATOM     11  C   LIG    1       -2.102   1.287  -3.434  0.00  0.00    +0.170 C 
ATOM     12  C   LIG    1       -2.077   0.136  -4.443  0.00  0.00    +0.160 C 
ATOM     13  N   LIG    1       -2.658   0.594  -5.714  0.00  0.00    -0.680 NA
ATOM     14  H   LIG    1       -2.691  -0.157  -6.388  0.00  0.00    +0.350 HD
ATOM     15  C   LIG    1       -1.912   1.745  -6.243  0.00  0.00    +0.150 C 
ATOM     16  C   LIG    1       -1.938   2.879  -5.215  0.00  0.00    +0.230 C 
ATOM     17  O   LIG    1       -1.399   2.407  -3.977  0.00  0.00    -0.350 OA
ENDBRANCH   9  11
BRANCH   1  19
ATOM     18  C   LIG    1        0.763  -0.789  -1.136  0.00  0.00    +0.010 C 
ATOM     19  C   LIG    1        0.018  -0.046  -0.025  0.00  0.00    +0.070 C 
ENDBRANCH   1  19
TORSDOF 2
ENDMDL
MODEL      203
REMARK  Name = ZINC000104145239
REMARK                            x       y       z     vdW  Elec       q    Type
REMARK                         _______ _______ _______ _____ _____    ______ ____
ROOT
ATOM      1  C   LIG    1       -1.375  -0.575  -0.151  0.00  0.00    +0.250 C 
ATOM      2  C   LIG    1       -1.304  -2.076  -0.089  0.00  0.00    +0.520 C 
ATOM      3  N   LIG    1       -1.927  -2.870  -0.961  0.00  0.00    -0.720 N 
ATOM      4  H   LIG    1       -1.882  -3.828  -0.811  0.00  0.00    +0.400 HD
ATOM      5  C   LIG    1       -2.670  -2.401  -2.122  0.00  0.00    +0.260 C 
ATOM      6  C   LIG    1       -3.105  -0.946  -1.936  0.00  0.00    +0.280 C 
ATOM      7  O   LIG    1       -0.650  -2.588   0.795  0.00  0.00    -0.530 OA
ATOM      8  N   LIG    1       -1.949  -0.176  -1.445  0.00  0.00    -0.610 N 
ATOM      9  C   LIG    1       -1.436   0.848  -2.155  0.00  0.00    +0.530 C 
ATOM     10  O   LIG    1       -0.438   1.417  -1.764  0.00  0.00    -0.490 OA
ENDROOT
BRANCH   9  11
ATOM     11  C   LIG    1       -2.102   1.287  -3.434  0.00  0.00    +0.110 C 
ATOM     12  C   LIG    1       -3.459   1.917  -3.113  0.00  0.00    +0.210 C 
ATOM     13  N   LIG    1       -4.069   2.412  -4.355  0.00  0.00    -0.680 NA
ATOM     14  H   LIG    1       -4.284   1.651  -4.981  0.00  0.00    +0.340 HD
ATOM     15  C   LIG    1       -3.196   3.400  -5.007  0.00  0.00    +0.200 C 
ATOM     16  C   LIG    1       -1.841   2.754  -5.309  0.00  0.00    +0.180 C 
ATOM     17  O   LIG    1       -1.277   2.250  -4.095  0.00  0.00    -0.350 OA
ENDBRANCH   9  11
BRANCH   1  19
ATOM     18  C   LIG    1        0.924  -0.536  -1.127  0.00  0.00    +0.010 C 
ATOM     19  C   LIG    1        0.031   0.011  -0.012  0.00  0.00    +0.070 C 
ENDBRANCH   1  19
TORSDOF 2
ENDMDL
MODEL      204
REMARK  Name = ZINC000065431787
REMARK                            x       y       z     vdW  Elec       q    Type
REMARK                         _______ _______ _______ _____ _____    ______ ____
ROOT
ATOM      1  O   LIG    1        0.045  -0.299  -0.153  0.00  0.00    -0.540 OA
ATOM      2  C   LIG    1        0.001   0.904  -0.009  0.00  0.00    +0.530 C 
ATOM      3  N   LIG    1       -1.194   1.501   0.087  0.00  0.00    -0.720 N 
ATOM      4  H   LIG    1       -1.989   0.946   0.078  0.00  0.00    +0.400 HD
ATOM      5  C   LIG    1       -1.359   2.947   0.203  0.00  0.00    +0.270 C 
ATOM      6  C   LIG    1       -0.042   3.603   0.626  0.00  0.00    +0.190 C 
ATOM      7  N   LIG    1        1.034   3.092  -0.231  0.00  0.00    -0.540 NA
ATOM      8  C   LIG    1        2.268   3.875  -0.106  0.00  0.00    +0.200 C 
ATOM      9  C   LIG    1        3.300   3.337  -1.102  0.00  0.00    +0.170 C 
ATOM     10  N   LIG    1        3.542   1.911  -0.845  0.00  0.00    -0.520 NA
ATOM     11  C   LIG    1        2.299   1.131  -0.951  0.00  0.00    +0.220 C 
ATOM     12  C   LIG    1        1.286   1.673   0.064  0.00  0.00    +0.160 C 
ENDROOT
BRANCH  10  13
ATOM     13  C   LIG    1        4.575   1.381  -1.745  0.00  0.00    +0.160 C 
BRANCH  13  14
ATOM     14  C   LIG    1        4.715  -0.127  -1.528  0.00  0.00    +0.180 C 
BRANCH  14  15
ATOM     15  O   LIG    1        5.156  -0.377  -0.192  0.00  0.00    -0.530 OA
ATOM     16  H   LIG    1        5.267  -1.314   0.016  0.00  0.00    +0.370 HD
ENDBRANCH  14  15
ENDBRANCH  13  14
BRANCH  13  17
ATOM     17  C   LIG    1        5.910   2.066  -1.448  0.00  0.00    +0.170 C 
BRANCH  17  18
ATOM     18  O   LIG    1        6.321   1.752  -0.116  0.00  0.00    -0.530 OA
ATOM     19  H   LIG    1        7.162   2.154   0.142  0.00  0.00    +0.360 HD
ENDBRANCH  17  18
ENDBRANCH  13  17
ENDBRANCH  10  13
TORSDOF 5
ENDMDL
MODEL      205
REMARK  Name = ZINC000019203136
REMARK                            x       y       z     vdW  Elec       q    Type
REMARK                         _______ _______ _______ _____ _____    ______ ____
ROOT
ATOM      1  N   LIG    1       -2.953   1.936   2.770  0.00  0.00    -0.530 NA
ATOM      2  C   LIG    1       -2.093   1.746   3.946  0.00  0.00    +0.200 C 
ATOM      3  C   LIG    1       -2.805   2.289   5.187  0.00  0.00    +0.270 C 
ATOM      4  N   LIG    1       -4.078   1.580   5.371  0.00  0.00    -0.390 N 
ATOM      5  C   LIG    1       -4.936   1.799   4.199  0.00  0.00    +0.270 C 
ATOM      6  H   LIG    1       -3.901   0.592   5.478  0.00  0.00    +0.430 HD
ATOM      7  C   LIG    1       -4.242   1.252   2.949  0.00  0.00    +0.200 C 
ENDROOT
BRANCH   1   8
ATOM      8  C   LIG    1       -2.280   1.478   1.546  0.00  0.00    +0.240 C 
BRANCH   8   9
ATOM      9  C   LIG    1       -0.848   2.016   1.520  0.00  0.00    -0.470 C 
BRANCH   9  11
ATOM     10  O   LIG    1        0.002  -0.004   0.002  0.00  0.00    -1.060 OA
ATOM     11  S   LIG    1       -0.018   1.450   0.010  0.00  0.00    +2.640 S 
ATOM     12  O   LIG    1       -0.752   1.947  -1.143  0.00  0.00    -1.060 OA
ATOM     13  O   LIG    1        1.341   1.970  -0.000  0.00  0.00    -1.060 OA
ENDBRANCH   9  11
ENDBRANCH   8   9
ENDBRANCH   1   8
BRANCH   4  14
ATOM     14  C   LIG    1       -4.753   2.089   6.572  0.00  0.00    +0.280 C 
BRANCH  14  15
ATOM     15  C   LIG    1       -6.017   1.267   6.834  0.00  0.00    +0.210 C 
BRANCH  15  16
ATOM     16  O   LIG    1       -5.654  -0.079   7.146  0.00  0.00    -0.580 OA
ATOM     17  H   LIG    1       -6.407  -0.659   7.324  0.00  0.00    +0.410 HD
ENDBRANCH  15  16
ENDBRANCH  14  15
ENDBRANCH   4  14
TORSDOF 6
ENDMDL
MODEL      206
REMARK  Name = ZINC000019432529
REMARK                            x       y       z     vdW  Elec       q    Type
REMARK                         _______ _______ _______ _____ _____    ______ ____
ROOT
ATOM      1  O   LIG    1        0.002  -0.004   0.002  0.00  0.00    -0.530 OA
ATOM      2  C   LIG    1       -0.014   1.209   0.009  0.00  0.00    +0.510 C 
ATOM      3  N   LIG    1       -1.191   1.867   0.018  0.00  0.00    -0.610 N 
ATOM      4  C   LIG    1       -1.233   3.337   0.020  0.00  0.00    +0.280 C 
ATOM      5  C   LIG    1       -2.150   3.796   1.159  0.00  0.00    +0.170 C 
ATOM      6  N   LIG    1       -3.456   3.136   1.028  0.00  0.00    -0.690 NA
ATOM      7  H   LIG    1       -4.117   3.508   1.694  0.00  0.00    +0.350 HD
ATOM      8  C   LIG    1       -3.333   1.679   1.165  0.00  0.00    +0.170 C 
ATOM      9  C   LIG    1       -2.466   1.133   0.020  0.00  0.00    +0.300 C 
ENDROOT
BRANCH   2  10
ATOM     10  C   LIG    1        1.280   1.980   0.001  0.00  0.00    +0.330 C 
BRANCH  10  11
ATOM     11  N   LIG    1        2.407   1.043  -0.015  0.00  0.00    -0.560 N 
ATOM     12  C   LIG    1        2.971   0.569   1.103  0.00  0.00    +0.530 C 
ATOM     13  C   LIG    1        4.099  -0.368   0.732  0.00  0.00    +0.090 C 
ATOM     14  C   LIG    1        4.090  -0.354  -0.810  0.00  0.00    +0.090 C 
ATOM     15  O   LIG    1        2.631   0.847   2.233  0.00  0.00    -0.480 OA
ATOM     16  C   LIG    1        2.953   0.586  -1.149  0.00  0.00    +0.530 C 
ATOM     17  O   LIG    1        2.598   0.883  -2.269  0.00  0.00    -0.480 OA
ENDBRANCH  10  11
ENDBRANCH   2  10
TORSDOF 2
ENDMDL
MODEL      207
REMARK  Name = ZINC000019685371
REMARK                            x       y       z     vdW  Elec       q    Type
REMARK                         _______ _______ _______ _____ _____    ______ ____
ROOT
ATOM      1  O   LIG    1       -0.006   0.018   0.261  0.00  0.00    -0.520 OA
ATOM      2  C   LIG    1       -0.015   1.211   0.043  0.00  0.00    +0.520 C 
ATOM      3  N   LIG    1       -1.184   1.849  -0.168  0.00  0.00    -0.620 N 
ATOM      4  C   LIG    1       -1.217   3.293  -0.441  0.00  0.00    +0.280 C 
ATOM      5  C   LIG    1       -2.223   3.946   0.513  0.00  0.00    +0.170 C 
ATOM      6  N   LIG    1       -3.518   3.262   0.398  0.00  0.00    -0.690 NA
ATOM      7  H   LIG    1       -4.230   3.744   0.926  0.00  0.00    +0.350 HD
ATOM      8  C   LIG    1       -3.417   1.856   0.811  0.00  0.00    +0.170 C 
ATOM      9  C   LIG    1       -2.459   1.117  -0.138  0.00  0.00    +0.300 C 
ENDROOT
BRANCH   2  10
ATOM     10  C   LIG    1        1.280   1.980   0.001  0.00  0.00    +0.210 C 
BRANCH  10  11
ATOM     11  N   LIG    1        2.408   1.044   0.105  0.00  0.00    -0.520 NA
ATOM     12  C   LIG    1        3.674   1.765   0.306  0.00  0.00    +0.160 C 
ATOM     13  C   LIG    1        4.811   0.753   0.470  0.00  0.00    +0.220 C 
ATOM     14  O   LIG    1        4.850  -0.101  -0.676  0.00  0.00    -0.390 OA
ATOM     15  C   LIG    1        3.634  -0.819  -0.902  0.00  0.00    +0.230 C 
ATOM     16  C   LIG    1        2.485   0.177  -1.079  0.00  0.00    +0.150 C 
ENDBRANCH  10  11
ENDBRANCH   2  10
TORSDOF 2
ENDMDL
MODEL      208
REMARK  Name = ZINC000019757708
REMARK                            x       y       z     vdW  Elec       q    Type
REMARK                         _______ _______ _______ _____ _____    ______ ____
ROOT
ATOM      1  N   LIG    1        1.253  -2.850   1.269  0.00  0.00    -0.510 NA
ATOM      2  C   LIG    1        1.458  -4.158   0.635  0.00  0.00    +0.160 C 
ATOM      3  C   LIG    1        2.805  -4.735   1.077  0.00  0.00    +0.070 C 
ATOM      4  C   LIG    1        2.817  -4.878   2.602  0.00  0.00    -0.010 C 
ATOM      5  C   LIG    1        2.553  -3.510   3.237  0.00  0.00    +0.050 C 
ATOM      6  C   LIG    1        1.214  -2.969   2.732  0.00  0.00    +0.200 C 
ENDROOT
BRANCH   1  11
ATOM      7  C   LIG    1       -1.127  -2.796  -2.745  0.00  0.00    +0.320 C 
ATOM      8  N   LIG    1       -0.908  -2.740  -1.297  0.00  0.00    -0.580 N 
ATOM      9  C   LIG    1       -1.696  -3.374  -0.420  0.00  0.00    +0.530 C 
ATOM     10  C   LIG    1       -1.193  -3.110   0.982  0.00  0.00    +0.050 C 
ATOM     11  C   LIG    1        0.035  -2.204   0.761  0.00  0.00    +0.200 C 
ATOM     12  O   LIG    1       -2.659  -4.053  -0.704  0.00  0.00    -0.480 OA
ATOM     13  C   LIG    1        0.101  -2.056  -0.744  0.00  0.00    +0.530 C 
ATOM     14  O   LIG    1        0.930  -1.413  -1.351  0.00  0.00    -0.460 OA
ENDBRANCH   1  11
BRANCH   4  15
ATOM     15  C   LIG    1        4.163  -5.390   3.048  0.00  0.00    +0.520 C 
ATOM     16  O   LIG    1        5.027  -5.618   2.229  0.00  0.00    -0.540 OA
ATOM     17  N   LIG    1        4.405  -5.594   4.358  0.00  0.00    -0.860 N 
ATOM     18  H   LIG    1        5.271  -5.923   4.646  0.00  0.00    +0.400 HD
ATOM     19  H   LIG    1        3.714  -5.411   5.014  0.00  0.00    +0.400 HD
ENDBRANCH   4  15
TORSDOF 2
ENDMDL
MODEL      209
REMARK  Name = ZINC000005126685
REMARK                            x       y       z     vdW  Elec       q    Type
REMARK                         _______ _______ _______ _____ _____    ______ ____
ROOT
ATOM      1  C   LIG    1       -0.018   1.461   0.010  0.00  0.00    +0.350 C 
ATOM      2  N   LIG    1        0.002  -0.004   0.002  0.00  0.00    -0.560 N 
ATOM      3  C   LIG    1       -1.165  -0.684   0.004  0.00  0.00    +0.570 A 
ATOM      4  C   LIG    1       -1.116  -2.151  -0.004  0.00  0.00    -0.290 A 
ATOM      5  C   LIG    1        0.145  -2.783  -0.014  0.00  0.00    +0.460 A 
ATOM      6  N   LIG    1        1.280  -1.987  -0.015  0.00  0.00    -0.530 N 
ATOM      7  C   LIG    1        2.605  -2.614  -0.025  0.00  0.00    +0.350 C 
ATOM      8  N   LIG    1        0.237  -4.099  -0.021  0.00  0.00    -0.520 NA
ATOM      9  C   LIG    1       -0.842  -4.875  -0.019  0.00  0.00    +0.320 A 
ATOM     10  N   LIG    1       -1.019  -6.239  -0.025  0.00  0.00    -0.580 N 
ATOM     11  H   LIG    1       -0.317  -6.909  -0.032  0.00  0.00    +0.440 HD
ATOM     12  C   LIG    1       -2.361  -6.479  -0.019  0.00  0.00    +0.510 A 
ATOM     13  N   LIG    1       -3.014  -5.355  -0.010  0.00  0.00    -0.460 NA
ATOM     14  C   LIG    1       -2.132  -4.321  -0.010  0.00  0.00    -0.060 A 
ATOM     15  C   LIG    1       -2.280  -2.926  -0.002  0.00  0.00    +0.330 A 
ATOM     16  O   LIG    1       -2.230  -0.095   0.012  0.00  0.00    -0.470 OA
ATOM     17  C   LIG    1        1.180  -0.648  -0.013  0.00  0.00    +0.710 A 
ATOM     18  O   LIG    1        2.201   0.011  -0.014  0.00  0.00    -0.530 OA
ENDROOT
BRANCH  15  19
ATOM     19  O   LIG    1       -3.506  -2.350   0.007  0.00  0.00    -0.460 OA
ATOM     20  H   LIG    1       -3.857  -2.187   0.894  0.00  0.00    +0.410 HD
ENDBRANCH  15  19
TORSDOF 1
ENDMDL
MODEL      210
REMARK  Name = ZINC000002457182
REMARK                            x       y       z     vdW  Elec       q    Type
REMARK                         _______ _______ _______ _____ _____    ______ ____
ROOT
ATOM      1  C   LIG    1       -3.794   1.676   0.029  0.00  0.00    +0.520 C 
ATOM      2  N   LIG    1       -4.952   0.987   0.031  0.00  0.00    -0.640 N 
ATOM      3  C   LIG    1       -4.956  -0.484   0.029  0.00  0.00    +0.320 C 
ATOM      4  C   LIG    1       -5.881  -0.969   1.151  0.00  0.00    +0.250 C 
ATOM      5  N   LIG    1       -7.207  -0.359   0.989  0.00  0.00    -0.380 N 
ATOM      6  C   LIG    1       -7.111   1.097   1.157  0.00  0.00    +0.250 C 
ATOM      7  H   LIG    1       -7.561  -0.567   0.068  0.00  0.00    +0.430 HD
ATOM      8  C   LIG    1       -6.248   1.684   0.041  0.00  0.00    +0.310 C 
ATOM      9  O   LIG    1       -3.811   2.889   0.036  0.00  0.00    -0.510 OA
ENDROOT
BRANCH   1  10
ATOM     10  C   LIG    1       -2.479   0.941   0.019  0.00  0.00    +0.090 C 
BRANCH  10  11
ATOM     11  C   LIG    1       -1.330   1.951   0.019  0.00  0.00    -0.030 C 
BRANCH  11  13
ATOM     12  O   LIG    1        0.002  -0.004   0.002  0.00  0.00    -0.700 OA
ATOM     13  C   LIG    1       -0.015   1.215   0.009  0.00  0.00    +0.490 C 
ATOM     14  O   LIG    1        1.033   1.839   0.002  0.00  0.00    -0.690 OA
ENDBRANCH  11  13
ENDBRANCH  10  11
ENDBRANCH   1  10
BRANCH   5  15
ATOM     15  C   LIG    1       -8.122  -0.905   2.000  0.00  0.00    +0.280 C 
BRANCH  15  16
ATOM     16  C   LIG    1       -9.533  -0.366   1.755  0.00  0.00    +0.210 C 
BRANCH  16  17
ATOM     17  O   LIG    1      -10.018  -0.853   0.502  0.00  0.00    -0.580 OA
ATOM     18  H   LIG    1      -10.910  -0.550   0.282  0.00  0.00    +0.410 HD
ENDBRANCH  16  17
ENDBRANCH  15  16
ENDBRANCH   5  15
TORSDOF 6
ENDMDL
MODEL      211
REMARK  Name = ZINC000020268547
REMARK                            x       y       z     vdW  Elec       q    Type
REMARK                         _______ _______ _______ _____ _____    ______ ____
ROOT
ATOM      1  O   LIG    1        0.176   0.011   0.009  0.00  0.00    -0.530 OA
ATOM      2  C   LIG    1       -0.014   1.209   0.009  0.00  0.00    +0.530 C 
ATOM      3  N   LIG    1       -1.273   1.690   0.027  0.00  0.00    -0.610 N 
ATOM      4  C   LIG    1       -1.530   3.134  -0.086  0.00  0.00    +0.270 C 
ATOM      5  C   LIG    1       -2.458   3.554   1.060  0.00  0.00    +0.170 C 
ATOM      6  N   LIG    1       -3.658   2.707   1.050  0.00  0.00    -0.690 NA
ATOM      7  H   LIG    1       -4.338   3.036   1.717  0.00  0.00    +0.350 HD
ATOM      8  C   LIG    1       -3.318   1.299   1.295  0.00  0.00    +0.170 C 
ATOM      9  C   LIG    1       -2.426   0.786   0.153  0.00  0.00    +0.290 C 
ENDROOT
BRANCH   2  10
ATOM     10  C   LIG    1        1.156   2.158  -0.019  0.00  0.00    +0.010 C 
ATOM     11  C   LIG    1        2.398   1.447  -0.583  0.00  0.00    +0.100 C 
ATOM     12  C   LIG    1        3.640   2.311  -0.287  0.00  0.00    -0.300 C 
ATOM     13  S   LIG    1        3.220   3.242   1.231  0.00  0.00    +2.390 S 
ATOM     14  O   LIG    1        3.173   4.631   0.933  0.00  0.00    -0.930 OA
ATOM     15  O   LIG    1        4.024   2.776   2.306  0.00  0.00    -0.930 OA
ATOM     16  C   LIG    1        1.514   2.601   1.423  0.00  0.00    -0.300 C 
ENDBRANCH   2  10
TORSDOF 1
ENDMDL
MODEL      212
REMARK  Name = ZINC000020268549
REMARK                            x       y       z     vdW  Elec       q    Type
REMARK                         _______ _______ _______ _____ _____    ______ ____
ROOT
ATOM      1  O   LIG    1        0.166   0.009   0.009  0.00  0.00    -0.530 OA
ATOM      2  C   LIG    1       -0.014   1.209   0.009  0.00  0.00    +0.530 C 
ATOM      3  N   LIG    1       -1.268   1.702   0.025  0.00  0.00    -0.610 N 
ATOM      4  C   LIG    1       -1.512   3.148  -0.087  0.00  0.00    +0.270 C 
ATOM      5  C   LIG    1       -2.438   3.575   1.057  0.00  0.00    +0.170 C 
ATOM      6  N   LIG    1       -3.646   2.739   1.044  0.00  0.00    -0.690 NA
ATOM      7  H   LIG    1       -4.325   3.073   1.710  0.00  0.00    +0.350 HD
ATOM      8  C   LIG    1       -3.320   1.327   1.288  0.00  0.00    +0.170 C 
ATOM      9  C   LIG    1       -2.430   0.808   0.148  0.00  0.00    +0.290 C 
ENDROOT
BRANCH   2  10
ATOM     10  C   LIG    1        1.164   2.147  -0.016  0.00  0.00    +0.010 C 
ATOM     11  C   LIG    1        1.527   2.560   1.421  0.00  0.00    +0.090 C 
ATOM     12  C   LIG    1        2.920   3.238   1.350  0.00  0.00    -0.310 C 
ATOM     13  S   LIG    1        3.837   2.145   0.200  0.00  0.00    +2.390 S 
ATOM     14  O   LIG    1        4.493   1.126   0.942  0.00  0.00    -0.930 OA
ATOM     15  O   LIG    1        4.576   2.940  -0.717  0.00  0.00    -0.930 OA
ATOM     16  C   LIG    1        2.379   1.437  -0.645  0.00  0.00    -0.290 C 
ENDBRANCH   2  10
TORSDOF 1
ENDMDL
MODEL      213
REMARK  Name = ZINC000000529697
REMARK                            x       y       z     vdW  Elec       q    Type
REMARK                         _______ _______ _______ _____ _____    ______ ____
ROOT
ATOM      1  N   LIG    1       -1.945  -0.201  -1.380  0.00  0.00    -0.410 N 
ATOM      2  C   LIG    1       -2.806   0.806  -1.627  0.00  0.00    +0.490 A 
ATOM      3  N   LIG    1       -3.117   0.819  -2.897  0.00  0.00    -0.490 NA
ATOM      4  C   LIG    1       -2.480  -0.170  -3.530  0.00  0.00    +0.310 A 
ATOM      5  N   LIG    1       -2.445  -0.605  -4.845  0.00  0.00    -0.510 N 
ATOM      6  C   LIG    1       -3.243   0.083  -5.863  0.00  0.00    +0.350 C 
ATOM      7  C   LIG    1       -1.686  -1.663  -5.186  0.00  0.00    +0.710 A 
ATOM      8  O   LIG    1       -1.672  -2.033  -6.345  0.00  0.00    -0.540 OA
ATOM      9  N   LIG    1       -0.942  -2.319  -4.280  0.00  0.00    -0.550 N 
ATOM     10  C   LIG    1       -0.130  -3.463  -4.705  0.00  0.00    +0.350 C 
ATOM     11  C   LIG    1       -0.930  -1.941  -2.985  0.00  0.00    +0.590 A 
ATOM     12  O   LIG    1       -0.252  -2.544  -2.173  0.00  0.00    -0.500 OA
ATOM     13  C   LIG    1       -1.715  -0.839  -2.582  0.00  0.00    -0.130 A 
ENDROOT
BRANCH   1  14
ATOM     14  C   LIG    1       -1.360  -0.549  -0.083  0.00  0.00    +0.480 C 
BRANCH  14  16
ATOM     15  C   LIG    1       -0.018   1.465   0.010  0.00  0.00    +0.200 C 
ATOM     16  N   LIG    1        0.002  -0.004   0.002  0.00  0.00    -0.550 NA
ATOM     17  C   LIG    1        0.706  -0.527   1.180  0.00  0.00    +0.220 C 
ENDBRANCH  14  16
ENDBRANCH   1  14
TORSDOF 2
ENDMDL
