MODEL        1
REMARK  Name = ZINC000068604264
REMARK                            x       y       z     vdW  Elec       q    Type
REMARK                         _______ _______ _______ _____ _____    ______ ____
ROOT
ATOM      1  O   LIG    1        0.002  -0.004   0.002  0.00  0.00    -0.510 OA
ATOM      2  C   LIG    1       -0.014   1.209   0.009  0.00  0.00    +0.510 C 
ATOM      3  C   LIG    1       -1.322   1.957   0.032  0.00  0.00    +0.220 C 
ATOM      4  N   LIG    1       -2.258   1.280   0.940  0.00  0.00    -0.680 NA
ATOM      5  H   LIG    1       -3.180   1.227   0.534  0.00  0.00    +0.370 HD
ATOM      6  C   LIG    1       -2.296   1.947   2.248  0.00  0.00    +0.200 C 
ATOM      7  C   LIG    1       -1.707   1.018   3.311  0.00  0.00    +0.040 C 
ATOM      8  C   LIG    1       -1.209   1.848   4.495  0.00  0.00    +0.260 C 
ATOM      9  N   LIG    1       -0.224   1.071   5.259  0.00  0.00    -0.500 N 
ATOM     10  C   LIG    1        1.086   1.733   5.184  0.00  0.00    +0.290 C 
ATOM     11  C   LIG    1        1.946   1.031   4.166  0.00  0.00    +0.490 C 
ATOM     12  N   LIG    1        2.586   1.775   3.218  0.00  0.00    -0.710 N 
ATOM     13  H   LIG    1        2.505   2.741   3.180  0.00  0.00    +0.410 HD
ATOM     14  C   LIG    1        3.411   1.016   2.253  0.00  0.00    +0.280 C 
ATOM     15  C   LIG    1        3.411   1.760   0.916  0.00  0.00    +0.030 C 
ATOM     16  C   LIG    1        2.393   1.115  -0.026  0.00  0.00    +0.270 C 
ATOM     17  O   LIG    1        2.068  -0.176   4.189  0.00  0.00    -0.500 OA
ATOM     18  H   LIG    1       -0.154   0.143   4.871  0.00  0.00    +0.440 HD
ATOM     19  H   LIG    1       -0.516   1.012   6.223  0.00  0.00    +0.440 HD
ATOM     20  N   LIG    1        1.151   1.918   0.001  0.00  0.00    -0.740 N 
ATOM     21  H   LIG    1        1.164   2.888   0.009  0.00  0.00    +0.410 HD
ENDROOT
TORSDOF 0
ENDMDL
MODEL        2
REMARK  Name = ZINC000163791518
REMARK                            x       y       z     vdW  Elec       q    Type
REMARK                         _______ _______ _______ _____ _____    ______ ____
ROOT
ATOM      1  N   LIG    1       -1.117   4.220   1.248  0.00  0.00    -0.490 N 
ATOM      2  H   LIG    1       -0.697   3.781   2.054  0.00  0.00    +0.440 HD
ATOM      3  H   LIG    1       -2.122   4.186   1.334  0.00  0.00    +0.440 HD
ENDROOT
BRANCH   1   7
ATOM      4  O   LIG    1        0.002  -0.004   0.002  0.00  0.00    -0.430 OA
ATOM      5  C   LIG    1       -0.014   1.208   0.009  0.00  0.00    +0.520 C 
ATOM      6  C   LIG    1       -1.260   2.068   0.032  0.00  0.00    +0.150 C 
ATOM      7  C   LIG    1       -0.705   3.507   0.032  0.00  0.00    +0.190 C 
ATOM      8  C   LIG    1        0.795   3.309   0.009  0.00  0.00    +0.520 C 
ATOM      9  O   LIG    1        1.620   4.197   0.002  0.00  0.00    -0.420 OA
ATOM     10  N   LIG    1        1.066   1.998   0.003  0.00  0.00    -0.670 N 
ATOM     11  H   LIG    1        1.971   1.650  -0.012  0.00  0.00    +0.440 HD
ENDBRANCH   1   7
BRANCH   1  12
ATOM     12  C   LIG    1       -0.679   5.619   1.168  0.00  0.00    +0.270 C 
BRANCH  12  13
ATOM     13  C   LIG    1       -1.108   6.362   2.435  0.00  0.00    +0.350 C 
BRANCH  13  14
ATOM     14  N   LIG    1       -0.671   7.758   2.355  0.00  0.00    -0.310 N 
ATOM     15  C   LIG    1       -1.464   8.846   2.489  0.00  0.00    +0.160 A 
ATOM     16  C   LIG    1       -0.656   9.922   2.345  0.00  0.00    +0.170 A 
ATOM     17  N   LIG    1        0.576   9.446   2.133  0.00  0.00    -0.240 NA
ATOM     18  N   LIG    1        0.534   8.160   2.150  0.00  0.00    -0.080 NA
ENDBRANCH  13  14
ENDBRANCH  12  13
ENDBRANCH   1  12
TORSDOF 4
ENDMDL
MODEL        3
REMARK  Name = ZINC000163791641
REMARK                            x       y       z     vdW  Elec       q    Type
REMARK                         _______ _______ _______ _____ _____    ______ ____
ROOT
ATOM      1  N   LIG    1       -1.153   4.233  -1.164  0.00  0.00    -0.490 N 
ATOM      2  H   LIG    1       -2.160   4.200  -1.220  0.00  0.00    +0.450 HD
ATOM      3  H   LIG    1       -0.756   3.804  -1.986  0.00  0.00    +0.430 HD
ENDROOT
BRANCH   1   7
ATOM      4  O   LIG    1        0.002  -0.004   0.002  0.00  0.00    -0.430 OA
ATOM      5  C   LIG    1       -0.014   1.208   0.009  0.00  0.00    +0.520 C 
ATOM      6  C   LIG    1       -1.260   2.068   0.032  0.00  0.00    +0.150 C 
ATOM      7  C   LIG    1       -0.705   3.507   0.032  0.00  0.00    +0.190 C 
ATOM      8  C   LIG    1        0.795   3.309   0.009  0.00  0.00    +0.520 C 
ATOM      9  O   LIG    1        1.620   4.197   0.002  0.00  0.00    -0.430 OA
ATOM     10  N   LIG    1        1.066   1.998   0.003  0.00  0.00    -0.670 N 
ATOM     11  H   LIG    1        1.971   1.650  -0.012  0.00  0.00    +0.440 HD
ENDBRANCH   1   7
BRANCH   1  12
ATOM     12  C   LIG    1       -0.712   5.632  -1.081  0.00  0.00    +0.270 C 
BRANCH  12  13
ATOM     13  C   LIG    1       -1.178   6.388  -2.326  0.00  0.00    +0.350 C 
BRANCH  13  14
ATOM     14  N   LIG    1       -0.739   7.784  -2.244  0.00  0.00    -0.310 N 
ATOM     15  C   LIG    1       -0.010   8.442  -3.174  0.00  0.00    +0.160 A 
ATOM     16  C   LIG    1        0.168   9.696  -2.696  0.00  0.00    +0.170 A 
ATOM     17  N   LIG    1       -0.452   9.742  -1.512  0.00  0.00    -0.240 NA
ATOM     18  N   LIG    1       -0.984   8.595  -1.275  0.00  0.00    -0.090 NA
ENDBRANCH  13  14
ENDBRANCH  12  13
ENDBRANCH   1  12
TORSDOF 4
ENDMDL
MODEL        4
REMARK  Name = ZINC000019795428
REMARK                            x       y       z     vdW  Elec       q    Type
REMARK                         _______ _______ _______ _____ _____    ______ ____
ROOT
ATOM      1  N   LIG    1        2.251   4.009  -0.009  0.00  0.00    -0.690 N 
ATOM      2  H   LIG    1        2.204   4.978  -0.003  0.00  0.00    +0.430 HD
ENDROOT
BRANCH   1   8
ATOM      3  O   LIG    1        0.002  -0.004   0.002  0.00  0.00    -0.520 OA
ATOM      4  C   LIG    1       -0.015   1.215   0.009  0.00  0.00    +0.590 A 
ATOM      5  N   LIG    1       -1.183   1.865   0.029  0.00  0.00    -0.330 NA
ATOM      6  N   LIG    1       -1.242   3.149   0.037  0.00  0.00    -0.070 NA
ATOM      7  C   LIG    1       -0.146   3.887   0.025  0.00  0.00    +0.030 A 
ATOM      8  C   LIG    1        1.099   3.268   0.004  0.00  0.00    +0.480 A 
ATOM      9  N   LIG    1        1.147   1.903   0.001  0.00  0.00    -0.620 N 
ATOM     10  H   LIG    1        1.997   1.437  -0.013  0.00  0.00    +0.410 HD
ENDBRANCH   1   8
BRANCH   1  11
ATOM     11  C   LIG    1        3.554   3.339  -0.031  0.00  0.00    +0.260 C 
BRANCH  11  12
ATOM     12  C   LIG    1        4.667   4.388  -0.042  0.00  0.00    +0.220 C 
BRANCH  12  13
ATOM     13  N   LIG    1        5.973   3.716  -0.064  0.00  0.00    -0.530 NA
ATOM     14  C   LIG    1        6.022   2.627   0.922  0.00  0.00    +0.200 C 
ATOM     15  C   LIG    1        7.373   1.916   0.826  0.00  0.00    +0.280 C 
ATOM     16  N   LIG    1        8.453   2.879   1.081  0.00  0.00    -0.510 N 
ATOM     17  C   LIG    1        8.406   3.948   0.074  0.00  0.00    +0.280 C 
ATOM     18  H   LIG    1        9.343   2.408   1.029  0.00  0.00    +0.440 HD
ATOM     19  H   LIG    1        8.336   3.279   2.000  0.00  0.00    +0.430 HD
ATOM     20  C   LIG    1        7.063   4.676   0.164  0.00  0.00    +0.220 C 
ENDBRANCH  12  13
ENDBRANCH  11  12
ENDBRANCH   1  11
TORSDOF 4
ENDMDL
MODEL        5
REMARK  Name = ZINC000034743445
REMARK                            x       y       z     vdW  Elec       q    Type
REMARK                         _______ _______ _______ _____ _____    ______ ____
ROOT
ATOM      1  N   LIG    1       -3.815   1.552   0.006  0.00  0.00    -0.520 NA
ATOM      2  C   LIG    1       -4.081   2.208  -1.281  0.00  0.00    +0.220 C 
ATOM      3  C   LIG    1       -2.851   2.081  -2.182  0.00  0.00    +0.250 C 
ATOM      4  N   LIG    1       -3.240   1.464  -3.457  0.00  0.00    -0.510 N 
ATOM      5  C   LIG    1       -2.345   0.335  -3.748  0.00  0.00    +0.260 C 
ATOM      6  C   LIG    1       -3.179  -0.915  -4.034  0.00  0.00    +0.210 C 
ATOM      7  N   LIG    1       -2.773  -1.993  -3.121  0.00  0.00    -0.690 NA
ATOM      8  H   LIG    1       -2.261  -2.710  -3.613  0.00  0.00    +0.380 HD
ATOM      9  C   LIG    1       -3.937  -2.560  -2.427  0.00  0.00    +0.210 C 
ATOM     10  C   LIG    1       -3.683  -2.553  -0.918  0.00  0.00    +0.270 C 
ATOM     11  N   LIG    1       -4.766  -1.825  -0.243  0.00  0.00    -0.510 N 
ATOM     12  C   LIG    1       -4.192  -0.787   0.624  0.00  0.00    +0.250 C 
ATOM     13  H   LIG    1       -5.307  -2.468   0.315  0.00  0.00    +0.430 HD
ATOM     14  H   LIG    1       -5.363  -1.394  -0.933  0.00  0.00    +0.410 HD
ATOM     15  H   LIG    1       -3.171   2.147  -4.197  0.00  0.00    +0.430 HD
ATOM     16  H   LIG    1       -4.191   1.132  -3.394  0.00  0.00    +0.410 HD
ATOM     17  C   LIG    1       -4.851   0.558   0.314  0.00  0.00    +0.230 C 
ENDROOT
BRANCH   1  18
ATOM     18  C   LIG    1       -2.479   0.941   0.019  0.00  0.00    +0.210 C 
BRANCH  18  19
ATOM     19  C   LIG    1       -2.102   0.569   1.454  0.00  0.00    -0.050 C 
BRANCH  19  21
ATOM     20  O   LIG    1       -0.227  -0.413   0.399  0.00  0.00    -0.700 OA
ATOM     21  C   LIG    1       -0.801  -0.191   1.452  0.00  0.00    +0.480 C 
ATOM     22  O   LIG    1       -0.318  -0.577   2.502  0.00  0.00    -0.670 OA
ENDBRANCH  19  21
ENDBRANCH  18  19
ENDBRANCH   1  18
TORSDOF 3
ENDMDL
MODEL        6
REMARK  Name = ZINC000034743444
REMARK                            x       y       z     vdW  Elec       q    Type
REMARK                         _______ _______ _______ _____ _____    ______ ____
ROOT
ATOM      1  N   LIG    1       -2.430   0.984   0.019  0.00  0.00    -0.350 N 
ATOM      2  C   LIG    1       -2.403   0.137   1.210  0.00  0.00    +0.250 C 
ATOM      3  C   LIG    1       -2.133   0.920   2.490  0.00  0.00    +0.240 C 
ATOM      4  N   LIG    1       -2.858   0.319   3.604  0.00  0.00    -0.780 NA
ATOM      5  H   LIG    1       -3.446  -0.440   3.434  0.00  0.00    +0.390 HD
ATOM      6  C   LIG    1       -3.192   1.251   4.671  0.00  0.00    +0.300 C 
ATOM      7  C   LIG    1       -4.656   1.680   4.559  0.00  0.00    +0.220 C 
ATOM      8  N   LIG    1       -4.729   3.065   4.076  0.00  0.00    -0.510 N 
ATOM      9  C   LIG    1       -5.827   3.192   3.109  0.00  0.00    +0.220 C 
ATOM     10  C   LIG    1       -5.400   4.117   1.966  0.00  0.00    +0.300 C 
ATOM     11  N   LIG    1       -5.202   3.348   0.747  0.00  0.00    -0.780 NA
ATOM     12  H   LIG    1       -5.902   2.741   0.447  0.00  0.00    +0.390 HD
ATOM     13  C   LIG    1       -3.808   3.015   0.467  0.00  0.00    +0.250 C 
ATOM     14  H   LIG    1       -3.858   3.318   3.636  0.00  0.00    +0.420 HD
ATOM     15  H   LIG    1       -4.904   3.682   4.859  0.00  0.00    +0.440 HD
ATOM     16  C   LIG    1       -3.729   1.627  -0.159  0.00  0.00    +0.220 C 
ATOM     17  H   LIG    1       -2.282   0.369  -0.793  0.00  0.00    +0.440 HD
ENDROOT
BRANCH   1  18
ATOM     18  C   LIG    1       -1.330   1.951   0.019  0.00  0.00    +0.160 C 
BRANCH  18  20
ATOM     19  O   LIG    1        0.002  -0.004   0.002  0.00  0.00    -0.670 OA
ATOM     20  C   LIG    1       -0.015   1.215   0.009  0.00  0.00    +0.490 C 
ATOM     21  O   LIG    1        1.033   1.839   0.002  0.00  0.00    -0.630 OA
ENDBRANCH  18  20
ENDBRANCH   1  18
TORSDOF 2
ENDMDL
MODEL        7
REMARK  Name = ZINC000034979053
REMARK                            x       y       z     vdW  Elec       q    Type
REMARK                         _______ _______ _______ _____ _____    ______ ____
ROOT
ATOM      1  S   LIG    1       -0.821  -3.290   2.521  0.00  0.00    +2.610 S 
ATOM      2  O   LIG    1       -2.233  -3.371   2.391  0.00  0.00    -0.930 OA
ATOM      3  O   LIG    1       -0.220  -2.397   3.449  0.00  0.00    -0.930 OA
ENDROOT
BRANCH   1   9
ATOM      4  C   LIG    1       -0.018   1.465   0.010  0.00  0.00    +0.200 C 
ATOM      5  N   LIG    1        0.002  -0.004   0.002  0.00  0.00    -0.570 NA
ATOM      6  C   LIG    1       -1.333  -0.545  -0.249  0.00  0.00    +0.190 C 
ATOM      7  C   LIG    1       -1.208  -1.806  -1.075  0.00  0.00    +0.050 C 
ATOM      8  C   LIG    1       -1.137  -3.028  -0.144  0.00  0.00    +0.280 C 
ATOM      9  N   LIG    1       -0.305  -2.750   1.043  0.00  0.00    -0.980 NA
ATOM     10  C   LIG    1        0.946  -2.023   0.964  0.00  0.00    +0.300 C 
ATOM     11  C   LIG    1        0.680  -0.508   1.137  0.00  0.00    +0.180 C 
ENDBRANCH   1   9
BRANCH   1  12
ATOM     12  C   LIG    1       -0.100  -4.947   2.675  0.00  0.00    -0.380 C 
BRANCH  12  13
ATOM     13  C   LIG    1       -0.509  -5.559   4.016  0.00  0.00    +0.310 C 
BRANCH  13  14
ATOM     14  N   LIG    1        0.075  -6.901   4.141  0.00  0.00    -0.630 N 
ATOM     15  H   LIG    1       -0.194  -7.304   5.025  0.00  0.00    +0.440 HD
ATOM     16  H   LIG    1        1.081  -6.836   4.093  0.00  0.00    +0.440 HD
ATOM     17  H   LIG    1       -0.260  -7.485   3.389  0.00  0.00    +0.440 HD
ENDBRANCH  13  14
ENDBRANCH  12  13
ENDBRANCH   1  12
TORSDOF 4
ENDMDL
MODEL        8
REMARK  Name = ZINC000003794711
REMARK                            x       y       z     vdW  Elec       q    Type
REMARK                         _______ _______ _______ _____ _____    ______ ____
ROOT
ATOM      1  N   LIG    1        1.355  -2.512  -2.431  0.00  0.00    -0.370 N 
ATOM      2  C   LIG    1        0.523  -2.234  -3.608  0.00  0.00    +0.280 C 
ATOM      3  C   LIG    1        1.303  -2.574  -4.880  0.00  0.00    +0.150 C 
ATOM      4  C   LIG    1        1.683  -4.057  -4.860  0.00  0.00    +0.120 C 
ATOM      5  C   LIG    1        2.487  -4.351  -3.590  0.00  0.00    +0.210 C 
ATOM      6  C   LIG    1        1.661  -3.946  -2.367  0.00  0.00    +0.200 C 
ATOM      7  H   LIG    1        2.215  -1.988  -2.497  0.00  0.00    +0.430 HD
ENDROOT
BRANCH   5   8
ATOM      8  O   LIG    1        2.784  -5.747  -3.526  0.00  0.00    -0.540 OA
ATOM      9  H   LIG    1        3.303  -6.074  -4.273  0.00  0.00    +0.410 HD
ENDBRANCH   5   8
BRANCH   4  10
ATOM     10  O   LIG    1        2.473  -4.364  -6.010  0.00  0.00    -0.550 OA
ATOM     11  H   LIG    1        2.026  -4.197  -6.851  0.00  0.00    +0.400 HD
ENDBRANCH   4  10
BRANCH   3  12
ATOM     12  O   LIG    1        0.491  -2.304  -6.025  0.00  0.00    -0.540 OA
ATOM     13  H   LIG    1        0.923  -2.496  -6.868  0.00  0.00    +0.400 HD
ENDBRANCH   3  12
BRANCH   1  14
ATOM     14  C   LIG    1        0.632  -2.112  -1.217  0.00  0.00    +0.260 C 
BRANCH  14  15
ATOM     15  C   LIG    1        0.408  -0.599  -1.232  0.00  0.00    +0.030 C 
BRANCH  15  17
ATOM     16  C   LIG    1       -0.569   1.332   0.018  0.00  0.00    +0.030 C 
ATOM     17  C   LIG    1       -0.345  -0.182   0.033  0.00  0.00    +0.020 C 
ENDBRANCH  15  17
ENDBRANCH  14  15
ENDBRANCH   1  14
BRANCH   6  18
ATOM     18  C   LIG    1        2.460  -4.237  -1.095  0.00  0.00    +0.240 C 
BRANCH  18  19
ATOM     19  O   LIG    1        3.714  -3.553  -1.153  0.00  0.00    -0.580 OA
ATOM     20  H   LIG    1        4.274  -3.692  -0.377  0.00  0.00    +0.410 HD
ENDBRANCH  18  19
ENDBRANCH   6  18
TORSDOF 8
ENDMDL
MODEL        9
REMARK  Name = ZINC000004135997
REMARK                            x       y       z     vdW  Elec       q    Type
REMARK                         _______ _______ _______ _____ _____    ______ ____
ROOT
ATOM      1  N   LIG    1       -2.683  -4.071  -0.485  0.00  0.00    -0.490 N 
ATOM      2  H   LIG    1       -2.137  -4.518   0.236  0.00  0.00    +0.430 HD
ATOM      3  H   LIG    1       -2.258  -4.243  -1.384  0.00  0.00    +0.440 HD
ENDROOT
BRANCH   1   4
ATOM      4  C   LIG    1       -4.047  -4.616  -0.475  0.00  0.00    +0.210 C 
ATOM      5  C   LIG    1       -4.845  -4.047  -1.677  0.00  0.00    -0.300 C 
ATOM      6  S   LIG    1       -6.231  -5.250  -1.787  0.00  0.00    +2.410 S 
ATOM      7  C   LIG    1       -5.227  -6.709  -1.315  0.00  0.00    -0.300 C 
ATOM      8  O   LIG    1       -6.651  -5.372  -3.139  0.00  0.00    -0.900 OA
ATOM      9  O   LIG    1       -7.182  -4.976  -0.767  0.00  0.00    -0.900 OA
ATOM     10  C   LIG    1       -3.993  -6.139  -0.603  0.00  0.00    +0.210 C 
BRANCH  10  11
ATOM     11  O   LIG    1       -2.824  -6.502  -1.340  0.00  0.00    -0.580 OA
ATOM     12  H   LIG    1       -2.682  -7.456  -1.408  0.00  0.00    +0.420 HD
ENDBRANCH  10  11
ENDBRANCH   1   4
BRANCH   1  13
ATOM     13  C   LIG    1       -2.732  -2.624  -0.236  0.00  0.00    +0.260 C 
BRANCH  13  14
ATOM     14  C   LIG    1       -1.311  -2.056  -0.247  0.00  0.00    +0.040 C 
BRANCH  14  15
ATOM     15  C   LIG    1       -1.362  -0.549   0.012  0.00  0.00    +0.190 C 
BRANCH  15  17
ATOM     16  C   LIG    1       -0.018   1.465   0.010  0.00  0.00    +0.200 C 
ATOM     17  N   LIG    1        0.002  -0.004   0.002  0.00  0.00    -0.550 NA
ATOM     18  C   LIG    1        0.786  -0.526   1.129  0.00  0.00    +0.190 C 
ENDBRANCH  15  17
ENDBRANCH  14  15
ENDBRANCH  13  14
ENDBRANCH   1  13
TORSDOF 6
ENDMDL
MODEL       10
REMARK  Name = ZINC000004135996
REMARK                            x       y       z     vdW  Elec       q    Type
REMARK                         _______ _______ _______ _____ _____    ______ ____
ROOT
ATOM      1  N   LIG    1       -2.683  -4.071  -0.485  0.00  0.00    -0.500 N 
ATOM      2  H   LIG    1       -2.137  -4.518   0.236  0.00  0.00    +0.430 HD
ATOM      3  H   LIG    1       -2.258  -4.243  -1.384  0.00  0.00    +0.440 HD
ENDROOT
BRANCH   1   4
ATOM      4  C   LIG    1       -4.047  -4.616  -0.475  0.00  0.00    +0.220 C 
ATOM      5  C   LIG    1       -4.644  -4.444   0.936  0.00  0.00    -0.300 C 
ATOM      6  S   LIG    1       -5.698  -5.939   1.120  0.00  0.00    +2.410 S 
ATOM      7  C   LIG    1       -4.559  -7.025   0.170  0.00  0.00    -0.300 C 
ATOM      8  O   LIG    1       -6.910  -5.764   0.400  0.00  0.00    -0.890 OA
ATOM      9  O   LIG    1       -5.726  -6.344   2.481  0.00  0.00    -0.900 OA
ATOM     10  C   LIG    1       -3.998  -6.077  -0.906  0.00  0.00    +0.190 C 
BRANCH  10  11
ATOM     11  O   LIG    1       -4.766  -6.227  -2.101  0.00  0.00    -0.540 OA
ATOM     12  H   LIG    1       -4.735  -7.116  -2.480  0.00  0.00    +0.410 HD
ENDBRANCH  10  11
ENDBRANCH   1   4
BRANCH   1  13
ATOM     13  C   LIG    1       -2.732  -2.624  -0.236  0.00  0.00    +0.270 C 
BRANCH  13  14
ATOM     14  C   LIG    1       -1.311  -2.056  -0.247  0.00  0.00    +0.040 C 
BRANCH  14  15
ATOM     15  C   LIG    1       -1.362  -0.549   0.012  0.00  0.00    +0.190 C 
BRANCH  15  17
ATOM     16  C   LIG    1       -0.018   1.465   0.010  0.00  0.00    +0.200 C 
ATOM     17  N   LIG    1        0.002  -0.004   0.002  0.00  0.00    -0.550 NA
ATOM     18  C   LIG    1        0.786  -0.526   1.129  0.00  0.00    +0.190 C 
ENDBRANCH  15  17
ENDBRANCH  14  15
ENDBRANCH  13  14
ENDBRANCH   1  13
TORSDOF 6
ENDMDL
MODEL       11
REMARK  Name = ZINC000004219208
REMARK                            x       y       z     vdW  Elec       q    Type
REMARK                         _______ _______ _______ _____ _____    ______ ____
ROOT
ATOM      1  O   LIG    1       -0.171  -0.013   0.032  0.00  0.00    -0.470 OA
ATOM      2  C   LIG    1       -0.013   1.181  -0.110  0.00  0.00    +0.530 C 
ATOM      3  N   LIG    1       -1.069   1.973  -0.383  0.00  0.00    -0.620 N 
ATOM      4  C   LIG    1       -0.887   3.404  -0.673  0.00  0.00    +0.310 C 
ATOM      5  C   LIG    1       -1.635   3.736  -1.969  0.00  0.00    +0.270 C 
ATOM      6  N   LIG    1       -3.036   3.316  -1.846  0.00  0.00    -0.510 N 
ATOM      7  C   LIG    1       -3.111   1.856  -1.710  0.00  0.00    +0.270 C 
ATOM      8  H   LIG    1       -3.545   3.601  -2.669  0.00  0.00    +0.440 HD
ATOM      9  H   LIG    1       -3.446   3.749  -1.032  0.00  0.00    +0.430 HD
ATOM     10  C   LIG    1       -2.436   1.429  -0.407  0.00  0.00    +0.320 C 
ENDROOT
BRANCH   2  11
ATOM     11  C   LIG    1        1.353   1.774   0.014  0.00  0.00    +0.510 C 
ATOM     12  N   LIG    1        2.184   1.780  -1.047  0.00  0.00    -0.600 N 
ATOM     13  C   LIG    1        1.729   1.315  -2.367  0.00  0.00    +0.250 C 
ATOM     14  C   LIG    1        2.085   2.385  -3.405  0.00  0.00    +0.210 C 
ATOM     15  O   LIG    1        3.472   2.711  -3.290  0.00  0.00    -0.370 OA
ATOM     16  C   LIG    1        3.837   3.276  -2.029  0.00  0.00    +0.230 C 
ATOM     17  C   LIG    1        3.570   2.257  -0.921  0.00  0.00    +0.270 C 
ATOM     18  O   LIG    1        1.714   2.251   1.070  0.00  0.00    -0.490 OA
ENDBRANCH   2  11
TORSDOF 1
ENDMDL
MODEL       12
REMARK  Name = ZINC000077264095
REMARK                            x       y       z     vdW  Elec       q    Type
REMARK                         _______ _______ _______ _____ _____    ______ ____
ROOT
ATOM      1  C   LIG    1        1.829  -4.893  -3.141  0.00  0.00    +0.160 C 
ATOM      2  O   LIG    1        3.232  -4.584  -3.107  0.00  0.00    -0.330 OA
ATOM      3  C   LIG    1        3.890  -5.687  -2.447  0.00  0.00    +0.250 C 
ATOM      4  C   LIG    1        3.155  -6.933  -3.004  0.00  0.00    +0.160 C 
ATOM      5  C   LIG    1        1.693  -6.428  -3.113  0.00  0.00    +0.170 C 
ENDROOT
BRANCH   4   6
ATOM      6  N   LIG    1        3.253  -8.061  -2.069  0.00  0.00    -0.630 N 
ATOM      7  H   LIG    1        4.223  -8.310  -1.943  0.00  0.00    +0.450 HD
ATOM      8  H   LIG    1        2.749  -8.852  -2.442  0.00  0.00    +0.450 HD
ATOM      9  H   LIG    1        2.856  -7.797  -1.180  0.00  0.00    +0.440 HD
ENDBRANCH   4   6
BRANCH   5  10
ATOM     10  O   LIG    1        1.087  -6.904  -4.317  0.00  0.00    -0.550 OA
ATOM     11  H   LIG    1        0.171  -6.618  -4.436  0.00  0.00    +0.410 HD
ENDBRANCH   5  10
BRANCH   1  12
ATOM     12  C   LIG    1        1.133  -4.287  -1.921  0.00  0.00    +0.260 C 
BRANCH  12  14
ATOM     13  C   LIG    1        0.614  -2.074  -1.042  0.00  0.00    +0.520 C 
ATOM     14  N   LIG    1        1.170  -2.825  -2.014  0.00  0.00    -0.730 N 
ATOM     15  H   LIG    1        1.595  -2.398  -2.774  0.00  0.00    +0.410 HD
ATOM     16  O   LIG    1        0.082  -2.608  -0.092  0.00  0.00    -0.510 OA
BRANCH  13  17
ATOM     17  C   LIG    1        0.652  -0.570  -1.138  0.00  0.00    +0.200 C 
BRANCH  17  19
ATOM     18  C   LIG    1       -0.017   1.425   0.010  0.00  0.00    +0.230 C 
ATOM     19  O   LIG    1        0.002  -0.004   0.002  0.00  0.00    -0.370 OA
ENDBRANCH  17  19
ENDBRANCH  13  17
ENDBRANCH  12  14
ENDBRANCH   1  12
TORSDOF 6
ENDMDL
MODEL       13
REMARK  Name = ZINC000078931636
REMARK                            x       y       z     vdW  Elec       q    Type
REMARK                         _______ _______ _______ _____ _____    ______ ____
ROOT
ATOM      1  C   LIG    1       -4.000  -1.215  -2.566  0.00  0.00    +0.210 C 
ATOM      2  O   LIG    1       -4.133   0.118  -3.086  0.00  0.00    -0.350 OA
ATOM      3  C   LIG    1       -5.284   0.118  -3.958  0.00  0.00    +0.160 C 
ATOM      4  C   LIG    1       -6.309  -0.764  -3.203  0.00  0.00    +0.140 C 
ATOM      5  C   LIG    1       -5.401  -1.857  -2.579  0.00  0.00    +0.130 C 
ENDROOT
BRANCH   4   6
ATOM      6  O   LIG    1       -7.251  -1.342  -4.110  0.00  0.00    -0.550 OA
ATOM      7  H   LIG    1       -7.913  -1.903  -3.685  0.00  0.00    +0.400 HD
ENDBRANCH   4   6
BRANCH   5   8
ATOM      8  O   LIG    1       -5.411  -3.036  -3.386  0.00  0.00    -0.540 OA
ATOM      9  H   LIG    1       -6.283  -3.445  -3.474  0.00  0.00    +0.390 HD
ENDBRANCH   5   8
BRANCH   1  10
ATOM     10  C   LIG    1       -3.465  -1.164  -1.134  0.00  0.00    +0.080 C 
BRANCH  10  13
ATOM     11  N   LIG    1       -1.372  -0.511   0.012  0.00  0.00    -0.730 N 
ATOM     12  H   LIG    1       -1.794  -0.752   0.852  0.00  0.00    +0.400 HD
ATOM     13  C   LIG    1       -2.051  -0.643  -1.145  0.00  0.00    +0.520 C 
ATOM     14  O   LIG    1       -1.524  -0.341  -2.194  0.00  0.00    -0.530 OA
BRANCH  11  16
ATOM     15  C   LIG    1       -0.019   1.526   0.010  0.00  0.00    +0.030 C 
ATOM     16  C   LIG    1        0.002  -0.004   0.002  0.00  0.00    +0.220 C 
ATOM     17  C   LIG    1        0.742  -0.511   1.242  0.00  0.00    +0.040 C 
ENDBRANCH  11  16
ENDBRANCH  10  13
ENDBRANCH   1  10
BRANCH   3  18
ATOM     18  C   LIG    1       -5.821   1.539  -4.140  0.00  0.00    +0.300 C 
BRANCH  18  19
ATOM     19  N   LIG    1       -4.835   2.346  -4.870  0.00  0.00    -0.640 N 
ATOM     20  H   LIG    1       -5.189   3.283  -4.991  0.00  0.00    +0.440 HD
ATOM     21  H   LIG    1       -4.665   1.933  -5.775  0.00  0.00    +0.440 HD
ATOM     22  H   LIG    1       -3.972   2.378  -4.347  0.00  0.00    +0.440 HD
ENDBRANCH  18  19
ENDBRANCH   3  18
TORSDOF 7
ENDMDL
MODEL       14
REMARK  Name = ZINC000001615342
REMARK                            x       y       z     vdW  Elec       q    Type
REMARK                         _______ _______ _______ _____ _____    ______ ____
ROOT
ATOM      1  N   LIG    1       -2.644  -0.257  -1.418  0.00  0.00    -0.370 N 
ATOM      2  H   LIG    1       -3.091   0.443  -1.992  0.00  0.00    +0.440 HD
ENDROOT
BRANCH   1   3
ATOM      3  C   LIG    1       -2.015   0.389  -0.258  0.00  0.00    +0.280 C 
BRANCH   3   4
ATOM      4  C   LIG    1       -1.090   1.509  -0.738  0.00  0.00    +0.210 C 
BRANCH   4   5
ATOM      5  O   LIG    1       -1.865   2.532  -1.366  0.00  0.00    -0.580 OA
ATOM      6  H   LIG    1       -1.343   3.276  -1.696  0.00  0.00    +0.410 HD
ENDBRANCH   4   5
ENDBRANCH   3   4
ENDBRANCH   1   3
BRANCH   1   7
ATOM      7  C   LIG    1       -3.648  -1.224  -0.955  0.00  0.00    +0.060 C 
BRANCH   7   8
ATOM      8  C   LIG    1       -4.404  -1.790  -2.159  0.00  0.00    +0.230 C 
BRANCH   8   9
ATOM      9  O   LIG    1       -4.959  -0.716  -2.921  0.00  0.00    -0.570 OA
ATOM     10  H   LIG    1       -5.453  -1.002  -3.701  0.00  0.00    +0.410 HD
ENDBRANCH   8   9
ENDBRANCH   7   8
BRANCH   7  11
ATOM     11  C   LIG    1       -4.634  -0.526  -0.016  0.00  0.00    +0.220 C 
BRANCH  11  12
ATOM     12  O   LIG    1       -5.679  -1.434   0.337  0.00  0.00    -0.560 OA
ATOM     13  H   LIG    1       -6.342  -1.058   0.933  0.00  0.00    +0.410 HD
ENDBRANCH  11  12
ENDBRANCH   7  11
BRANCH   7  14
ATOM     14  C   LIG    1       -2.951  -2.364  -0.208  0.00  0.00    +0.250 C 
BRANCH  14  15
ATOM     15  O   LIG    1       -2.305  -1.845   0.956  0.00  0.00    -0.570 OA
ATOM     16  H   LIG    1       -1.842  -2.514   1.479  0.00  0.00    +0.410 HD
ENDBRANCH  14  15
ENDBRANCH   7  14
ENDBRANCH   1   7
BRANCH   1  17
ATOM     17  C   LIG    1       -1.619  -0.954  -2.206  0.00  0.00    +0.260 C 
BRANCH  17  18
ATOM     18  C   LIG    1       -2.068  -1.040  -3.666  0.00  0.00    +0.210 C 
BRANCH  18  19
ATOM     19  O   LIG    1       -2.143   0.275  -4.219  0.00  0.00    -0.570 OA
ATOM     20  H   LIG    1       -2.422   0.297  -5.145  0.00  0.00    +0.400 HD
ENDBRANCH  18  19
ENDBRANCH  17  18
ENDBRANCH   1  17
TORSDOF 13
ENDMDL
MODEL       15
REMARK  Name = ZINC000019364839
REMARK                            x       y       z     vdW  Elec       q    Type
REMARK                         _______ _______ _______ _____ _____    ______ ____
ROOT
ATOM      1  C   LIG    1       -0.527   1.597  -1.823  0.00  0.00    +0.260 C 
ENDROOT
BRANCH   1   2
ATOM      2  N   LIG    1       -0.420   3.054  -1.668  0.00  0.00    -0.380 N 
ATOM      3  H   LIG    1       -0.917   3.510  -2.418  0.00  0.00    +0.440 HD
BRANCH   2   4
ATOM      4  C   LIG    1        0.995   3.447  -1.708  0.00  0.00    +0.270 C 
BRANCH   4   5
ATOM      5  C   LIG    1        1.563   3.168  -3.101  0.00  0.00    +0.210 C 
BRANCH   5   6
ATOM      6  O   LIG    1        0.881   3.974  -4.064  0.00  0.00    -0.580 OA
ATOM      7  H   LIG    1        1.190   3.849  -4.972  0.00  0.00    +0.410 HD
ENDBRANCH   5   6
ENDBRANCH   4   5
ENDBRANCH   2   4
BRANCH   2   8
ATOM      8  C   LIG    1       -1.003   3.453  -0.380  0.00  0.00    +0.270 C 
BRANCH   8   9
ATOM      9  C   LIG    1       -1.004   4.979  -0.272  0.00  0.00    +0.210 C 
BRANCH   9  10
ATOM     10  O   LIG    1       -1.873   5.527  -1.267  0.00  0.00    -0.580 OA
ATOM     11  H   LIG    1       -1.923   6.492  -1.257  0.00  0.00    +0.410 HD
ENDBRANCH   9  10
ENDBRANCH   8   9
ENDBRANCH   2   8
ENDBRANCH   1   2
BRANCH   1  12
ATOM     12  C   LIG    1       -2.001   1.204  -1.938  0.00  0.00    +0.180 C 
BRANCH  12  13
ATOM     13  N   LIG    1       -2.113  -0.258  -2.025  0.00  0.00    -0.520 NA
BRANCH  13  14
ATOM     14  C   LIG    1       -1.836  -0.885  -0.725  0.00  0.00    +0.250 C 
BRANCH  14  15
ATOM     15  C   LIG    1       -2.906  -0.463   0.283  0.00  0.00    +0.120 C 
BRANCH  15  16
ATOM     16  O   LIG    1       -4.125  -1.152   0.000  0.00  0.00    -0.540 OA
ATOM     17  H   LIG    1       -4.827  -0.991   0.646  0.00  0.00    +0.370 HD
ENDBRANCH  15  16
ENDBRANCH  14  15
ENDBRANCH  13  14
BRANCH  13  18
ATOM     18  C   LIG    1       -3.433  -0.657  -2.530  0.00  0.00    +0.210 C 
BRANCH  18  19
ATOM     19  C   LIG    1       -3.387  -2.117  -2.983  0.00  0.00    +0.180 C 
BRANCH  19  20
ATOM     20  O   LIG    1       -3.211  -2.964  -1.846  0.00  0.00    -0.560 OA
ATOM     21  H   LIG    1       -3.172  -3.906  -2.059  0.00  0.00    +0.380 HD
ENDBRANCH  19  20
ENDBRANCH  18  19
ENDBRANCH  13  18
ENDBRANCH  12  13
ENDBRANCH   1  12
TORSDOF 15
ENDMDL
MODEL       16
REMARK  Name = ZINC000065490468
REMARK                            x       y       z     vdW  Elec       q    Type
REMARK                         _______ _______ _______ _____ _____    ______ ____
ROOT
ATOM      1  N   LIG    1       -2.228  -0.015  -1.260  0.00  0.00    -0.380 N 
ATOM      2  H   LIG    1       -2.226   0.926  -1.625  0.00  0.00    +0.440 HD
ENDROOT
BRANCH   1   3
ATOM      3  C   LIG    1       -1.369  -0.080  -0.070  0.00  0.00    +0.270 C 
BRANCH   3   4
ATOM      4  C   LIG    1        0.028   0.434  -0.421  0.00  0.00    +0.220 C 
BRANCH   4   5
ATOM      5  O   LIG    1       -0.045   1.820  -0.759  0.00  0.00    -0.580 OA
ATOM      6  H   LIG    1        0.807   2.214  -0.993  0.00  0.00    +0.410 HD
ENDBRANCH   4   5
ENDBRANCH   3   4
ENDBRANCH   1   3
BRANCH   1   7
ATOM      7  C   LIG    1       -3.600  -0.394  -0.895  0.00  0.00    +0.270 C 
BRANCH   7   8
ATOM      8  C   LIG    1       -4.179   0.648   0.064  0.00  0.00    +0.030 C 
BRANCH   8   9
ATOM      9  C   LIG    1       -5.648   0.322   0.344  0.00  0.00    +0.330 C 
BRANCH   9  10
ATOM     10  N   LIG    1       -6.203   1.319   1.263  0.00  0.00    -0.490 N 
ATOM     11  C   LIG    1       -6.210   1.266   2.616  0.00  0.00    +0.370 A 
ATOM     12  N   LIG    1       -6.798   2.350   3.045  0.00  0.00    -0.290 NA
ATOM     13  N   LIG    1       -7.156   3.073   2.043  0.00  0.00    -0.290 NA
ATOM     14  C   LIG    1       -6.808   2.486   0.931  0.00  0.00    +0.370 A 
ENDBRANCH   9  10
ENDBRANCH   8   9
ENDBRANCH   7   8
ENDBRANCH   1   7
BRANCH   1  15
ATOM     15  C   LIG    1       -1.720  -0.939  -2.282  0.00  0.00    +0.270 C 
BRANCH  15  16
ATOM     16  C   LIG    1       -2.520  -0.759  -3.575  0.00  0.00    +0.220 C 
BRANCH  16  17
ATOM     17  O   LIG    1       -2.308   0.558  -4.087  0.00  0.00    -0.580 OA
ATOM     18  H   LIG    1       -2.786   0.742  -4.907  0.00  0.00    +0.410 HD
ENDBRANCH  16  17
ENDBRANCH  15  16
ENDBRANCH   1  15
TORSDOF 10
ENDMDL
MODEL       17
REMARK  Name = ZINC000022933404
REMARK                            x       y       z     vdW  Elec       q    Type
REMARK                         _______ _______ _______ _____ _____    ______ ____
ROOT
ATOM      1  C   LIG    1        0.561   1.122  -0.572  0.00  0.00    +0.190 C 
ATOM      2  N   LIG    1        0.364  -0.326  -0.426  0.00  0.00    -0.540 NA
ATOM      3  C   LIG    1       -1.065  -0.657  -0.347  0.00  0.00    +0.170 C 
ATOM      4  C   LIG    1       -1.236  -2.180  -0.379  0.00  0.00    +0.300 C 
ATOM      5  N   LIG    1       -0.403  -2.765   0.683  0.00  0.00    -0.610 N 
ATOM      6  C   LIG    1        1.013  -2.373   0.752  0.00  0.00    +0.290 C 
ATOM      7  C   LIG    1       -0.922  -3.638   1.568  0.00  0.00    +0.510 C 
ATOM      8  O   LIG    1       -2.092  -3.951   1.496  0.00  0.00    -0.530 OA
ATOM      9  C   LIG    1        1.095  -0.843   0.739  0.00  0.00    +0.170 C 
ENDROOT
BRANCH   7  10
ATOM     10  C   LIG    1       -0.051  -4.226   2.647  0.00  0.00    +0.240 C 
BRANCH  10  11
ATOM     11  N   LIG    1       -0.805  -5.250   3.383  0.00  0.00    -0.520 NA
ATOM     12  C   LIG    1       -0.078  -5.676   4.588  0.00  0.00    +0.200 C 
ATOM     13  C   LIG    1       -0.922  -6.696   5.355  0.00  0.00    +0.280 C 
ATOM     14  N   LIG    1       -1.195  -7.853   4.492  0.00  0.00    -0.510 N 
ATOM     15  C   LIG    1       -1.943  -7.416   3.306  0.00  0.00    +0.280 C 
ATOM     16  H   LIG    1       -1.742  -8.531   5.002  0.00  0.00    +0.430 HD
ATOM     17  H   LIG    1       -0.323  -8.271   4.205  0.00  0.00    +0.430 HD
ATOM     18  C   LIG    1       -1.107  -6.402   2.521  0.00  0.00    +0.210 C 
ENDBRANCH  10  11
ENDBRANCH   7  10
TORSDOF 2
ENDMDL
MODEL       18
REMARK  Name = ZINC000072344462
REMARK                            x       y       z     vdW  Elec       q    Type
REMARK                         _______ _______ _______ _____ _____    ______ ____
ROOT
ATOM      1  C   LIG    1       -0.042   1.472   0.019  0.00  0.00    +0.210 C 
ATOM      2  N   LIG    1       -0.012   0.003   0.011  0.00  0.00    -0.540 NA
ATOM      3  C   LIG    1       -1.369  -0.551  -0.092  0.00  0.00    +0.180 C 
ATOM      4  C   LIG    1       -1.284  -2.069  -0.280  0.00  0.00    +0.300 C 
ATOM      5  N   LIG    1       -0.465  -2.630   0.804  0.00  0.00    -0.600 N 
ATOM      6  C   LIG    1        0.856  -2.033   1.058  0.00  0.00    +0.280 C 
ATOM      7  C   LIG    1       -0.911  -3.662   1.546  0.00  0.00    +0.520 C 
ATOM      8  O   LIG    1       -2.039  -4.079   1.389  0.00  0.00    -0.520 OA
ATOM      9  C   LIG    1        0.687  -0.516   1.193  0.00  0.00    +0.180 C 
ENDROOT
BRANCH   7  10
ATOM     10  C   LIG    1       -0.009  -4.300   2.571  0.00  0.00    -0.040 C 
ATOM     11  C   LIG    1       -0.254  -5.817   2.575  0.00  0.00    +0.290 C 
ATOM     12  N   LIG    1        0.917  -6.453   3.120  0.00  0.00    -0.500 N 
ATOM     13  C   LIG    1        0.800  -6.705   4.578  0.00  0.00    +0.240 C 
ATOM     14  C   LIG    1        0.146  -5.523   5.322  0.00  0.00    +0.240 C 
ATOM     15  O   LIG    1        0.589  -4.268   4.890  0.00  0.00    -0.350 OA
ATOM     16  H   LIG    1        1.717  -5.860   2.956  0.00  0.00    +0.430 HD
ATOM     17  H   LIG    1        1.061  -7.333   2.647  0.00  0.00    +0.440 HD
ATOM     18  C   LIG    1       -0.267  -3.689   3.874  0.00  0.00    +0.260 C 
ENDBRANCH   7  10
TORSDOF 1
ENDMDL
MODEL       19
REMARK  Name = ZINC000072344463
REMARK                            x       y       z     vdW  Elec       q    Type
REMARK                         _______ _______ _______ _____ _____    ______ ____
ROOT
ATOM      1  C   LIG    1       -0.018   1.465   0.010  0.00  0.00    +0.210 C 
ATOM      2  N   LIG    1        0.002  -0.004   0.002  0.00  0.00    -0.540 NA
ATOM      3  C   LIG    1       -1.359  -0.548  -0.091  0.00  0.00    +0.180 C 
ATOM      4  C   LIG    1       -1.286  -2.068  -0.279  0.00  0.00    +0.300 C 
ATOM      5  N   LIG    1       -0.463  -2.633   0.801  0.00  0.00    -0.600 N 
ATOM      6  C   LIG    1        0.864  -2.046   1.044  0.00  0.00    +0.280 C 
ATOM      7  C   LIG    1       -0.911  -3.662   1.546  0.00  0.00    +0.530 C 
ATOM      8  O   LIG    1       -2.007  -4.135   1.331  0.00  0.00    -0.530 OA
ATOM      9  C   LIG    1        0.706  -0.527   1.180  0.00  0.00    +0.180 C 
ENDROOT
BRANCH   7  10
ATOM     10  C   LIG    1       -0.051  -4.226   2.647  0.00  0.00    -0.050 C 
ATOM     11  C   LIG    1       -0.775  -5.366   3.322  0.00  0.00    +0.280 C 
ATOM     12  N   LIG    1       -0.466  -5.487   4.763  0.00  0.00    -0.510 N 
ATOM     13  C   LIG    1        0.966  -5.300   5.053  0.00  0.00    +0.240 C 
ATOM     14  C   LIG    1        1.838  -5.988   4.030  0.00  0.00    +0.260 C 
ATOM     15  O   LIG    1        2.183  -5.011   3.036  0.00  0.00    -0.360 OA
ATOM     16  H   LIG    1       -0.744  -6.404   5.081  0.00  0.00    +0.440 HD
ATOM     17  H   LIG    1       -0.995  -4.793   5.269  0.00  0.00    +0.430 HD
ATOM     18  C   LIG    1        1.276  -4.756   2.049  0.00  0.00    +0.260 C 
ENDBRANCH   7  10
TORSDOF 1
ENDMDL
MODEL       20
REMARK  Name = ZINC000078931509
REMARK                            x       y       z     vdW  Elec       q    Type
REMARK                         _______ _______ _______ _____ _____    ______ ____
ROOT
ATOM      1  C   LIG    1       -4.700  -3.814  -0.885  0.00  0.00    +0.160 C 
ATOM      2  O   LIG    1       -5.442  -2.926  -1.739  0.00  0.00    -0.330 OA
ATOM      3  C   LIG    1       -5.635  -3.613  -2.994  0.00  0.00    +0.260 C 
ATOM      4  C   LIG    1       -5.939  -5.071  -2.565  0.00  0.00    +0.160 C 
ATOM      5  C   LIG    1       -5.002  -5.254  -1.342  0.00  0.00    +0.170 C 
ENDROOT
BRANCH   4   6
ATOM      6  N   LIG    1       -5.594  -6.015  -3.637  0.00  0.00    -0.630 N 
ATOM      7  H   LIG    1       -6.152  -5.815  -4.453  0.00  0.00    +0.440 HD
ATOM      8  H   LIG    1       -5.778  -6.958  -3.326  0.00  0.00    +0.450 HD
ATOM      9  H   LIG    1       -4.616  -5.921  -3.866  0.00  0.00    +0.440 HD
ENDBRANCH   4   6
BRANCH   5  10
ATOM     10  O   LIG    1       -5.666  -5.984  -0.308  0.00  0.00    -0.550 OA
ATOM     11  H   LIG    1       -5.126  -6.128   0.481  0.00  0.00    +0.410 HD
ENDBRANCH   5  10
BRANCH   1  12
ATOM     12  C   LIG    1       -3.202  -3.530  -1.016  0.00  0.00    +0.270 C 
BRANCH  12  16
ATOM     13  N   LIG    1       -1.372  -0.511   0.012  0.00  0.00    -0.740 N 
ATOM     14  H   LIG    1       -2.087   0.033   0.377  0.00  0.00    +0.400 HD
ATOM     15  C   LIG    1       -1.643  -1.734  -0.485  0.00  0.00    +0.710 C 
ATOM     16  N   LIG    1       -2.908  -2.201  -0.475  0.00  0.00    -0.750 N 
ATOM     17  H   LIG    1       -3.623  -1.656  -0.111  0.00  0.00    +0.400 HD
ATOM     18  O   LIG    1       -0.747  -2.417  -0.942  0.00  0.00    -0.590 OA
BRANCH  13  20
ATOM     19  C   LIG    1       -0.019   1.526   0.010  0.00  0.00    +0.040 C 
ATOM     20  C   LIG    1        0.002  -0.004   0.002  0.00  0.00    +0.240 C 
ATOM     21  C   LIG    1        0.742  -0.511   1.242  0.00  0.00    +0.020 C 
ENDBRANCH  13  20
ENDBRANCH  12  16
ENDBRANCH   1  12
TORSDOF 5
ENDMDL
MODEL       21
REMARK  Name = ZINC000125277233
REMARK                            x       y       z     vdW  Elec       q    Type
REMARK                         _______ _______ _______ _____ _____    ______ ____
ROOT
ATOM      1  C   LIG    1       -0.027   1.526   0.018  0.00  0.00    +0.090 C 
ATOM      2  C   LIG    1       -0.003  -0.003   0.006  0.00  0.00    +0.230 C 
ATOM      3  C   LIG    1       -1.429  -0.542   0.155  0.00  0.00    +0.270 C 
ATOM      4  N   LIG    1       -1.388  -2.005   0.280  0.00  0.00    -0.500 N 
ATOM      5  C   LIG    1       -0.692  -2.382   1.516  0.00  0.00    +0.270 C 
ATOM      6  C   LIG    1        0.771  -1.934   1.434  0.00  0.00    +0.310 C 
ATOM      7  H   LIG    1       -0.898  -2.395  -0.511  0.00  0.00    +0.430 HD
ATOM      8  H   LIG    1       -2.330  -2.366   0.302  0.00  0.00    +0.440 HD
ATOM      9  N   LIG    1        0.806  -0.494   1.132  0.00  0.00    -0.630 N 
ATOM     10  C   LIG    1        1.552   0.351   1.871  0.00  0.00    +0.510 C 
ATOM     11  O   LIG    1        1.502   1.545   1.662  0.00  0.00    -0.490 OA
ENDROOT
BRANCH  10  12
ATOM     12  C   LIG    1        2.448  -0.187   2.957  0.00  0.00    +0.320 C 
BRANCH  12  13
ATOM     13  N   LIG    1        3.147   0.924   3.608  0.00  0.00    -0.590 N 
ATOM     14  C   LIG    1        4.436   1.349   3.070  0.00  0.00    +0.240 C 
ATOM     15  C   LIG    1        4.776   2.754   3.571  0.00  0.00    +0.240 C 
ATOM     16  N   LIG    1        4.612   2.786   5.033  0.00  0.00    -0.670 NA
ATOM     17  H   LIG    1        5.154   2.058   5.474  0.00  0.00    +0.350 HD
ATOM     18  C   LIG    1        3.191   2.672   5.386  0.00  0.00    +0.290 C 
ATOM     19  C   LIG    1        2.574   1.507   4.666  0.00  0.00    +0.490 C 
ATOM     20  O   LIG    1        1.515   1.071   5.066  0.00  0.00    -0.550 OA
ENDBRANCH  12  13
ENDBRANCH  10  12
TORSDOF 2
ENDMDL
MODEL       22
REMARK  Name = ZINC000306887878
REMARK                            x       y       z     vdW  Elec       q    Type
REMARK                         _______ _______ _______ _____ _____    ______ ____
ROOT
ATOM      1  C   LIG    1       -0.884  -0.460  -1.513  0.00  0.00    -0.460 C 
ATOM      2  C   LIG    1       -0.155   0.121  -2.728  0.00  0.00    +0.090 C 
ATOM      3  C   LIG    1       -0.873  -0.318  -4.006  0.00  0.00    +0.200 C 
ATOM      4  N   LIG    1       -0.892  -1.785  -4.079  0.00  0.00    -0.520 NA
ATOM      5  C   LIG    1       -1.628  -2.364  -2.948  0.00  0.00    +0.200 C 
ATOM      6  C   LIG    1       -0.933  -1.986  -1.638  0.00  0.00    +0.070 C 
ENDROOT
BRANCH   4   7
ATOM      7  C   LIG    1       -1.450  -2.241  -5.359  0.00  0.00    +0.140 C 
ATOM      8  C   LIG    1       -0.386  -2.498  -6.442  0.00  0.00    +0.320 C 
ATOM      9  N   LIG    1       -1.165  -3.710  -6.779  0.00  0.00    -0.530 N 
ATOM     10  H   LIG    1       -0.583  -4.506  -6.991  0.00  0.00    +0.430 HD
ATOM     11  H   LIG    1       -1.866  -3.544  -7.487  0.00  0.00    +0.440 HD
ATOM     12  C   LIG    1       -1.726  -3.754  -5.411  0.00  0.00    +0.310 C 
ENDBRANCH   4   7
BRANCH   1  13
ATOM     13  S   LIG    1        0.002  -0.004   0.002  0.00  0.00    +2.620 S 
ATOM     14  O   LIG    1       -0.751  -0.371   1.150  0.00  0.00    -0.950 OA
ATOM     15  O   LIG    1        1.380  -0.335  -0.107  0.00  0.00    -0.950 OA
BRANCH  13  16
ATOM     16  N   LIG    1       -0.020   1.652   0.011  0.00  0.00    -1.250 NA
ATOM     17  H   LIG    1       -0.867   2.125   0.018  0.00  0.00    +0.420 HD
ATOM     18  H   LIG    1        0.813   2.148   0.006  0.00  0.00    +0.420 HD
ENDBRANCH  13  16
ENDBRANCH   1  13
TORSDOF 3
ENDMDL
MODEL       23
REMARK  Name = ZINC000004097426
REMARK                            x       y       z     vdW  Elec       q    Type
REMARK                         _______ _______ _______ _____ _____    ______ ____
ROOT
ATOM      1  N   LIG    1       -2.147  -0.043  -1.095  0.00  0.00    -0.370 N 
ATOM      2  C   LIG    1       -2.168   1.424  -1.087  0.00  0.00    +0.290 C 
ATOM      3  C   LIG    1       -2.761   1.937  -2.402  0.00  0.00    +0.150 C 
ATOM      4  C   LIG    1       -4.189   1.406  -2.553  0.00  0.00    +0.110 C 
ATOM      5  C   LIG    1       -4.164  -0.124  -2.485  0.00  0.00    +0.210 C 
ATOM      6  C   LIG    1       -3.520  -0.559  -1.167  0.00  0.00    +0.190 C 
ATOM      7  H   LIG    1       -1.625  -0.367  -1.896  0.00  0.00    +0.430 HD
ENDROOT
BRANCH   5   8
ATOM      8  O   LIG    1       -5.500  -0.627  -2.553  0.00  0.00    -0.540 OA
ATOM      9  H   LIG    1       -5.970  -0.385  -3.362  0.00  0.00    +0.410 HD
ENDBRANCH   5   8
BRANCH   4  10
ATOM     10  O   LIG    1       -4.723   1.821  -3.812  0.00  0.00    -0.550 OA
ATOM     11  H   LIG    1       -4.763   2.781  -3.924  0.00  0.00    +0.400 HD
ENDBRANCH   4  10
BRANCH   3  12
ATOM     12  O   LIG    1       -2.781   3.366  -2.391  0.00  0.00    -0.540 OA
ATOM     13  H   LIG    1       -3.145   3.760  -3.195  0.00  0.00    +0.400 HD
ENDBRANCH   3  12
BRANCH   1  14
ATOM     14  C   LIG    1       -1.507  -0.529   0.134  0.00  0.00    +0.280 C 
BRANCH  14  15
ATOM     15  C   LIG    1       -0.027  -0.139   0.127  0.00  0.00    +0.220 C 
BRANCH  15  16
ATOM     16  O   LIG    1        0.093   1.275   0.299  0.00  0.00    -0.570 OA
ATOM     17  H   LIG    1        1.005   1.595   0.304  0.00  0.00    +0.410 HD
ENDBRANCH  15  16
ENDBRANCH  14  15
ENDBRANCH   1  14
BRANCH   6  18
ATOM     18  C   LIG    1       -3.491  -2.087  -1.094  0.00  0.00    +0.250 C 
BRANCH  18  19
ATOM     19  O   LIG    1       -2.798  -2.606  -2.231  0.00  0.00    -0.580 OA
ATOM     20  H   LIG    1       -2.741  -3.571  -2.250  0.00  0.00    +0.410 HD
ENDBRANCH  18  19
ENDBRANCH   6  18
TORSDOF 8
ENDMDL
MODEL       24
REMARK  Name = ZINC000003831131
REMARK                            x       y       z     vdW  Elec       q    Type
REMARK                         _______ _______ _______ _____ _____    ______ ____
ROOT
ATOM      1  N   LIG    1       -2.037  -0.024  -1.376  0.00  0.00    -0.360 N 
ATOM      2  C   LIG    1       -2.159   1.428  -1.555  0.00  0.00    +0.290 C 
ATOM      3  C   LIG    1       -2.759   1.727  -2.930  0.00  0.00    +0.150 C 
ATOM      4  C   LIG    1       -4.144   1.081  -3.029  0.00  0.00    +0.120 C 
ATOM      5  C   LIG    1       -4.014  -0.422  -2.767  0.00  0.00    +0.210 C 
ATOM      6  C   LIG    1       -3.369  -0.640  -1.397  0.00  0.00    +0.170 C 
ATOM      7  H   LIG    1       -1.478  -0.408  -2.122  0.00  0.00    +0.430 HD
ENDROOT
BRANCH   5   8
ATOM      8  O   LIG    1       -5.311  -1.023  -2.786  0.00  0.00    -0.510 OA
ATOM      9  H   LIG    1       -5.780  -0.919  -3.625  0.00  0.00    +0.390 HD
ENDBRANCH   5   8
BRANCH   4  10
ATOM     10  O   LIG    1       -5.013   1.664  -2.057  0.00  0.00    -0.530 OA
ATOM     11  H   LIG    1       -5.136   2.618  -2.161  0.00  0.00    +0.390 HD
ENDBRANCH   4  10
BRANCH   3  12
ATOM     12  O   LIG    1       -2.878   3.141  -3.102  0.00  0.00    -0.540 OA
ATOM     13  H   LIG    1       -3.252   3.404  -3.954  0.00  0.00    +0.410 HD
ENDBRANCH   3  12
BRANCH   1  14
ATOM     14  C   LIG    1       -1.390  -0.304  -0.087  0.00  0.00    +0.290 C 
BRANCH  14  15
ATOM     15  C   LIG    1       -1.155  -1.810   0.049  0.00  0.00    +0.210 C 
BRANCH  15  16
ATOM     16  O   LIG    1       -0.262  -2.247  -0.978  0.00  0.00    -0.580 OA
ATOM     17  H   LIG    1       -0.067  -3.194  -0.953  0.00  0.00    +0.410 HD
ENDBRANCH  15  16
ENDBRANCH  14  15
ENDBRANCH   1  14
BRANCH   6  18
ATOM     18  C   LIG    1       -4.244  -0.005  -0.315  0.00  0.00    +0.200 C 
BRANCH  18  19
ATOM     19  O   LIG    1       -5.577  -0.506  -0.425  0.00  0.00    -0.520 OA
ATOM     20  H   LIG    1       -6.189  -0.145   0.231  0.00  0.00    +0.390 HD
ENDBRANCH  18  19
ENDBRANCH   6  18
TORSDOF 8
ENDMDL
MODEL       25
REMARK  Name = ZINC000584880125
REMARK                            x       y       z     vdW  Elec       q    Type
REMARK                         _______ _______ _______ _____ _____    ______ ____
ROOT
ATOM      1  C   LIG    1       -1.249  -2.141   0.001  0.00  0.00    -0.140 C 
ATOM      2  C   LIG    1       -1.638  -2.837   1.307  0.00  0.00    +0.240 C 
ATOM      3  C   LIG    1       -2.620  -2.808   0.134  0.00  0.00    -0.460 C 
ENDROOT
BRANCH   3   4
ATOM      4  S   LIG    1       -2.890  -4.357  -0.771  0.00  0.00    +2.430 S 
ATOM      5  O   LIG    1       -2.034  -5.353  -0.229  0.00  0.00    -0.920 OA
ATOM      6  O   LIG    1       -2.839  -4.082  -2.164  0.00  0.00    -0.940 OA
ATOM      7  C   LIG    1       -4.601  -4.759  -0.324  0.00  0.00    -0.200 C 
ENDBRANCH   3   4
BRANCH   1   8
ATOM      8  C   LIG    1       -1.205  -0.635   0.001  0.00  0.00    +0.480 C 
ATOM      9  O   LIG    1       -2.234  -0.001   0.004  0.00  0.00    -0.460 OA
BRANCH   8  11
ATOM     10  C   LIG    1       -0.057   1.454  -0.001  0.00  0.00    +0.300 C 
ATOM     11  O   LIG    1       -0.024   0.002  -0.002  0.00  0.00    -0.360 OA
ENDBRANCH   8  11
ENDBRANCH   1   8
BRANCH   1  12
ATOM     12  C   LIG    1       -0.211  -2.832  -0.886  0.00  0.00    +0.340 C 
BRANCH  12  13
ATOM     13  N   LIG    1       -0.317  -2.315  -2.257  0.00  0.00    -0.640 N 
ATOM     14  H   LIG    1        0.306  -2.831  -2.860  0.00  0.00    +0.450 HD
ATOM     15  H   LIG    1       -0.064  -1.338  -2.269  0.00  0.00    +0.440 HD
ATOM     16  H   LIG    1       -1.265  -2.421  -2.584  0.00  0.00    +0.440 HD
ENDBRANCH  12  13
ENDBRANCH   1  12
TORSDOF 5
ENDMDL
MODEL       26
REMARK  Name = ZINC000082667112
REMARK                            x       y       z     vdW  Elec       q    Type
REMARK                         _______ _______ _______ _____ _____    ______ ____
ROOT
ATOM      1  C   LIG    1       -0.231  -3.829   1.225  0.00  0.00    +0.340 C 
ENDROOT
BRANCH   1   6
ATOM      2  C   LIG    1       -0.018   1.461   0.010  0.00  0.00    +0.340 C 
ATOM      3  N   LIG    1        0.002  -0.004   0.002  0.00  0.00    -1.010 NA
ATOM      4  C   LIG    1        0.009  -0.890  -1.173  0.00  0.00    +0.270 C 
ATOM      5  C   LIG    1        0.540  -2.267  -0.762  0.00  0.00    +0.280 C 
ATOM      6  N   LIG    1        0.087  -2.535   0.617  0.00  0.00    -1.000 NA
ATOM      7  S   LIG    1        0.029  -1.023   1.324  0.00  0.00    +2.770 S 
ATOM      8  O   LIG    1       -1.238  -0.906   1.957  0.00  0.00    -0.970 OA
ATOM      9  O   LIG    1        1.268  -0.825   1.990  0.00  0.00    -0.970 OA
ENDBRANCH   1   6
BRANCH   1  10
ATOM     10  C   LIG    1        1.052  -4.475   1.751  0.00  0.00    +0.190 C 
BRANCH  10  11
ATOM     11  N   LIG    1        0.733  -5.773   2.361  0.00  0.00    -0.530 NA
ATOM     12  C   LIG    1       -0.432  -5.665   3.249  0.00  0.00    +0.210 C 
ATOM     13  C   LIG    1       -0.767  -7.046   3.816  0.00  0.00    +0.280 C 
ATOM     14  N   LIG    1        0.389  -7.565   4.559  0.00  0.00    -0.510 N 
ATOM     15  C   LIG    1        1.538  -7.690   3.653  0.00  0.00    +0.280 C 
ATOM     16  H   LIG    1        0.164  -8.470   4.943  0.00  0.00    +0.440 HD
ATOM     17  H   LIG    1        0.620  -6.929   5.308  0.00  0.00    +0.430 HD
ATOM     18  C   LIG    1        1.893  -6.314   3.084  0.00  0.00    +0.210 C 
ENDBRANCH  10  11
ENDBRANCH   1  10
TORSDOF 3
ENDMDL
MODEL       27
REMARK  Name = ZINC000022865445
REMARK                            x       y       z     vdW  Elec       q    Type
REMARK                         _______ _______ _______ _____ _____    ______ ____
ROOT
ATOM      1  C   LIG    1        2.243  -4.430  -1.233  0.00  0.00    +0.200 A 
ATOM      2  C   LIG    1        1.624  -5.059  -2.254  0.00  0.00    -0.110 A 
ATOM      3  C   LIG    1        2.387  -5.477  -3.371  0.00  0.00    +0.550 A 
ATOM      4  N   LIG    1        3.714  -5.239  -3.391  0.00  0.00    -0.660 N 
ATOM      5  H   LIG    1        4.244  -5.522  -4.153  0.00  0.00    +0.440 HD
ATOM      6  C   LIG    1        4.307  -4.610  -2.360  0.00  0.00    +0.700 A 
ATOM      7  O   LIG    1        5.504  -4.402  -2.392  0.00  0.00    -0.530 OA
ATOM      8  O   LIG    1        1.850  -6.046  -4.304  0.00  0.00    -0.500 OA
ATOM      9  N   LIG    1        3.591  -4.203  -1.295  0.00  0.00    -0.630 N 
ATOM     10  H   LIG    1        4.037  -3.751  -0.561  0.00  0.00    +0.440 HD
ENDROOT
BRANCH   1  11
ATOM     11  C   LIG    1        1.453  -3.974  -0.033  0.00  0.00    +0.290 C 
BRANCH  11  16
ATOM     12  C   LIG    1        0.399   1.539   0.463  0.00  0.00    +0.330 C 
ATOM     13  N   LIG    1        0.312   0.074   0.393  0.00  0.00    -0.390 N 
ATOM     14  C   LIG    1        1.163  -0.517   1.434  0.00  0.00    +0.280 C 
ATOM     15  C   LIG    1        1.059  -2.042   1.373  0.00  0.00    +0.230 C 
ATOM     16  N   LIG    1        1.485  -2.508   0.046  0.00  0.00    -0.540 NA
ATOM     17  C   LIG    1        0.658  -1.905  -1.009  0.00  0.00    +0.210 C 
ATOM     18  C   LIG    1        0.766  -0.381  -0.928  0.00  0.00    +0.280 C 
ATOM     19  H   LIG    1       -0.644  -0.214   0.537  0.00  0.00    +0.420 HD
ENDBRANCH  11  16
ENDBRANCH   1  11
TORSDOF 2
ENDMDL
MODEL       28
REMARK  Name = ZINC000041157960
REMARK                            x       y       z     vdW  Elec       q    Type
REMARK                         _______ _______ _______ _____ _____    ______ ____
ROOT
ATOM      1  C   LIG    1        1.485  -3.733   1.916  0.00  0.00    +0.510 C 
ATOM      2  N   LIG    1        1.750  -4.798   2.699  0.00  0.00    -0.630 N 
ATOM      3  C   LIG    1        0.662  -5.602   3.276  0.00  0.00    +0.320 C 
ATOM      4  C   LIG    1        0.937  -7.079   2.972  0.00  0.00    +0.270 C 
ATOM      5  N   LIG    1        2.277  -7.436   3.455  0.00  0.00    -0.510 N 
ATOM      6  C   LIG    1        3.294  -6.684   2.710  0.00  0.00    +0.270 C 
ATOM      7  H   LIG    1        2.428  -8.425   3.322  0.00  0.00    +0.440 HD
ATOM      8  H   LIG    1        2.349  -7.215   4.437  0.00  0.00    +0.430 HD
ATOM      9  C   LIG    1        3.136  -5.191   2.996  0.00  0.00    +0.330 C 
ATOM     10  O   LIG    1        2.395  -3.085   1.445  0.00  0.00    -0.490 OA
ENDROOT
BRANCH   1  11
ATOM     11  C   LIG    1        0.057  -3.349   1.625  0.00  0.00    +0.360 C 
BRANCH  11  16
ATOM     12  C   LIG    1       -0.018   1.503   0.010  0.00  0.00    +0.160 C 
ATOM     13  C   LIG    1        0.002  -0.004   0.002  0.00  0.00    -0.100 C 
ATOM     14  C   LIG    1        0.009  -0.799  -1.081  0.00  0.00    +0.040 C 
ATOM     15  C   LIG    1        0.030  -2.194  -0.587  0.00  0.00    +0.550 C 
ATOM     16  N   LIG    1        0.036  -2.168   0.758  0.00  0.00    -0.580 N 
ATOM     17  O   LIG    1        0.042  -3.192  -1.278  0.00  0.00    -0.460 OA
ATOM     18  C   LIG    1        0.025  -0.893   1.185  0.00  0.00    +0.550 C 
ATOM     19  O   LIG    1        0.027  -0.532   2.344  0.00  0.00    -0.450 OA
ENDBRANCH  11  16
ENDBRANCH   1  11
TORSDOF 2
ENDMDL
MODEL       29
REMARK  Name = ZINC000011755706
REMARK                            x       y       z     vdW  Elec       q    Type
REMARK                         _______ _______ _______ _____ _____    ______ ____
ROOT
ATOM      1  S   LIG    1       -1.014  -3.897   1.717  0.00  0.00    +2.620 S 
ATOM      2  O   LIG    1       -2.429  -3.785   1.654  0.00  0.00    -0.930 OA
ATOM      3  O   LIG    1       -0.322  -3.764   2.951  0.00  0.00    -0.930 OA
ENDROOT
BRANCH   1   8
ATOM      4  C   LIG    1       -0.018   1.465   0.010  0.00  0.00    +0.190 C 
ATOM      5  N   LIG    1        0.002  -0.004   0.002  0.00  0.00    -0.540 NA
ATOM      6  C   LIG    1       -1.359  -0.548  -0.091  0.00  0.00    +0.170 C 
ATOM      7  C   LIG    1       -1.286  -2.068  -0.279  0.00  0.00    +0.300 C 
ATOM      8  N   LIG    1       -0.463  -2.633   0.801  0.00  0.00    -0.990 NA
ATOM      9  C   LIG    1        0.864  -2.046   1.044  0.00  0.00    +0.300 C 
ATOM     10  C   LIG    1        0.706  -0.527   1.180  0.00  0.00    +0.170 C 
ENDBRANCH   1   8
BRANCH   1  11
ATOM     11  C   LIG    1       -0.453  -5.377   0.830  0.00  0.00    -0.380 C 
BRANCH  11  12
ATOM     12  C   LIG    1       -0.905  -6.628   1.587  0.00  0.00    +0.310 C 
BRANCH  12  13
ATOM     13  N   LIG    1       -0.451  -7.826   0.869  0.00  0.00    -0.630 N 
ATOM     14  H   LIG    1       -0.847  -7.832  -0.059  0.00  0.00    +0.440 HD
ATOM     15  H   LIG    1       -0.750  -8.650   1.368  0.00  0.00    +0.440 HD
ATOM     16  H   LIG    1        0.556  -7.818   0.805  0.00  0.00    +0.440 HD
ENDBRANCH  12  13
ENDBRANCH  11  12
ENDBRANCH   1  11
TORSDOF 4
ENDMDL
MODEL       30
REMARK  Name = ZINC000012481152
REMARK                            x       y       z     vdW  Elec       q    Type
REMARK                         _______ _______ _______ _____ _____    ______ ____
ROOT
ATOM      1  S   LIG    1       -1.014  -3.897   1.717  0.00  0.00    +2.780 S 
ATOM      2  O   LIG    1       -2.432  -3.864   1.636  0.00  0.00    -0.950 OA
ATOM      3  O   LIG    1       -0.304  -3.841   2.947  0.00  0.00    -0.950 OA
ENDROOT
BRANCH   1   4
ATOM      4  N   LIG    1       -0.536  -5.293   0.964  0.00  0.00    -1.020 NA
ATOM      5  C   LIG    1       -1.389  -5.938  -0.045  0.00  0.00    +0.330 C 
ATOM      6  C   LIG    1       -0.543  -6.214  -1.292  0.00  0.00    +0.270 C 
ATOM      7  N   LIG    1        0.644  -6.993  -0.915  0.00  0.00    -0.500 N 
ATOM      8  C   LIG    1        1.500  -6.199  -0.024  0.00  0.00    +0.270 C 
ATOM      9  H   LIG    1        1.162  -7.237  -1.745  0.00  0.00    +0.440 HD
ATOM     10  H   LIG    1        0.355  -7.835  -0.440  0.00  0.00    +0.430 HD
ATOM     11  C   LIG    1        0.757  -5.919   1.282  0.00  0.00    +0.320 C 
ENDBRANCH   1   4
BRANCH   1  16
ATOM     12  C   LIG    1       -0.018   1.465   0.010  0.00  0.00    +0.190 C 
ATOM     13  N   LIG    1        0.002  -0.004   0.002  0.00  0.00    -0.540 NA
ATOM     14  C   LIG    1       -1.359  -0.548  -0.091  0.00  0.00    +0.170 C 
ATOM     15  C   LIG    1       -1.286  -2.068  -0.279  0.00  0.00    +0.300 C 
ATOM     16  N   LIG    1       -0.463  -2.633   0.801  0.00  0.00    -1.010 NA
ATOM     17  C   LIG    1        0.864  -2.046   1.044  0.00  0.00    +0.300 C 
ATOM     18  C   LIG    1        0.706  -0.527   1.180  0.00  0.00    +0.170 C 
ENDBRANCH   1  16
TORSDOF 2
ENDMDL
MODEL       31
REMARK  Name = ZINC000022922167
REMARK                            x       y       z     vdW  Elec       q    Type
REMARK                         _______ _______ _______ _____ _____    ______ ____
ROOT
ATOM      1  C   LIG    1       -0.798  -4.080   1.481  0.00  0.00    +0.120 C 
ATOM      2  C   LIG    1       -0.224  -4.532   0.130  0.00  0.00    +0.380 C 
ATOM      3  O   LIG    1        0.006  -5.952   0.190  0.00  0.00    -0.340 OA
ATOM      4  C   LIG    1        1.340  -6.139   0.696  0.00  0.00    +0.250 C 
ATOM      5  C   LIG    1        1.898  -4.709   0.889  0.00  0.00    +0.180 C 
ATOM      6  C   LIG    1        1.568  -4.269   2.325  0.00  0.00    +0.140 C 
ATOM      7  O   LIG    1        1.070  -3.909  -0.024  0.00  0.00    -0.350 OA
ATOM      8  C   LIG    1        0.100  -4.610   2.605  0.00  0.00    +0.190 C 
ENDROOT
BRANCH   1  13
ATOM      9  C   LIG    1       -2.148   1.401   1.682  0.00  0.00    +0.210 C 
ATOM     10  N   LIG    1       -2.108  -0.067   1.630  0.00  0.00    -0.540 NA
ATOM     11  C   LIG    1       -1.442  -0.618   2.818  0.00  0.00    +0.180 C 
ATOM     12  C   LIG    1       -1.492  -2.147   2.764  0.00  0.00    +0.190 C 
ATOM     13  N   LIG    1       -0.838  -2.613   1.534  0.00  0.00    -0.550 NA
ATOM     14  C   LIG    1       -1.503  -2.061   0.345  0.00  0.00    +0.210 C 
ATOM     15  C   LIG    1       -1.454  -0.532   0.399  0.00  0.00    +0.180 C 
ENDBRANCH   1  13
BRANCH   6  16
ATOM     16  N   LIG    1        1.747  -2.816   2.449  0.00  0.00    -0.620 N 
ATOM     17  H   LIG    1        2.725  -2.588   2.351  0.00  0.00    +0.430 HD
ATOM     18  H   LIG    1        1.420  -2.513   3.354  0.00  0.00    +0.430 HD
ATOM     19  H   LIG    1        1.219  -2.349   1.726  0.00  0.00    +0.440 HD
ENDBRANCH   6  16
BRANCH   8  20
ATOM     20  O   LIG    1       -0.060  -6.029   2.649  0.00  0.00    -0.520 OA
ATOM     21  H   LIG    1        0.469  -6.463   3.332  0.00  0.00    +0.390 HD
ENDBRANCH   8  20
TORSDOF 3
ENDMDL
MODEL       32
REMARK  Name = ZINC000020465104
REMARK                            x       y       z     vdW  Elec       q    Type
REMARK                         _______ _______ _______ _____ _____    ______ ____
ROOT
ATOM      1  C   LIG    1       -0.627  -4.037   1.063  0.00  0.00    +0.190 C 
ATOM      2  C   LIG    1        0.241  -4.605   2.207  0.00  0.00    +0.150 C 
ATOM      3  O   LIG    1       -0.697  -4.919   3.260  0.00  0.00    -0.360 OA
ATOM      4  C   LIG    1       -1.841  -5.494   2.592  0.00  0.00    +0.140 C 
ATOM      5  C   LIG    1       -2.029  -4.635   1.318  0.00  0.00    +0.130 C 
ENDROOT
BRANCH   1  10
ATOM      6  C   LIG    1       -1.997   1.432   1.409  0.00  0.00    +0.190 C 
ATOM      7  N   LIG    1       -1.951  -0.035   1.341  0.00  0.00    -0.540 NA
ATOM      8  C   LIG    1       -1.198  -0.591   2.473  0.00  0.00    +0.170 C 
ATOM      9  C   LIG    1       -1.241  -2.120   2.409  0.00  0.00    +0.200 C 
ATOM     10  N   LIG    1       -0.673  -2.570   1.131  0.00  0.00    -0.520 NA
ATOM     11  C   LIG    1       -1.427  -2.014  -0.002  0.00  0.00    +0.210 C 
ATOM     12  C   LIG    1       -1.384  -0.485   0.062  0.00  0.00    +0.180 C 
ENDBRANCH   1  10
BRANCH   5  13
ATOM     13  O   LIG    1       -2.984  -3.598   1.550  0.00  0.00    -0.530 OA
ATOM     14  H   LIG    1       -3.867  -3.920   1.776  0.00  0.00    +0.380 HD
ENDBRANCH   5  13
BRANCH   4  15
ATOM     15  C   LIG    1       -3.079  -5.405   3.485  0.00  0.00    +0.220 C 
BRANCH  15  16
ATOM     16  O   LIG    1       -2.902  -6.240   4.631  0.00  0.00    -0.570 OA
ATOM     17  H   LIG    1       -3.650  -6.233   5.243  0.00  0.00    +0.390 HD
ENDBRANCH  15  16
ENDBRANCH   4  15
BRANCH   2  18
ATOM     18  C   LIG    1        1.248  -3.556   2.683  0.00  0.00    +0.300 C 
BRANCH  18  19
ATOM     19  N   LIG    1        2.163  -4.163   3.659  0.00  0.00    -0.640 N 
ATOM     20  H   LIG    1        2.656  -4.930   3.226  0.00  0.00    +0.430 HD
ATOM     21  H   LIG    1        1.635  -4.504   4.448  0.00  0.00    +0.440 HD
ATOM     22  H   LIG    1        2.827  -3.471   3.972  0.00  0.00    +0.440 HD
ENDBRANCH  18  19
ENDBRANCH   2  18
TORSDOF 6
ENDMDL
MODEL       33
REMARK  Name = ZINC000154375455
REMARK                            x       y       z     vdW  Elec       q    Type
REMARK                         _______ _______ _______ _____ _____    ______ ____
ROOT
ATOM      1  C   LIG    1       -1.293  -0.780   0.009  0.00  0.00    +0.150 C 
ATOM      2  C   LIG    1       -2.032  -0.522   1.327  0.00  0.00    +0.310 C 
ATOM      3  N   LIG    1       -3.191  -1.425   1.394  0.00  0.00    -0.590 N 
ATOM      4  C   LIG    1       -2.967  -2.858   1.143  0.00  0.00    +0.260 C 
ATOM      5  C   LIG    1       -2.183  -3.002  -0.166  0.00  0.00    +0.230 C 
ATOM      6  C   LIG    1       -4.422  -0.955   1.678  0.00  0.00    +0.510 C 
ATOM      7  O   LIG    1       -4.572   0.212   1.974  0.00  0.00    -0.520 OA
ATOM      8  O   LIG    1       -1.017  -2.178  -0.111  0.00  0.00    -0.340 OA
ENDROOT
BRANCH   6   9
ATOM      9  C   LIG    1       -5.612  -1.878   1.627  0.00  0.00    +0.170 C 
ATOM     10  C   LIG    1       -5.742  -2.616   2.961  0.00  0.00    +0.080 C 
ATOM     11  C   LIG    1       -6.952  -3.553   2.904  0.00  0.00    +0.050 C 
ATOM     12  C   LIG    1       -8.202  -2.736   2.569  0.00  0.00    +0.060 C 
ATOM     13  C   LIG    1       -7.981  -1.993   1.249  0.00  0.00    +0.260 C 
ATOM     14  N   LIG    1       -6.828  -1.095   1.377  0.00  0.00    -0.490 N 
ATOM     15  H   LIG    1       -6.716  -0.568   0.524  0.00  0.00    +0.430 HD
ATOM     16  H   LIG    1       -6.981  -0.459   2.146  0.00  0.00    +0.440 HD
ENDBRANCH   6   9
BRANCH   1  20
ATOM     17  N   LIG    1       -0.018   1.339  -0.001  0.00  0.00    -0.850 N 
ATOM     18  H   LIG    1       -0.865   1.813   0.004  0.00  0.00    +0.400 HD
ATOM     19  H   LIG    1        0.815   1.836  -0.009  0.00  0.00    +0.410 HD
ATOM     20  C   LIG    1        0.001  -0.008  -0.003  0.00  0.00    +0.520 C 
ATOM     21  O   LIG    1        1.060  -0.600  -0.014  0.00  0.00    -0.500 OA
ENDBRANCH   1  20
TORSDOF 2
ENDMDL
MODEL       34
REMARK  Name = ZINC000003010509
REMARK                            x       y       z     vdW  Elec       q    Type
REMARK                         _______ _______ _______ _____ _____    ______ ____
ROOT
ATOM      1  N   LIG    1       -0.930  -2.548   1.294  0.00  0.00    -0.680 N 
ATOM      2  H   LIG    1       -1.018  -1.998   2.087  0.00  0.00    +0.420 HD
ATOM      3  C   LIG    1       -0.359  -3.766   1.378  0.00  0.00    +0.510 C 
ATOM      4  O   LIG    1       -0.250  -4.454   0.385  0.00  0.00    -0.510 OA
ENDROOT
BRANCH   1   5
ATOM      5  C   LIG    1       -1.419  -2.055   0.003  0.00  0.00    +0.250 C 
BRANCH   5   6
ATOM      6  C   LIG    1       -2.816  -2.568  -0.234  0.00  0.00    +0.510 C 
ATOM      7  O   LIG    1       -3.351  -3.275   0.594  0.00  0.00    -0.540 OA
ATOM      8  N   LIG    1       -3.471  -2.240  -1.365  0.00  0.00    -0.840 N 
ATOM      9  H   LIG    1       -4.371  -2.570  -1.518  0.00  0.00    +0.410 HD
ATOM     10  H   LIG    1       -3.043  -1.675  -2.027  0.00  0.00    +0.410 HD
ENDBRANCH   5   6
BRANCH   5  11
ATOM     11  C   LIG    1       -1.431  -0.526   0.013  0.00  0.00    +0.050 C 
BRANCH  11  13
ATOM     12  C   LIG    1        0.799  -0.378  -1.104  0.00  0.00    +0.010 C 
ATOM     13  C   LIG    1        0.001  -0.005   0.147  0.00  0.00    -0.020 C 
ATOM     14  C   LIG    1       -0.022   1.517   0.302  0.00  0.00    +0.030 C 
ENDBRANCH  11  13
ENDBRANCH   5  11
ENDBRANCH   1   5
BRANCH   3  15
ATOM     15  CA  LIG    1        0.143  -4.273   2.705  0.00  0.00    +0.190 C 
BRANCH  15  16
ATOM     16  N   LIG    1        0.269  -5.735   2.655  0.00  0.00    -0.620 N 
ATOM     17  H1  LIG    1       -0.633  -6.144   2.459  0.00  0.00    +0.440 HD
ATOM     18  H2  LIG    1        0.605  -6.074   3.544  0.00  0.00    +0.450 HD
ATOM     19  H3  LIG    1        0.920  -5.992   1.929  0.00  0.00    +0.440 HD
ENDBRANCH  15  16
BRANCH  15  20
ATOM     20  C   LIG    1        1.510  -3.653   3.003  0.00  0.00    +0.240 C 
BRANCH  20  21
ATOM     21  O   LIG    1        1.934  -4.041   4.311  0.00  0.00    -0.570 OA
ATOM     22  H   LIG    1        2.795  -3.684   4.568  0.00  0.00    +0.420 HD
ENDBRANCH  20  21
ENDBRANCH  15  20
ENDBRANCH   3  15
TORSDOF 8
ENDMDL
MODEL       35
REMARK  Name = ZINC000071877187
REMARK                            x       y       z     vdW  Elec       q    Type
REMARK                         _______ _______ _______ _____ _____    ______ ____
ROOT
ATOM      1  N   LIG    1        1.402  -4.080   2.324  0.00  0.00    -0.500 N 
ATOM      2  H   LIG    1        1.800  -4.418   1.460  0.00  0.00    +0.440 HD
ATOM      3  H   LIG    1        0.443  -4.385   2.394  0.00  0.00    +0.430 HD
ENDROOT
BRANCH   1   4
ATOM      4  C   LIG    1        1.451  -2.612   2.345  0.00  0.00    +0.290 C 
BRANCH   4  10
ATOM      5  C   LIG    1       -0.018   1.465   0.010  0.00  0.00    +0.210 C 
ATOM      6  N   LIG    1        0.002  -0.004   0.002  0.00  0.00    -0.540 NA
ATOM      7  C   LIG    1        0.607  -0.516  -1.236  0.00  0.00    +0.160 C 
ATOM      8  C   LIG    1        0.553  -2.046  -1.230  0.00  0.00    +0.250 C 
ATOM      9  O   LIG    1        1.216  -2.536  -0.061  0.00  0.00    -0.400 OA
ATOM     10  C   LIG    1        0.652  -2.058   1.164  0.00  0.00    +0.150 C 
ATOM     11  C   LIG    1        0.707  -0.528   1.181  0.00  0.00    +0.180 C 
ENDBRANCH   4  10
ENDBRANCH   1   4
BRANCH   1  12
ATOM     12  C   LIG    1        2.169  -4.612   3.458  0.00  0.00    +0.310 C 
BRANCH  12  13
ATOM     13  C   LIG    1        2.117  -6.141   3.436  0.00  0.00    -0.360 C 
BRANCH  13  14
ATOM     14  S   LIG    1        3.065  -6.798   4.837  0.00  0.00    +2.440 S 
ATOM     15  O   LIG    1        2.415  -6.418   6.042  0.00  0.00    -0.920 OA
ATOM     16  O   LIG    1        4.434  -6.466   4.652  0.00  0.00    -0.920 OA
ATOM     17  C   LIG    1        2.869  -8.588   4.615  0.00  0.00    -0.250 C 
ENDBRANCH  13  14
ENDBRANCH  12  13
ENDBRANCH   1  12
TORSDOF 5
ENDMDL
MODEL       36
REMARK  Name = ZINC000005167384
REMARK                            x       y       z     vdW  Elec       q    Type
REMARK                         _______ _______ _______ _____ _____    ______ ____
ROOT
ATOM      1  C   LIG    1        0.020  -2.136  -1.177  0.00  0.00    +0.250 C 
ATOM      2  C   LIG    1       -1.409  -2.668  -1.043  0.00  0.00    +0.270 C 
ATOM      3  N   LIG    1       -1.392  -4.135  -1.053  0.00  0.00    -0.490 N 
ATOM      4  CA  LIG    1       -0.883  -4.619  -2.342  0.00  0.00    +0.200 C 
ATOM      5  C   LIG    1        0.566  -4.162  -2.526  0.00  0.00    +0.170 C 
ATOM      6  H1  LIG    1       -2.329  -4.482  -0.912  0.00  0.00    +0.450 HD
ATOM      7  H2  LIG    1       -0.795  -4.469  -0.311  0.00  0.00    +0.430 HD
ATOM      8  C   LIG    1        0.622  -2.632  -2.495  0.00  0.00    +0.150 C 
ENDROOT
BRANCH   1  11
ATOM      9  C   LIG    1       -0.018   1.503   0.010  0.00  0.00    +0.110 C 
ATOM     10  C   LIG    1        0.002  -0.004   0.002  0.00  0.00    +0.520 C 
ATOM     11  N   LIG    1        0.000  -0.672  -1.169  0.00  0.00    -0.720 N 
ATOM     12  H   LIG    1       -0.015  -0.182  -2.006  0.00  0.00    +0.420 HD
ATOM     13  O   LIG    1        0.020  -0.616   1.049  0.00  0.00    -0.540 OA
ENDBRANCH   1  11
BRANCH   5  14
ATOM     14  O   LIG    1        1.058  -4.633  -3.783  0.00  0.00    -0.540 OA
ATOM     15  H   LIG    1        1.973  -4.380  -3.966  0.00  0.00    +0.400 HD
ENDBRANCH   5  14
BRANCH   8  16
ATOM     16  O   LIG    1        1.982  -2.203  -2.594  0.00  0.00    -0.540 OA
ATOM     17  H   LIG    1        2.426  -2.487  -3.404  0.00  0.00    +0.390 HD
ENDBRANCH   8  16
BRANCH   4  18
ATOM     18  C   LIG    1       -0.943  -6.147  -2.373  0.00  0.00    +0.240 C 
BRANCH  18  19
ATOM     19  O   LIG    1       -2.307  -6.571  -2.321  0.00  0.00    -0.580 OA
ATOM     20  H   LIG    1       -2.421  -7.532  -2.337  0.00  0.00    +0.410 HD
ENDBRANCH  18  19
ENDBRANCH   4  18
TORSDOF 5
ENDMDL
MODEL       37
REMARK  Name = ZINC000071877186
REMARK                            x       y       z     vdW  Elec       q    Type
REMARK                         _______ _______ _______ _____ _____    ______ ____
ROOT
ATOM      1  N   LIG    1        1.568  -4.068   2.238  0.00  0.00    -0.500 N 
ATOM      2  H   LIG    1        2.144  -4.278   1.436  0.00  0.00    +0.430 HD
ATOM      3  H   LIG    1        0.660  -4.491   2.119  0.00  0.00    +0.440 HD
ENDROOT
BRANCH   1   4
ATOM      4  C   LIG    1        1.417  -2.612   2.365  0.00  0.00    +0.290 C 
BRANCH   4  10
ATOM      5  C   LIG    1       -0.018   1.465   0.010  0.00  0.00    +0.210 C 
ATOM      6  N   LIG    1        0.002  -0.004   0.002  0.00  0.00    -0.540 NA
ATOM      7  C   LIG    1       -1.361  -0.549  -0.075  0.00  0.00    +0.160 C 
ATOM      8  C   LIG    1       -1.291  -2.077  -0.141  0.00  0.00    +0.250 C 
ATOM      9  O   LIG    1       -0.576  -2.566   0.997  0.00  0.00    -0.390 OA
ATOM     10  C   LIG    1        0.756  -2.056   1.102  0.00  0.00    +0.150 C 
ATOM     11  C   LIG    1        0.707  -0.528   1.181  0.00  0.00    +0.180 C 
ENDBRANCH   4  10
ENDBRANCH   1   4
BRANCH   1  12
ATOM     12  C   LIG    1        2.203  -4.603   3.450  0.00  0.00    +0.310 C 
BRANCH  12  13
ATOM     13  C   LIG    1        2.360  -6.119   3.317  0.00  0.00    -0.360 C 
BRANCH  13  14
ATOM     14  S   LIG    1        3.145  -6.778   4.814  0.00  0.00    +2.440 S 
ATOM     15  O   LIG    1        2.261  -6.587   5.910  0.00  0.00    -0.920 OA
ATOM     16  O   LIG    1        4.469  -6.269   4.893  0.00  0.00    -0.920 OA
ATOM     17  C   LIG    1        3.228  -8.552   4.442  0.00  0.00    -0.250 C 
ENDBRANCH  13  14
ENDBRANCH  12  13
ENDBRANCH   1  12
TORSDOF 5
ENDMDL
MODEL       38
REMARK  Name = ZINC000003887471
REMARK                            x       y       z     vdW  Elec       q    Type
REMARK                         _______ _______ _______ _____ _____    ______ ____
ROOT
ATOM      1  C   LIG    1        1.415  -2.433  -2.455  0.00  0.00    +0.500 C 
ATOM      2  N   LIG    1        1.554  -3.755  -2.676  0.00  0.00    -0.690 N 
ATOM      3  H   LIG    1        1.200  -4.394  -2.038  0.00  0.00    +0.420 HD
ATOM      4  O   LIG    1        1.857  -1.634  -3.253  0.00  0.00    -0.520 OA
ENDROOT
BRANCH   2   5
ATOM      5  C   LIG    1        2.240  -4.227  -3.882  0.00  0.00    +0.270 C 
ATOM      6  C   LIG    1        1.240  -4.341  -5.046  0.00  0.00    +0.060 C 
ATOM      7  C   LIG    1        1.896  -5.149  -6.183  0.00  0.00    -0.290 C 
ATOM      8  S   LIG    1        3.094  -6.254  -5.352  0.00  0.00    +2.400 S 
ATOM      9  O   LIG    1        4.412  -5.912  -5.762  0.00  0.00    -0.920 OA
ATOM     10  O   LIG    1        2.647  -7.598  -5.457  0.00  0.00    -0.920 OA
ATOM     11  C   LIG    1        2.810  -5.649  -3.645  0.00  0.00    -0.320 C 
ENDBRANCH   2   5
BRANCH   1  12
ATOM     12  C   LIG    1        0.710  -1.947  -1.215  0.00  0.00    +0.290 C 
BRANCH  12  13
ATOM     13  N   LIG    1        0.690  -0.478  -1.207  0.00  0.00    -0.500 N 
ATOM     14  H   LIG    1        1.636  -0.129  -1.214  0.00  0.00    +0.440 HD
ATOM     15  H   LIG    1        0.202  -0.144  -2.024  0.00  0.00    +0.440 HD
BRANCH  13  17
ATOM     16  C   LIG    1       -0.019   1.526   0.010  0.00  0.00    +0.080 C 
ATOM     17  C   LIG    1        0.002  -0.004   0.002  0.00  0.00    +0.250 C 
ENDBRANCH  13  17
ENDBRANCH  12  13
ENDBRANCH   1  12
TORSDOF 4
ENDMDL
MODEL       39
REMARK  Name = ZINC000041105085
REMARK                            x       y       z     vdW  Elec       q    Type
REMARK                         _______ _______ _______ _____ _____    ______ ____
ROOT
ATOM      1  C   LIG    1       -0.018   1.461   0.010  0.00  0.00    +0.350 C 
ATOM      2  N   LIG    1        0.002  -0.004   0.002  0.00  0.00    -0.550 N 
ATOM      3  C   LIG    1        0.006  -0.669  -1.168  0.00  0.00    +0.700 A 
ATOM      4  N   LIG    1        0.025  -2.013  -1.199  0.00  0.00    -0.630 N 
ATOM      5  H   LIG    1        0.027  -2.472  -2.053  0.00  0.00    +0.430 HD
ATOM      6  C   LIG    1        0.040  -2.742  -0.037  0.00  0.00    +0.100 A 
ATOM      7  C   LIG    1        0.036  -2.100   1.149  0.00  0.00    -0.180 A 
ATOM      8  C   LIG    1        0.055  -3.096   2.287  0.00  0.00    +0.150 C 
ATOM      9  C   LIG    1       -0.363  -4.439   1.649  0.00  0.00    +0.120 C 
ATOM     10  C   LIG    1        0.062  -4.240   0.178  0.00  0.00    +0.250 C 
ATOM     11  O   LIG    1       -0.008  -0.046  -2.212  0.00  0.00    -0.510 OA
ATOM     12  C   LIG    1        0.022  -0.682   1.166  0.00  0.00    +0.550 A 
ATOM     13  O   LIG    1        0.019  -0.082   2.226  0.00  0.00    -0.470 OA
ENDROOT
BRANCH  10  14
ATOM     14  N   LIG    1        1.416  -4.768  -0.038  0.00  0.00    -0.500 N 
ATOM     15  H   LIG    1        1.451  -5.733   0.256  0.00  0.00    +0.450 HD
ATOM     16  H   LIG    1        2.078  -4.229   0.499  0.00  0.00    +0.430 HD
BRANCH  14  17
ATOM     17  C   LIG    1        1.755  -4.678  -1.465  0.00  0.00    +0.270 C 
BRANCH  17  18
ATOM     18  C   LIG    1        3.164  -5.229  -1.690  0.00  0.00    +0.220 C 
BRANCH  18  19
ATOM     19  O   LIG    1        3.185  -6.624  -1.384  0.00  0.00    -0.580 OA
ATOM     20  H   LIG    1        4.050  -7.041  -1.504  0.00  0.00    +0.410 HD
ENDBRANCH  18  19
ENDBRANCH  17  18
ENDBRANCH  14  17
ENDBRANCH  10  14
TORSDOF 4
ENDMDL
MODEL       40
REMARK  Name = ZINC000003887472
REMARK                            x       y       z     vdW  Elec       q    Type
REMARK                         _______ _______ _______ _____ _____    ______ ____
ROOT
ATOM      1  C   LIG    1        1.415  -2.433  -2.455  0.00  0.00    +0.500 C 
ATOM      2  N   LIG    1        1.554  -3.755  -2.676  0.00  0.00    -0.700 N 
ATOM      3  H   LIG    1        1.200  -4.394  -2.038  0.00  0.00    +0.420 HD
ATOM      4  O   LIG    1        1.857  -1.634  -3.253  0.00  0.00    -0.520 OA
ENDROOT
BRANCH   2   5
ATOM      5  C   LIG    1        2.240  -4.227  -3.882  0.00  0.00    +0.270 C 
ATOM      6  C   LIG    1        3.756  -4.288  -3.624  0.00  0.00    +0.070 C 
ATOM      7  C   LIG    1        4.372  -5.096  -4.795  0.00  0.00    -0.290 C 
ATOM      8  S   LIG    1        3.183  -6.475  -4.998  0.00  0.00    +2.400 S 
ATOM      9  O   LIG    1        3.583  -7.566  -4.181  0.00  0.00    -0.920 OA
ATOM     10  O   LIG    1        2.933  -6.682  -6.382  0.00  0.00    -0.920 OA
ATOM     11  C   LIG    1        1.744  -5.643  -4.239  0.00  0.00    -0.320 C 
ENDBRANCH   2   5
BRANCH   1  12
ATOM     12  C   LIG    1        0.710  -1.947  -1.215  0.00  0.00    +0.290 C 
BRANCH  12  13
ATOM     13  N   LIG    1        0.690  -0.478  -1.207  0.00  0.00    -0.500 N 
ATOM     14  H   LIG    1        1.636  -0.129  -1.214  0.00  0.00    +0.440 HD
ATOM     15  H   LIG    1        0.202  -0.144  -2.024  0.00  0.00    +0.440 HD
BRANCH  13  17
ATOM     16  C   LIG    1       -0.019   1.526   0.010  0.00  0.00    +0.080 C 
ATOM     17  C   LIG    1        0.002  -0.004   0.002  0.00  0.00    +0.250 C 
ENDBRANCH  13  17
ENDBRANCH  12  13
ENDBRANCH   1  12
TORSDOF 4
ENDMDL
MODEL       41
REMARK  Name = ZINC000106524341
REMARK                            x       y       z     vdW  Elec       q    Type
REMARK                         _______ _______ _______ _____ _____    ______ ____
ROOT
ATOM      1  C   LIG    1        0.058  -2.144  -0.951  0.00  0.00    +0.170 C 
ATOM      2  C   LIG    1        0.586  -2.947  -2.143  0.00  0.00    +0.370 C 
ATOM      3  O   LIG    1        0.004  -2.445  -3.348  0.00  0.00    -0.360 OA
ATOM      4  C   LIG    1       -1.421  -2.549  -3.395  0.00  0.00    +0.150 C 
ATOM      5  C   LIG    1       -2.029  -1.730  -2.253  0.00  0.00    +0.130 C 
ATOM      6  C   LIG    1       -1.471  -2.236  -0.918  0.00  0.00    +0.220 C 
ENDROOT
BRANCH   1   7
ATOM      7  N   LIG    1        0.463  -0.739  -1.088  0.00  0.00    -0.360 N 
ATOM      8  H   LIG    1        1.412  -0.629  -0.765  0.00  0.00    +0.410 HD
BRANCH   7  10
ATOM      9  C   LIG    1        1.764  -0.419  -3.138  0.00  0.00    +0.020 C 
ATOM     10  C   LIG    1        0.376  -0.339  -2.499  0.00  0.00    +0.270 C 
ENDBRANCH   7  10
BRANCH   7  11
ATOM     11  C   LIG    1       -0.429   0.108  -0.283  0.00  0.00    +0.260 C 
ATOM     12  C   LIG    1       -0.281  -0.256   1.195  0.00  0.00    +0.070 C 
ENDBRANCH   7  11
ENDBRANCH   1   7
BRANCH   5  13
ATOM     13  O   LIG    1       -1.692  -0.352  -2.422  0.00  0.00    -0.550 OA
ATOM     14  H   LIG    1       -2.094   0.059  -3.200  0.00  0.00    +0.390 HD
ENDBRANCH   5  13
BRANCH   2  15
ATOM     15  O   LIG    1        2.007  -2.820  -2.211  0.00  0.00    -0.530 OA
ATOM     16  H   LIG    1        2.406  -3.265  -2.972  0.00  0.00    +0.420 HD
ENDBRANCH   2  15
BRANCH   6  17
ATOM     17  O   LIG    1       -1.978  -1.431   0.148  0.00  0.00    -0.530 OA
ATOM     18  H   LIG    1       -2.943  -1.438   0.221  0.00  0.00    +0.390 HD
ENDBRANCH   6  17
BRANCH   4  19
ATOM     19  C   LIG    1       -1.927  -2.011  -4.735  0.00  0.00    +0.220 C 
BRANCH  19  20
ATOM     20  O   LIG    1       -1.452  -2.845  -5.794  0.00  0.00    -0.560 OA
ATOM     21  H   LIG    1       -1.736  -2.563  -6.674  0.00  0.00    +0.400 HD
ENDBRANCH  19  20
ENDBRANCH   4  19
TORSDOF 8
ENDMDL
MODEL       42
REMARK  Name = ZINC000106263724
REMARK                            x       y       z     vdW  Elec       q    Type
REMARK                         _______ _______ _______ _____ _____    ______ ____
ROOT
ATOM      1  O   LIG    1        0.002  -0.004   0.002  0.00  0.00    -0.530 OA
ATOM      2  C   LIG    1       -0.014   1.209   0.009  0.00  0.00    +0.540 C 
ATOM      3  N   LIG    1       -1.195   1.841   0.029  0.00  0.00    -0.710 N 
ATOM      4  H   LIG    1       -2.004   1.307  -0.005  0.00  0.00    +0.420 HD
ATOM      5  C   LIG    1       -1.325   3.293   0.100  0.00  0.00    +0.300 C 
ATOM      6  C   LIG    1       -0.004   3.969  -0.277  0.00  0.00    +0.210 C 
ATOM      7  N   LIG    1        1.081   3.326   0.472  0.00  0.00    -0.540 NA
ATOM      8  C   LIG    1        2.333   4.088   0.414  0.00  0.00    +0.230 C 
ATOM      9  C   LIG    1        3.379   3.389   1.289  0.00  0.00    +0.270 C 
ATOM     10  N   LIG    1        3.585   2.014   0.818  0.00  0.00    -0.380 N 
ATOM     11  C   LIG    1        2.322   1.264   0.885  0.00  0.00    +0.300 C 
ATOM     12  H   LIG    1        3.914   2.033  -0.136  0.00  0.00    +0.430 HD
ATOM     13  C   LIG    1        1.288   1.952   0.000  0.00  0.00    +0.150 C 
ENDROOT
BRANCH  10  14
ATOM     14  C   LIG    1        4.587   1.354   1.665  0.00  0.00    +0.190 C 
BRANCH  14  15
ATOM     15  C   LIG    1        5.907   2.124   1.589  0.00  0.00    +0.210 C 
BRANCH  15  16
ATOM     16  O   LIG    1        6.427   2.048   0.260  0.00  0.00    -0.550 OA
ATOM     17  H   LIG    1        7.265   2.515   0.138  0.00  0.00    +0.400 HD
ENDBRANCH  15  16
ENDBRANCH  14  15
BRANCH  14  18
ATOM     18  C   LIG    1        4.804  -0.080   1.176  0.00  0.00    +0.210 C 
BRANCH  18  19
ATOM     19  O   LIG    1        5.374  -0.054  -0.134  0.00  0.00    -0.550 OA
ATOM     20  H   LIG    1        5.540  -0.931  -0.508  0.00  0.00    +0.400 HD
ENDBRANCH  18  19
ENDBRANCH  14  18
ENDBRANCH  10  14
TORSDOF 5
ENDMDL
MODEL       43
REMARK  Name = ZINC000002511432
REMARK                            x       y       z     vdW  Elec       q    Type
REMARK                         _______ _______ _______ _____ _____    ______ ____
ROOT
ATOM      1  C   LIG    1        1.446  -3.970  -2.482  0.00  0.00    +0.180 C 
ENDROOT
BRANCH   1   2
ATOM      2  O   LIG    1        0.112  -4.465  -2.354  0.00  0.00    -0.540 OA
ATOM      3  H   LIG    1       -0.481  -4.184  -3.064  0.00  0.00    +0.370 HD
ENDBRANCH   1   2
BRANCH   1   4
ATOM      4  C   LIG    1        1.426  -2.440  -2.474  0.00  0.00    +0.180 C 
BRANCH   4   5
ATOM      5  O   LIG    1        0.735  -1.967  -3.631  0.00  0.00    -0.530 OA
ATOM      6  H   LIG    1       -0.184  -2.264  -3.690  0.00  0.00    +0.380 HD
ENDBRANCH   4   5
BRANCH   4   7
ATOM      7  C   LIG    1        0.710  -1.947  -1.215  0.00  0.00    +0.240 C 
BRANCH   7   8
ATOM      8  N   LIG    1        0.690  -0.478  -1.207  0.00  0.00    -0.510 N 
ATOM      9  H   LIG    1        1.636  -0.129  -1.214  0.00  0.00    +0.430 HD
ATOM     10  H   LIG    1        0.202  -0.144  -2.024  0.00  0.00    +0.430 HD
BRANCH   8  12
ATOM     11  C   LIG    1       -0.019   1.526   0.010  0.00  0.00    +0.080 C 
ATOM     12  C   LIG    1        0.002  -0.004   0.002  0.00  0.00    +0.250 C 
ENDBRANCH   8  12
ENDBRANCH   7   8
ENDBRANCH   4   7
ENDBRANCH   1   4
BRANCH   1  13
ATOM     13  C   LIG    1        2.050  -4.465  -3.798  0.00  0.00    +0.170 C 
BRANCH  13  14
ATOM     14  O   LIG    1        1.331  -3.898  -4.895  0.00  0.00    -0.530 OA
ATOM     15  H   LIG    1        0.391  -4.127  -4.909  0.00  0.00    +0.370 HD
ENDBRANCH  13  14
BRANCH  13  16
ATOM     16  C   LIG    1        1.958  -5.990  -3.860  0.00  0.00    +0.190 C 
BRANCH  16  17
ATOM     17  O   LIG    1        2.677  -6.557  -2.763  0.00  0.00    -0.540 OA
ATOM     18  H   LIG    1        3.617  -6.328  -2.749  0.00  0.00    +0.380 HD
ENDBRANCH  16  17
BRANCH  16  19
ATOM     19  C   LIG    1        2.561  -6.485  -5.176  0.00  0.00    +0.150 C 
BRANCH  19  20
ATOM     20  O   LIG    1        2.370  -7.897  -5.287  0.00  0.00    -0.560 OA
ATOM     21  H   LIG    1        2.729  -8.280  -6.099  0.00  0.00    +0.390 HD
ENDBRANCH  19  20
ENDBRANCH  16  19
ENDBRANCH  13  16
ENDBRANCH   1  13
TORSDOF 12
ENDMDL
MODEL       44
REMARK  Name = ZINC000025624721
REMARK                            x       y       z     vdW  Elec       q    Type
REMARK                         _______ _______ _______ _____ _____    ______ ____
ROOT
ATOM      1  C   LIG    1       -2.794  -2.566  -0.111  0.00  0.00    +0.190 C 
ENDROOT
BRANCH   1   2
ATOM      2  O   LIG    1       -3.426  -2.203   1.118  0.00  0.00    -0.540 OA
ATOM      3  H   LIG    1       -2.987  -2.554   1.905  0.00  0.00    +0.380 HD
ENDBRANCH   1   2
BRANCH   1   4
ATOM      4  C   LIG    1       -1.358  -2.037  -0.122  0.00  0.00    +0.190 C 
BRANCH   4   5
ATOM      5  O   LIG    1       -0.726  -2.399  -1.351  0.00  0.00    -0.540 OA
ATOM      6  H   LIG    1       -1.166  -2.049  -2.138  0.00  0.00    +0.390 HD
ENDBRANCH   4   5
BRANCH   4   7
ATOM      7  C   LIG    1       -1.376  -0.512   0.012  0.00  0.00    +0.250 C 
BRANCH   7   9
ATOM      8  C   LIG    1       -0.018   1.465   0.010  0.00  0.00    +0.320 C 
ATOM      9  N   LIG    1        0.002  -0.004   0.002  0.00  0.00    -0.380 N 
ATOM     10  C   LIG    1        0.713  -0.491   1.192  0.00  0.00    +0.320 C 
ATOM     11  H   LIG    1        0.474  -0.330  -0.828  0.00  0.00    +0.430 HD
ENDBRANCH   7   9
ENDBRANCH   4   7
ENDBRANCH   1   4
BRANCH   1  12
ATOM     12  C   LIG    1       -2.776  -4.090  -0.245  0.00  0.00    +0.170 C 
BRANCH  12  13
ATOM     13  O   LIG    1       -1.955  -4.649   0.782  0.00  0.00    -0.540 OA
ATOM     14  H   LIG    1       -2.253  -4.445   1.679  0.00  0.00    +0.380 HD
ENDBRANCH  12  13
BRANCH  12  15
ATOM     15  C   LIG    1       -4.201  -4.631  -0.109  0.00  0.00    +0.190 C 
BRANCH  15  16
ATOM     16  O   LIG    1       -5.022  -4.072  -1.136  0.00  0.00    -0.540 OA
ATOM     17  H   LIG    1       -4.724  -4.276  -2.033  0.00  0.00    +0.370 HD
ENDBRANCH  15  16
BRANCH  15  18
ATOM     18  C   LIG    1       -4.183  -6.155  -0.243  0.00  0.00    +0.150 C 
BRANCH  18  19
ATOM     19  O   LIG    1       -5.494  -6.669  -0.001  0.00  0.00    -0.560 OA
ATOM     20  H   LIG    1       -5.558  -7.632  -0.069  0.00  0.00    +0.390 HD
ENDBRANCH  18  19
ENDBRANCH  15  18
ENDBRANCH  12  15
ENDBRANCH   1  12
TORSDOF 11
ENDMDL
MODEL       45
REMARK  Name = ZINC000005491033
REMARK                            x       y       z     vdW  Elec       q    Type
REMARK                         _______ _______ _______ _____ _____    ______ ____
ROOT
ATOM      1  C   LIG    1       -0.018   1.461   0.010  0.00  0.00    +0.360 C 
ATOM      2  N   LIG    1        0.002  -0.004   0.002  0.00  0.00    -0.550 N 
ATOM      3  C   LIG    1        0.005  -0.663  -1.177  0.00  0.00    +0.590 A 
ATOM      4  C   LIG    1        0.026  -2.127  -1.158  0.00  0.00    -0.060 A 
ATOM      5  C   LIG    1        0.041  -2.770   0.074  0.00  0.00    +0.240 A 
ATOM      6  N   LIG    1        0.037  -2.016   1.225  0.00  0.00    -0.510 N 
ATOM      7  N   LIG    1        0.058  -4.104  -0.190  0.00  0.00    -0.560 N 
ATOM      8  H   LIG    1        0.071  -4.817   0.467  0.00  0.00    +0.430 HD
ATOM      9  C   LIG    1        0.053  -4.256  -1.546  0.00  0.00    +0.470 A 
ATOM     10  N   LIG    1        0.034  -3.086  -2.115  0.00  0.00    -0.400 NA
ATOM     11  O   LIG    1       -0.008  -0.055  -2.231  0.00  0.00    -0.460 OA
ATOM     12  C   LIG    1        0.022  -0.673   1.167  0.00  0.00    +0.720 A 
ATOM     13  O   LIG    1        0.019  -0.041   2.206  0.00  0.00    -0.530 OA
ENDROOT
BRANCH   6  14
ATOM     14  C   LIG    1        0.052  -2.684   2.528  0.00  0.00    +0.330 C 
BRANCH  14  15
ATOM     15  C   LIG    1        1.500  -2.898   2.974  0.00  0.00    +0.240 C 
BRANCH  15  16
ATOM     16  N   LIG    1        1.516  -3.568   4.282  0.00  0.00    -0.380 N 
ATOM     17  C   LIG    1        2.900  -3.666   4.765  0.00  0.00    +0.330 C 
ATOM     18  C   LIG    1        0.948  -4.916   4.147  0.00  0.00    +0.310 C 
ATOM     19  H   LIG    1        0.967  -3.035   4.939  0.00  0.00    +0.430 HD
ENDBRANCH  15  16
ENDBRANCH  14  15
ENDBRANCH   6  14
TORSDOF 3
ENDMDL
MODEL       46
REMARK  Name = ZINC000105102137
REMARK                            x       y       z     vdW  Elec       q    Type
REMARK                         _______ _______ _______ _____ _____    ______ ____
ROOT
ATOM      1  C   LIG    1       -1.877  -0.751  -0.300  0.00  0.00    +0.140 C 
ATOM      2  O   LIG    1       -2.246  -0.401   1.051  0.00  0.00    -0.360 OA
ATOM      3  C   LIG    1       -3.386  -1.205   1.397  0.00  0.00    +0.260 C 
ATOM      4  C   LIG    1       -3.317  -2.488   0.546  0.00  0.00    +0.170 C 
ATOM      5  C   LIG    1       -2.062  -2.290  -0.342  0.00  0.00    +0.140 C 
ENDROOT
BRANCH   4   6
ATOM      6  O   LIG    1       -4.487  -2.614  -0.265  0.00  0.00    -0.530 OA
ATOM      7  H   LIG    1       -4.497  -3.404  -0.821  0.00  0.00    +0.410 HD
ENDBRANCH   4   6
BRANCH   3   8
ATOM      8  O   LIG    1       -4.590  -0.492   1.105  0.00  0.00    -0.550 OA
ATOM      9  H   LIG    1       -4.682  -0.241   0.176  0.00  0.00    +0.410 HD
ENDBRANCH   3   8
BRANCH   5  10
ATOM     10  O   LIG    1       -2.304  -2.744  -1.675  0.00  0.00    -0.540 OA
ATOM     11  H   LIG    1       -1.548  -2.641  -2.269  0.00  0.00    +0.400 HD
ENDBRANCH   5  10
BRANCH   1  12
ATOM     12  C   LIG    1       -0.419  -0.377  -0.575  0.00  0.00    +0.210 C 
BRANCH  12  13
ATOM     13  O   LIG    1       -0.289   1.046  -0.596  0.00  0.00    -0.570 OA
ATOM     14  H   LIG    1        0.611   1.356  -0.766  0.00  0.00    +0.390 HD
ENDBRANCH  12  13
ENDBRANCH   1  12
BRANCH   3  15
ATOM     15  C   LIG    1       -3.340  -1.560   2.884  0.00  0.00    +0.320 C 
BRANCH  15  16
ATOM     16  N   LIG    1       -3.542  -0.345   3.685  0.00  0.00    -0.380 N 
ATOM     17  C   LIG    1       -2.499   0.634   3.357  0.00  0.00    +0.260 C 
ATOM     18  C   LIG    1       -2.752   1.931   4.128  0.00  0.00    +0.060 C 
ATOM     19  C   LIG    1       -2.725   1.639   5.631  0.00  0.00    +0.030 C 
ATOM     20  C   LIG    1       -3.767   0.562   5.950  0.00  0.00    +0.060 C 
ATOM     21  C   LIG    1       -3.475  -0.684   5.111  0.00  0.00    +0.250 C 
ATOM     22  H   LIG    1       -4.448   0.047   3.476  0.00  0.00    +0.430 HD
ENDBRANCH  15  16
ENDBRANCH   3  15
TORSDOF 7
ENDMDL
MODEL       47
REMARK  Name = ZINC000004896145
REMARK                            x       y       z     vdW  Elec       q    Type
REMARK                         _______ _______ _______ _____ _____    ______ ____
ROOT
ATOM      1  C   LIG    1       -1.877  -0.752  -0.300  0.00  0.00    +0.140 C 
ATOM      2  O   LIG    1       -2.246  -0.401   1.051  0.00  0.00    -0.360 OA
ATOM      3  C   LIG    1       -3.386  -1.205   1.397  0.00  0.00    +0.260 C 
ATOM      4  C   LIG    1       -3.317  -2.488   0.546  0.00  0.00    +0.170 C 
ATOM      5  C   LIG    1       -2.062  -2.290  -0.342  0.00  0.00    +0.140 C 
ENDROOT
BRANCH   4   6
ATOM      6  O   LIG    1       -4.487  -2.614  -0.265  0.00  0.00    -0.540 OA
ATOM      7  H   LIG    1       -4.497  -3.404  -0.821  0.00  0.00    +0.400 HD
ENDBRANCH   4   6
BRANCH   3   8
ATOM      8  O   LIG    1       -4.590  -0.492   1.105  0.00  0.00    -0.550 OA
ATOM      9  H   LIG    1       -4.682  -0.241   0.176  0.00  0.00    +0.410 HD
ENDBRANCH   3   8
BRANCH   5  10
ATOM     10  O   LIG    1       -0.929  -2.953   0.222  0.00  0.00    -0.550 OA
ATOM     11  H   LIG    1       -0.119  -2.858  -0.298  0.00  0.00    +0.390 HD
ENDBRANCH   5  10
BRANCH   1  12
ATOM     12  C   LIG    1       -0.419  -0.377  -0.575  0.00  0.00    +0.220 C 
BRANCH  12  13
ATOM     13  O   LIG    1       -0.289   1.046  -0.596  0.00  0.00    -0.570 OA
ATOM     14  H   LIG    1        0.611   1.356  -0.766  0.00  0.00    +0.390 HD
ENDBRANCH  12  13
ENDBRANCH   1  12
BRANCH   3  15
ATOM     15  C   LIG    1       -3.340  -1.560   2.884  0.00  0.00    +0.320 C 
BRANCH  15  16
ATOM     16  N   LIG    1       -3.542  -0.345   3.685  0.00  0.00    -0.380 N 
ATOM     17  C   LIG    1       -2.499   0.634   3.357  0.00  0.00    +0.260 C 
ATOM     18  C   LIG    1       -2.752   1.931   4.128  0.00  0.00    +0.060 C 
ATOM     19  C   LIG    1       -2.725   1.639   5.631  0.00  0.00    +0.030 C 
ATOM     20  C   LIG    1       -3.767   0.562   5.950  0.00  0.00    +0.060 C 
ATOM     21  C   LIG    1       -3.475  -0.684   5.111  0.00  0.00    +0.250 C 
ATOM     22  H   LIG    1       -4.448   0.047   3.476  0.00  0.00    +0.430 HD
ENDBRANCH  15  16
ENDBRANCH   3  15
TORSDOF 7
ENDMDL
MODEL       48
REMARK  Name = ZINC000105102147
REMARK                            x       y       z     vdW  Elec       q    Type
REMARK                         _______ _______ _______ _____ _____    ______ ____
ROOT
ATOM      1  C   LIG    1       -1.778  -0.890  -0.236  0.00  0.00    +0.140 C 
ATOM      2  O   LIG    1       -2.177  -0.445   1.072  0.00  0.00    -0.350 OA
ATOM      3  C   LIG    1       -3.171  -1.377   1.550  0.00  0.00    +0.260 C 
ATOM      4  C   LIG    1       -2.628  -2.753   1.087  0.00  0.00    +0.180 C 
ATOM      5  C   LIG    1       -2.015  -2.412  -0.296  0.00  0.00    +0.140 C 
ENDROOT
BRANCH   4   6
ATOM      6  O   LIG    1       -1.628  -3.235   1.986  0.00  0.00    -0.540 OA
ATOM      7  H   LIG    1       -1.258  -4.094   1.739  0.00  0.00    +0.400 HD
ENDBRANCH   4   6
BRANCH   3   8
ATOM      8  O   LIG    1       -4.440  -1.109   0.952  0.00  0.00    -0.550 OA
ATOM      9  H   LIG    1       -4.440  -1.165  -0.014  0.00  0.00    +0.410 HD
ENDBRANCH   3   8
BRANCH   5  10
ATOM     10  O   LIG    1       -2.929  -2.741  -1.344  0.00  0.00    -0.550 OA
ATOM     11  H   LIG    1       -2.597  -2.549  -2.231  0.00  0.00    +0.400 HD
ENDBRANCH   5  10
BRANCH   1  12
ATOM     12  C   LIG    1       -0.296  -0.585  -0.460  0.00  0.00    +0.210 C 
BRANCH  12  13
ATOM     13  O   LIG    1       -0.104   0.831  -0.511  0.00  0.00    -0.570 OA
ATOM     14  H   LIG    1        0.814   1.098  -0.652  0.00  0.00    +0.390 HD
ENDBRANCH  12  13
ENDBRANCH   1  12
BRANCH   3  15
ATOM     15  C   LIG    1       -3.273  -1.319   3.075  0.00  0.00    +0.350 C 
BRANCH  15  16
ATOM     16  N   LIG    1       -3.829  -0.021   3.481  0.00  0.00    -0.380 N 
ATOM     17  C   LIG    1       -2.967   1.056   2.981  0.00  0.00    +0.260 C 
ATOM     18  C   LIG    1       -3.584   2.412   3.330  0.00  0.00    +0.050 C 
ATOM     19  C   LIG    1       -3.720   2.528   4.851  0.00  0.00    +0.030 C 
ATOM     20  C   LIG    1       -4.560   1.357   5.370  0.00  0.00    +0.060 C 
ATOM     21  C   LIG    1       -3.905   0.041   4.945  0.00  0.00    +0.250 C 
ATOM     22  H   LIG    1       -4.755   0.083   3.092  0.00  0.00    +0.430 HD
ENDBRANCH  15  16
ENDBRANCH   3  15
TORSDOF 7
ENDMDL
MODEL       49
REMARK  Name = ZINC000239402717
REMARK                            x       y       z     vdW  Elec       q    Type
REMARK                         _______ _______ _______ _____ _____    ______ ____
ROOT
ATOM      1  C   LIG    1       -2.851  -2.587  -0.110  0.00  0.00    +0.170 C 
ENDROOT
BRANCH   1   2
ATOM      2  O   LIG    1       -3.483  -2.224   1.119  0.00  0.00    -0.510 OA
ATOM      3  H   LIG    1       -3.044  -2.575   1.906  0.00  0.00    +0.380 HD
ENDBRANCH   1   2
BRANCH   1   4
ATOM      4  C   LIG    1       -1.416  -2.058  -0.121  0.00  0.00    +0.170 C 
BRANCH   4   5
ATOM      5  O   LIG    1       -0.783  -2.420  -1.350  0.00  0.00    -0.530 OA
ATOM      6  H   LIG    1       -1.223  -2.070  -2.137  0.00  0.00    +0.380 HD
ENDBRANCH   4   5
BRANCH   4   7
ATOM      7  C   LIG    1       -1.433  -0.534   0.013  0.00  0.00    +0.190 C 
BRANCH   7   8
ATOM      8  O   LIG    1       -2.066  -0.171   1.242  0.00  0.00    -0.530 OA
ATOM      9  H   LIG    1       -1.626  -0.521   2.029  0.00  0.00    +0.370 HD
ENDBRANCH   7   8
BRANCH   7  10
ATOM     10  C   LIG    1        0.002  -0.004   0.002  0.00  0.00    +0.150 C 
BRANCH  10  11
ATOM     11  O   LIG    1       -0.017   1.425   0.010  0.00  0.00    -0.560 OA
ATOM     12  H   LIG    1        0.861   1.830   0.004  0.00  0.00    +0.390 HD
ENDBRANCH  10  11
ENDBRANCH   7  10
ENDBRANCH   4   7
ENDBRANCH   1   4
BRANCH   1  13
ATOM     13  C   LIG    1       -2.833  -4.111  -0.244  0.00  0.00    +0.210 C 
BRANCH  13  14
ATOM     14  C   LIG    1       -4.269  -4.641  -0.234  0.00  0.00    +0.170 C 
ATOM     15  N   LIG    1       -4.286  -6.129  -0.294  0.00  0.00    -0.510 N 
ATOM     16  C   LIG    1       -5.606  -6.606   0.160  0.00  0.00    +0.290 C 
ATOM     17  C   LIG    1       -5.973  -5.908   1.490  0.00  0.00    +0.120 C 
ATOM     18  H   LIG    1       -3.568  -6.502   0.309  0.00  0.00    +0.440 HD
ATOM     19  H   LIG    1       -4.123  -6.432  -1.242  0.00  0.00    +0.440 HD
ATOM     20  S   LIG    1       -5.078  -4.305   1.381  0.00  0.00    -0.090 S 
ENDBRANCH  13  14
BRANCH  13  21
ATOM     21  O   LIG    1       -2.201  -4.474  -1.474  0.00  0.00    -0.520 OA
ATOM     22  H   LIG    1       -2.641  -4.123  -2.260  0.00  0.00    +0.390 HD
ENDBRANCH  13  21
ENDBRANCH   1  13
TORSDOF 10
ENDMDL
MODEL       50
REMARK  Name = ZINC000142297889
REMARK                            x       y       z     vdW  Elec       q    Type
REMARK                         _______ _______ _______ _____ _____    ______ ____
ROOT
ATOM      1  C   LIG    1       -2.851  -2.587  -0.110  0.00  0.00    +0.200 C 
ENDROOT
BRANCH   1   2
ATOM      2  O   LIG    1       -3.607  -1.934  -1.132  0.00  0.00    -0.540 OA
ATOM      3  H   LIG    1       -3.261  -2.068  -2.024  0.00  0.00    +0.380 HD
ENDBRANCH   1   2
BRANCH   1   4
ATOM      4  C   LIG    1       -1.416  -2.058  -0.121  0.00  0.00    +0.170 C 
BRANCH   4   5
ATOM      5  O   LIG    1       -0.783  -2.420  -1.350  0.00  0.00    -0.540 OA
ATOM      6  H   LIG    1       -1.223  -2.070  -2.137  0.00  0.00    +0.380 HD
ENDBRANCH   4   5
BRANCH   4   7
ATOM      7  C   LIG    1       -1.433  -0.534   0.013  0.00  0.00    +0.200 C 
BRANCH   7   8
ATOM      8  O   LIG    1       -2.066  -0.171   1.242  0.00  0.00    -0.540 OA
ATOM      9  H   LIG    1       -1.626  -0.521   2.029  0.00  0.00    +0.380 HD
ENDBRANCH   7   8
BRANCH   7  10
ATOM     10  C   LIG    1        0.002  -0.004   0.002  0.00  0.00    +0.150 C 
BRANCH  10  11
ATOM     11  O   LIG    1       -0.017   1.425   0.010  0.00  0.00    -0.560 OA
ATOM     12  H   LIG    1        0.861   1.830   0.004  0.00  0.00    +0.390 HD
ENDBRANCH  10  11
ENDBRANCH   7  10
ENDBRANCH   4   7
ENDBRANCH   1   4
BRANCH   1  13
ATOM     13  C   LIG    1       -2.840  -4.095  -0.369  0.00  0.00    +0.240 C 
BRANCH  13  14
ATOM     14  N   LIG    1       -4.218  -4.604  -0.359  0.00  0.00    -0.500 N 
ATOM     15  H   LIG    1       -4.753  -4.143  -1.080  0.00  0.00    +0.430 HD
ATOM     16  H   LIG    1       -4.638  -4.420   0.540  0.00  0.00    +0.430 HD
BRANCH  14  17
ATOM     17  C   LIG    1       -4.208  -6.051  -0.607  0.00  0.00    +0.330 C 
BRANCH  17  18
ATOM     18  C   LIG    1       -5.622  -6.573  -0.596  0.00  0.00    -0.170 A 
ATOM     19  C   LIG    1       -6.189  -7.008   0.587  0.00  0.00    +0.040 A 
ATOM     20  C   LIG    1       -7.486  -7.487   0.597  0.00  0.00    +0.030 A 
ATOM     21  C   LIG    1       -8.216  -7.530  -0.577  0.00  0.00    +0.060 A 
ATOM     22  C   LIG    1       -7.649  -7.093  -1.760  0.00  0.00    +0.030 A 
ATOM     23  C   LIG    1       -6.354  -6.611  -1.769  0.00  0.00    +0.040 A 
ENDBRANCH  17  18
ENDBRANCH  14  17
ENDBRANCH  13  14
ENDBRANCH   1  13
TORSDOF 11
ENDMDL
MODEL       51
REMARK  Name = ZINC000101150289
REMARK                            x       y       z     vdW  Elec       q    Type
REMARK                         _______ _______ _______ _____ _____    ______ ____
ROOT
ATOM      1  C   LIG    1       -2.851  -2.587  -0.110  0.00  0.00    +0.180 C 
ENDROOT
BRANCH   1   2
ATOM      2  O   LIG    1       -3.483  -2.224   1.119  0.00  0.00    -0.520 OA
ATOM      3  H   LIG    1       -3.044  -2.575   1.906  0.00  0.00    +0.380 HD
ENDBRANCH   1   2
BRANCH   1   4
ATOM      4  C   LIG    1       -1.416  -2.058  -0.121  0.00  0.00    +0.170 C 
BRANCH   4   5
ATOM      5  O   LIG    1       -0.783  -2.420  -1.350  0.00  0.00    -0.530 OA
ATOM      6  H   LIG    1       -1.223  -2.070  -2.137  0.00  0.00    +0.380 HD
ENDBRANCH   4   5
BRANCH   4   7
ATOM      7  C   LIG    1       -1.433  -0.534   0.013  0.00  0.00    +0.190 C 
BRANCH   7   8
ATOM      8  O   LIG    1       -2.066  -0.171   1.242  0.00  0.00    -0.530 OA
ATOM      9  H   LIG    1       -1.626  -0.521   2.029  0.00  0.00    +0.370 HD
ENDBRANCH   7   8
BRANCH   7  10
ATOM     10  C   LIG    1        0.002  -0.004   0.002  0.00  0.00    +0.150 C 
BRANCH  10  11
ATOM     11  O   LIG    1       -0.017   1.425   0.010  0.00  0.00    -0.560 OA
ATOM     12  H   LIG    1        0.861   1.830   0.004  0.00  0.00    +0.390 HD
ENDBRANCH  10  11
ENDBRANCH   7  10
ENDBRANCH   4   7
ENDBRANCH   1   4
BRANCH   1  13
ATOM     13  C   LIG    1       -2.833  -4.111  -0.244  0.00  0.00    +0.210 C 
BRANCH  13  14
ATOM     14  C   LIG    1       -4.269  -4.641  -0.234  0.00  0.00    +0.190 C 
ATOM     15  N   LIG    1       -4.274  -6.121  -0.282  0.00  0.00    -0.510 N 
ATOM     16  C   LIG    1       -5.462  -6.620  -1.001  0.00  0.00    +0.300 C 
ATOM     17  C   LIG    1       -5.567  -5.823  -2.331  0.00  0.00    +0.180 C 
ATOM     18  H   LIG    1       -4.281  -6.484   0.659  0.00  0.00    +0.440 HD
ATOM     19  H   LIG    1       -3.442  -6.440  -0.755  0.00  0.00    +0.440 HD
ATOM     20  S   LIG    1       -5.153  -4.124  -1.754  0.00  0.00    -0.150 S 
ENDBRANCH  13  14
BRANCH  13  21
ATOM     21  O   LIG    1       -2.201  -4.474  -1.474  0.00  0.00    -0.530 OA
ATOM     22  H   LIG    1       -2.641  -4.123  -2.260  0.00  0.00    +0.390 HD
ENDBRANCH  13  21
ENDBRANCH   1  13
TORSDOF 10
ENDMDL
MODEL       52
REMARK  Name = ZINC000239402716
REMARK                            x       y       z     vdW  Elec       q    Type
REMARK                         _______ _______ _______ _____ _____    ______ ____
ROOT
ATOM      1  C   LIG    1       -2.851  -2.587  -0.110  0.00  0.00    +0.190 C 
ENDROOT
BRANCH   1   2
ATOM      2  O   LIG    1       -3.483  -2.224   1.119  0.00  0.00    -0.520 OA
ATOM      3  H   LIG    1       -3.044  -2.575   1.906  0.00  0.00    +0.370 HD
ENDBRANCH   1   2
BRANCH   1   4
ATOM      4  C   LIG    1       -1.416  -2.058  -0.121  0.00  0.00    +0.170 C 
BRANCH   4   5
ATOM      5  O   LIG    1       -0.783  -2.420  -1.350  0.00  0.00    -0.540 OA
ATOM      6  H   LIG    1       -1.223  -2.070  -2.137  0.00  0.00    +0.380 HD
ENDBRANCH   4   5
BRANCH   4   7
ATOM      7  C   LIG    1       -1.433  -0.534   0.013  0.00  0.00    +0.190 C 
BRANCH   7   8
ATOM      8  O   LIG    1       -2.066  -0.171   1.242  0.00  0.00    -0.530 OA
ATOM      9  H   LIG    1       -1.626  -0.521   2.029  0.00  0.00    +0.370 HD
ENDBRANCH   7   8
BRANCH   7  10
ATOM     10  C   LIG    1        0.002  -0.004   0.002  0.00  0.00    +0.150 C 
BRANCH  10  11
ATOM     11  O   LIG    1       -0.017   1.425   0.010  0.00  0.00    -0.560 OA
ATOM     12  H   LIG    1        0.861   1.830   0.004  0.00  0.00    +0.390 HD
ENDBRANCH  10  11
ENDBRANCH   7  10
ENDBRANCH   4   7
ENDBRANCH   1   4
BRANCH   1  13
ATOM     13  C   LIG    1       -2.833  -4.111  -0.244  0.00  0.00    +0.220 C 
BRANCH  13  14
ATOM     14  C   LIG    1       -4.258  -4.652  -0.109  0.00  0.00    +0.190 C 
ATOM     15  N   LIG    1       -4.256  -6.132  -0.155  0.00  0.00    -0.510 N 
ATOM     16  C   LIG    1       -5.498  -6.641  -0.768  0.00  0.00    +0.300 C 
ATOM     17  C   LIG    1       -5.725  -5.846  -2.084  0.00  0.00    +0.180 C 
ATOM     18  H   LIG    1       -4.179  -6.494   0.783  0.00  0.00    +0.440 HD
ATOM     19  H   LIG    1       -3.466  -6.446  -0.699  0.00  0.00    +0.440 HD
ATOM     20  S   LIG    1       -5.275  -4.144  -1.547  0.00  0.00    -0.140 S 
ENDBRANCH  13  14
BRANCH  13  21
ATOM     21  O   LIG    1       -2.012  -4.670   0.783  0.00  0.00    -0.540 OA
ATOM     22  H   LIG    1       -2.310  -4.466   1.679  0.00  0.00    +0.390 HD
ENDBRANCH  13  21
ENDBRANCH   1  13
TORSDOF 10
ENDMDL
MODEL       53
REMARK  Name = ZINC000063607772
REMARK                            x       y       z     vdW  Elec       q    Type
REMARK                         _______ _______ _______ _____ _____    ______ ____
ROOT
ATOM      1  C   LIG    1       -2.851  -2.587  -0.110  0.00  0.00    +0.190 C 
ENDROOT
BRANCH   1   2
ATOM      2  O   LIG    1       -3.607  -1.934  -1.132  0.00  0.00    -0.520 OA
ATOM      3  H   LIG    1       -3.261  -2.068  -2.024  0.00  0.00    +0.380 HD
ENDBRANCH   1   2
BRANCH   1   4
ATOM      4  C   LIG    1       -1.416  -2.058  -0.121  0.00  0.00    +0.170 C 
BRANCH   4   5
ATOM      5  O   LIG    1       -0.783  -2.420  -1.350  0.00  0.00    -0.540 OA
ATOM      6  H   LIG    1       -1.223  -2.070  -2.137  0.00  0.00    +0.380 HD
ENDBRANCH   4   5
BRANCH   4   7
ATOM      7  C   LIG    1       -1.433  -0.534   0.013  0.00  0.00    +0.200 C 
BRANCH   7   8
ATOM      8  O   LIG    1       -2.066  -0.171   1.242  0.00  0.00    -0.540 OA
ATOM      9  H   LIG    1       -1.626  -0.521   2.029  0.00  0.00    +0.370 HD
ENDBRANCH   7   8
BRANCH   7  10
ATOM     10  C   LIG    1        0.002  -0.004   0.002  0.00  0.00    +0.150 C 
BRANCH  10  11
ATOM     11  O   LIG    1       -0.017   1.425   0.010  0.00  0.00    -0.560 OA
ATOM     12  H   LIG    1        0.861   1.830   0.004  0.00  0.00    +0.390 HD
ENDBRANCH  10  11
ENDBRANCH   7  10
ENDBRANCH   4   7
ENDBRANCH   1   4
BRANCH   1  13
ATOM     13  C   LIG    1       -2.840  -4.095  -0.369  0.00  0.00    +0.210 C 
BRANCH  13  14
ATOM     14  C   LIG    1       -4.276  -4.625  -0.358  0.00  0.00    +0.170 C 
ATOM     15  N   LIG    1       -4.285  -6.096  -0.527  0.00  0.00    -0.510 N 
ATOM     16  C   LIG    1       -5.495  -6.535  -1.248  0.00  0.00    +0.300 C 
ATOM     17  C   LIG    1       -5.639  -5.632  -2.505  0.00  0.00    +0.140 C 
ATOM     18  H   LIG    1       -4.264  -6.535   0.381  0.00  0.00    +0.440 HD
ATOM     19  H   LIG    1       -3.468  -6.375  -1.050  0.00  0.00    +0.440 HD
ATOM     20  S   LIG    1       -5.204  -3.986  -1.804  0.00  0.00    -0.100 S 
ENDBRANCH  13  14
BRANCH  13  21
ATOM     21  O   LIG    1       -2.084  -4.748   0.652  0.00  0.00    -0.540 OA
ATOM     22  H   LIG    1       -2.431  -4.614   1.545  0.00  0.00    +0.390 HD
ENDBRANCH  13  21
ENDBRANCH   1  13
TORSDOF 10
ENDMDL
MODEL       54
REMARK  Name = ZINC000215992462
REMARK                            x       y       z     vdW  Elec       q    Type
REMARK                         _______ _______ _______ _____ _____    ______ ____
ROOT
ATOM      1  C   LIG    1       -2.841  -2.598   0.015  0.00  0.00    +0.190 C 
ENDROOT
BRANCH   1   2
ATOM      2  O   LIG    1       -3.662  -2.039  -1.012  0.00  0.00    -0.540 OA
ATOM      3  H   LIG    1       -3.364  -2.243  -1.909  0.00  0.00    +0.390 HD
ENDBRANCH   1   2
BRANCH   1   4
ATOM      4  C   LIG    1       -1.416  -2.058  -0.121  0.00  0.00    +0.170 C 
BRANCH   4   5
ATOM      5  O   LIG    1       -0.594  -2.617   0.906  0.00  0.00    -0.550 OA
ATOM      6  H   LIG    1       -0.893  -2.413   1.803  0.00  0.00    +0.380 HD
ENDBRANCH   4   5
BRANCH   4   7
ATOM      7  C   LIG    1       -1.433  -0.534   0.013  0.00  0.00    +0.200 C 
BRANCH   7   8
ATOM      8  O   LIG    1       -2.066  -0.171   1.242  0.00  0.00    -0.540 OA
ATOM      9  H   LIG    1       -1.626  -0.521   2.029  0.00  0.00    +0.370 HD
ENDBRANCH   7   8
BRANCH   7  10
ATOM     10  C   LIG    1        0.002  -0.004   0.002  0.00  0.00    +0.170 C 
BRANCH  10  11
ATOM     11  O   LIG    1       -0.017   1.425   0.010  0.00  0.00    -0.560 OA
ATOM     12  H   LIG    1        0.861   1.830   0.004  0.00  0.00    +0.390 HD
ENDBRANCH  10  11
ENDBRANCH   7  10
ENDBRANCH   4   7
ENDBRANCH   1   4
BRANCH   1  13
ATOM     13  C   LIG    1       -2.823  -4.122  -0.119  0.00  0.00    +0.250 C 
BRANCH  13  14
ATOM     14  N   LIG    1       -4.191  -4.641   0.011  0.00  0.00    -0.500 N 
ATOM     15  H   LIG    1       -4.771  -4.246  -0.714  0.00  0.00    +0.430 HD
ATOM     16  H   LIG    1       -4.562  -4.387   0.914  0.00  0.00    +0.430 HD
BRANCH  14  17
ATOM     17  C   LIG    1       -4.174  -6.104  -0.118  0.00  0.00    +0.330 C 
BRANCH  17  18
ATOM     18  C   LIG    1       -5.578  -6.637   0.016  0.00  0.00    -0.170 A 
ATOM     19  C   LIG    1       -6.072  -6.978   1.261  0.00  0.00    +0.040 A 
ATOM     20  C   LIG    1       -7.359  -7.466   1.384  0.00  0.00    +0.030 A 
ATOM     21  C   LIG    1       -8.152  -7.613   0.261  0.00  0.00    +0.060 A 
ATOM     22  C   LIG    1       -7.659  -7.271  -0.984  0.00  0.00    +0.030 A 
ATOM     23  C   LIG    1       -6.373  -6.778  -1.106  0.00  0.00    +0.040 A 
ENDBRANCH  17  18
ENDBRANCH  14  17
ENDBRANCH  13  14
ENDBRANCH   1  13
TORSDOF 11
ENDMDL
MODEL       55
REMARK  Name = ZINC000063607774
REMARK                            x       y       z     vdW  Elec       q    Type
REMARK                         _______ _______ _______ _____ _____    ______ ____
ROOT
ATOM      1  C   LIG    1       -2.851  -2.587  -0.110  0.00  0.00    +0.190 C 
ENDROOT
BRANCH   1   2
ATOM      2  O   LIG    1       -3.607  -1.934  -1.132  0.00  0.00    -0.530 OA
ATOM      3  H   LIG    1       -3.261  -2.068  -2.024  0.00  0.00    +0.380 HD
ENDBRANCH   1   2
BRANCH   1   4
ATOM      4  C   LIG    1       -1.416  -2.058  -0.121  0.00  0.00    +0.170 C 
BRANCH   4   5
ATOM      5  O   LIG    1       -0.783  -2.420  -1.350  0.00  0.00    -0.540 OA
ATOM      6  H   LIG    1       -1.223  -2.070  -2.137  0.00  0.00    +0.380 HD
ENDBRANCH   4   5
BRANCH   4   7
ATOM      7  C   LIG    1       -1.433  -0.534   0.013  0.00  0.00    +0.190 C 
BRANCH   7   8
ATOM      8  O   LIG    1       -2.066  -0.171   1.242  0.00  0.00    -0.540 OA
ATOM      9  H   LIG    1       -1.626  -0.521   2.029  0.00  0.00    +0.380 HD
ENDBRANCH   7   8
BRANCH   7  10
ATOM     10  C   LIG    1        0.002  -0.004   0.002  0.00  0.00    +0.150 C 
BRANCH  10  11
ATOM     11  O   LIG    1       -0.017   1.425   0.010  0.00  0.00    -0.560 OA
ATOM     12  H   LIG    1        0.861   1.830   0.004  0.00  0.00    +0.390 HD
ENDBRANCH  10  11
ENDBRANCH   7  10
ENDBRANCH   4   7
ENDBRANCH   1   4
BRANCH   1  13
ATOM     13  C   LIG    1       -2.840  -4.095  -0.369  0.00  0.00    +0.230 C 
BRANCH  13  14
ATOM     14  C   LIG    1       -4.276  -4.625  -0.358  0.00  0.00    +0.190 C 
ATOM     15  N   LIG    1       -4.297  -6.103  -0.539  0.00  0.00    -0.520 N 
ATOM     16  C   LIG    1       -5.605  -6.617  -0.087  0.00  0.00    +0.300 C 
ATOM     17  C   LIG    1       -5.929  -6.029   1.306  0.00  0.00    +0.170 C 
ATOM     18  H   LIG    1       -3.562  -6.523   0.010  0.00  0.00    +0.440 HD
ATOM     19  H   LIG    1       -4.164  -6.327  -1.514  0.00  0.00    +0.440 HD
ATOM     20  S   LIG    1       -5.035  -4.423   1.302  0.00  0.00    -0.150 S 
ENDBRANCH  13  14
BRANCH  13  21
ATOM     21  O   LIG    1       -2.084  -4.748   0.652  0.00  0.00    -0.540 OA
ATOM     22  H   LIG    1       -2.431  -4.614   1.545  0.00  0.00    +0.390 HD
ENDBRANCH  13  21
ENDBRANCH   1  13
TORSDOF 10
ENDMDL
MODEL       56
REMARK  Name = ZINC000239402718
REMARK                            x       y       z     vdW  Elec       q    Type
REMARK                         _______ _______ _______ _____ _____    ______ ____
ROOT
ATOM      1  C   LIG    1       -2.851  -2.587  -0.110  0.00  0.00    +0.180 C 
ENDROOT
BRANCH   1   2
ATOM      2  O   LIG    1       -3.483  -2.224   1.119  0.00  0.00    -0.510 OA
ATOM      3  H   LIG    1       -3.044  -2.575   1.906  0.00  0.00    +0.380 HD
ENDBRANCH   1   2
BRANCH   1   4
ATOM      4  C   LIG    1       -1.416  -2.058  -0.121  0.00  0.00    +0.170 C 
BRANCH   4   5
ATOM      5  O   LIG    1       -0.783  -2.420  -1.350  0.00  0.00    -0.540 OA
ATOM      6  H   LIG    1       -1.223  -2.070  -2.137  0.00  0.00    +0.380 HD
ENDBRANCH   4   5
BRANCH   4   7
ATOM      7  C   LIG    1       -1.433  -0.534   0.013  0.00  0.00    +0.190 C 
BRANCH   7   8
ATOM      8  O   LIG    1       -2.066  -0.171   1.242  0.00  0.00    -0.530 OA
ATOM      9  H   LIG    1       -1.626  -0.521   2.029  0.00  0.00    +0.370 HD
ENDBRANCH   7   8
BRANCH   7  10
ATOM     10  C   LIG    1        0.002  -0.004   0.002  0.00  0.00    +0.150 C 
BRANCH  10  11
ATOM     11  O   LIG    1       -0.017   1.425   0.010  0.00  0.00    -0.560 OA
ATOM     12  H   LIG    1        0.861   1.830   0.004  0.00  0.00    +0.390 HD
ENDBRANCH  10  11
ENDBRANCH   7  10
ENDBRANCH   4   7
ENDBRANCH   1   4
BRANCH   1  13
ATOM     13  C   LIG    1       -2.833  -4.111  -0.244  0.00  0.00    +0.220 C 
BRANCH  13  14
ATOM     14  C   LIG    1       -4.258  -4.652  -0.109  0.00  0.00    +0.180 C 
ATOM     15  N   LIG    1       -4.269  -6.140  -0.166  0.00  0.00    -0.510 N 
ATOM     16  C   LIG    1       -5.542  -6.627   0.401  0.00  0.00    +0.290 C 
ATOM     17  C   LIG    1       -5.796  -5.929   1.757  0.00  0.00    +0.130 C 
ATOM     18  H   LIG    1       -3.499  -6.506   0.373  0.00  0.00    +0.440 HD
ATOM     19  H   LIG    1       -4.187  -6.443  -1.125  0.00  0.00    +0.440 HD
ATOM     20  S   LIG    1       -4.927  -4.320   1.569  0.00  0.00    -0.100 S 
ENDBRANCH  13  14
BRANCH  13  21
ATOM     21  O   LIG    1       -2.012  -4.670   0.783  0.00  0.00    -0.540 OA
ATOM     22  H   LIG    1       -2.310  -4.466   1.679  0.00  0.00    +0.390 HD
ENDBRANCH  13  21
ENDBRANCH   1  13
TORSDOF 10
ENDMDL
MODEL       57
REMARK  Name = ZINC000061957877
REMARK                            x       y       z     vdW  Elec       q    Type
REMARK                         _______ _______ _______ _____ _____    ______ ____
ROOT
ATOM      1  O   LIG    1        0.002  -0.004   0.002  0.00  0.00    -0.520 OA
ATOM      2  C   LIG    1       -0.014   1.212   0.009  0.00  0.00    +0.690 A 
ATOM      3  N   LIG    1       -1.194   1.859   0.029  0.00  0.00    -0.640 N 
ATOM      4  H   LIG    1       -2.020   1.351   0.037  0.00  0.00    +0.440 HD
ATOM      5  C   LIG    1       -1.238   3.226   0.037  0.00  0.00    +0.370 A 
ATOM      6  C   LIG    1       -0.088   3.933   0.025  0.00  0.00    -0.280 A 
ATOM      7  C   LIG    1        1.146   3.239   0.004  0.00  0.00    +0.560 A 
ATOM      8  O   LIG    1        2.197   3.855  -0.008  0.00  0.00    -0.490 OA
ATOM      9  N   LIG    1        1.147   1.891   0.001  0.00  0.00    -0.660 N 
ATOM     10  H   LIG    1        1.989   1.409  -0.013  0.00  0.00    +0.440 HD
ENDROOT
BRANCH   6  11
ATOM     11  C   LIG    1       -0.117   5.440   0.035  0.00  0.00    +0.300 C 
BRANCH  11  12
ATOM     12  N   LIG    1        0.014   5.923   1.415  0.00  0.00    -0.530 NA
ATOM     13  C   LIG    1       -0.876   5.182   2.320  0.00  0.00    +0.200 C 
ATOM     14  C   LIG    1       -0.666   5.674   3.754  0.00  0.00    +0.280 C 
ATOM     15  N   LIG    1       -0.955   7.113   3.825  0.00  0.00    -0.510 N 
ATOM     16  C   LIG    1       -0.042   7.842   2.935  0.00  0.00    +0.280 C 
ATOM     17  H   LIG    1       -0.828   7.434   4.773  0.00  0.00    +0.440 HD
ATOM     18  H   LIG    1       -1.908   7.279   3.538  0.00  0.00    +0.430 HD
ATOM     19  C   LIG    1       -0.246   7.368   1.494  0.00  0.00    +0.220 C 
ENDBRANCH  11  12
ENDBRANCH   6  11
TORSDOF 2
ENDMDL
MODEL       58
REMARK  Name = ZINC000061957878
REMARK                            x       y       z     vdW  Elec       q    Type
REMARK                         _______ _______ _______ _____ _____    ______ ____
ROOT
ATOM      1  C   LIG    1       -2.864  -2.695   0.766  0.00  0.00    +0.180 C 
ATOM      2  C   LIG    1       -1.484  -2.196   0.422  0.00  0.00    +0.250 A 
ATOM      3  C   LIG    1       -1.311  -0.936  -0.032  0.00  0.00    -0.300 A 
ATOM      4  C   LIG    1       -0.005  -0.490  -0.348  0.00  0.00    +0.560 A 
ATOM      5  N   LIG    1        1.037  -1.331  -0.190  0.00  0.00    -0.660 N 
ATOM      6  H   LIG    1        1.935  -1.034  -0.405  0.00  0.00    +0.440 HD
ATOM      7  C   LIG    1        0.837  -2.583   0.264  0.00  0.00    +0.700 A 
ATOM      8  O   LIG    1        1.786  -3.330   0.401  0.00  0.00    -0.520 OA
ATOM      9  O   LIG    1        0.176   0.642  -0.758  0.00  0.00    -0.520 OA
ATOM     10  N   LIG    1       -0.399  -3.017   0.573  0.00  0.00    -0.630 N 
ATOM     11  H   LIG    1       -0.523  -3.922   0.898  0.00  0.00    +0.440 HD
ENDROOT
BRANCH   3  12
ATOM     12  C   LIG    1       -2.493  -0.016  -0.198  0.00  0.00    +0.300 C 
BRANCH  12  13
ATOM     13  N   LIG    1       -2.982  -0.093  -1.581  0.00  0.00    -0.540 NA
ATOM     14  C   LIG    1       -1.889   0.129  -2.539  0.00  0.00    +0.220 C 
ATOM     15  C   LIG    1       -2.427  -0.018  -3.965  0.00  0.00    +0.280 C 
ATOM     16  N   LIG    1       -3.501   0.959  -4.186  0.00  0.00    -0.510 N 
ATOM     17  C   LIG    1       -4.595   0.709  -3.238  0.00  0.00    +0.280 C 
ATOM     18  H   LIG    1       -3.847   0.870  -5.130  0.00  0.00    +0.430 HD
ATOM     19  H   LIG    1       -3.142   1.891  -4.046  0.00  0.00    +0.430 HD
ATOM     20  C   LIG    1       -4.076   0.862  -1.807  0.00  0.00    +0.210 C 
ENDBRANCH  12  13
ENDBRANCH   3  12
TORSDOF 2
ENDMDL
MODEL       59
REMARK  Name = ZINC000040387230
REMARK                            x       y       z     vdW  Elec       q    Type
REMARK                         _______ _______ _______ _____ _____    ______ ____
ROOT
ATOM      1  N   LIG    1       -2.737  -2.545  -0.111  0.00  0.00    -0.570 NA
ATOM      2  C   LIG    1       -3.464  -2.117  -1.312  0.00  0.00    +0.400 C 
ATOM      3  N   LIG    1       -4.785  -2.735  -1.364  0.00  0.00    -0.650 NA
ATOM      4  C   LIG    1       -5.088  -3.810  -0.707  0.00  0.00    +0.660 C 
ATOM      5  N   LIG    1       -4.165  -4.430   0.105  0.00  0.00    -0.750 N 
ATOM      6  H   LIG    1       -4.435  -5.122   0.729  0.00  0.00    +0.410 HD
ATOM      7  C   LIG    1       -2.757  -4.015   0.001  0.00  0.00    +0.460 C 
ENDROOT
BRANCH   4   8
ATOM      8  N   LIG    1       -6.351  -4.340  -0.822  0.00  0.00    -1.040 N 
ATOM      9  H   LIG    1       -6.586  -5.144  -0.334  0.00  0.00    +0.430 HD
BRANCH   8  10
ATOM     10  S   LIG    1       -7.472  -3.605  -1.795  0.00  0.00    +2.620 S 
ATOM     11  O   LIG    1       -7.455  -2.245  -1.384  0.00  0.00    -0.920 OA
ATOM     12  O   LIG    1       -8.639  -4.401  -1.648  0.00  0.00    -0.950 OA
ATOM     13  C   LIG    1       -6.795  -3.772  -3.470  0.00  0.00    -0.260 C 
ENDBRANCH   8  10
ENDBRANCH   4   8
BRANCH   1  14
ATOM     14  C   LIG    1       -1.358  -2.037  -0.122  0.00  0.00    +0.190 C 
BRANCH  14  15
ATOM     15  C   LIG    1       -1.376  -0.512   0.012  0.00  0.00    +0.260 C 
BRANCH  15  17
ATOM     16  C   LIG    1       -0.018   1.465   0.010  0.00  0.00    +0.320 C 
ATOM     17  N   LIG    1        0.002  -0.004   0.002  0.00  0.00    -0.390 N 
ATOM     18  C   LIG    1        0.713  -0.491   1.192  0.00  0.00    +0.320 C 
ATOM     19  H   LIG    1        0.474  -0.330  -0.828  0.00  0.00    +0.430 HD
ENDBRANCH  15  17
ENDBRANCH  14  15
ENDBRANCH   1  14
TORSDOF 5
ENDMDL
MODEL       60
REMARK  Name = ZINC000046087353
REMARK                            x       y       z     vdW  Elec       q    Type
REMARK                         _______ _______ _______ _____ _____    ______ ____
ROOT
ATOM      1  C   LIG    1        3.527  -3.470   3.168  0.00  0.00    +0.320 C 
ATOM      2  N   LIG    1        2.974  -2.371   2.365  0.00  0.00    -0.380 N 
ATOM      3  C   LIG    1        3.077  -1.117   3.120  0.00  0.00    +0.250 C 
ATOM      4  C   LIG    1        2.577   0.044   2.258  0.00  0.00    +0.080 C 
ATOM      5  C   LIG    1        1.115  -0.205   1.874  0.00  0.00    +0.080 C 
ATOM      6  C   LIG    1        1.009  -1.551   1.153  0.00  0.00    +0.080 C 
ATOM      7  C   LIG    1        1.567  -2.652   2.058  0.00  0.00    +0.230 C 
ATOM      8  H   LIG    1        3.496  -2.289   1.506  0.00  0.00    +0.430 HD
ENDROOT
BRANCH   6   9
ATOM      9  O   LIG    1        1.762  -1.503  -0.061  0.00  0.00    -0.540 OA
ATOM     10  H   LIG    1        2.010  -2.372  -0.405  0.00  0.00    +0.380 HD
ENDBRANCH   6   9
BRANCH   6  11
ATOM     11  C   LIG    1       -0.458  -1.846   0.833  0.00  0.00    +0.230 C 
BRANCH  11  12
ATOM     12  N   LIG    1       -0.716  -1.565  -0.585  0.00  0.00    -0.510 NA
ATOM     13  C   LIG    1       -0.046  -2.551  -1.449  0.00  0.00    +0.170 C 
ATOM     14  C   LIG    1       -0.588  -2.406  -2.872  0.00  0.00    +0.270 C 
ATOM     15  N   LIG    1       -0.536  -1.007  -3.288  0.00  0.00    -0.720 N 
ATOM     16  H   LIG    1       -0.591  -0.803  -4.234  0.00  0.00    +0.410 HD
ATOM     17  C   LIG    1       -0.415   0.004  -2.422  0.00  0.00    +0.520 C 
ATOM     18  O   LIG    1       -0.411   1.139  -2.850  0.00  0.00    -0.550 OA
ATOM     19  C   LIG    1       -0.285  -0.205  -0.940  0.00  0.00    +0.240 C 
ENDBRANCH  11  12
ENDBRANCH   6  11
TORSDOF 3
ENDMDL
MODEL       61
REMARK  Name = ZINC000046087355
REMARK                            x       y       z     vdW  Elec       q    Type
REMARK                         _______ _______ _______ _____ _____    ______ ____
ROOT
ATOM      1  C   LIG    1       -0.108   1.060  -0.184  0.00  0.00    +0.330 C 
ATOM      2  N   LIG    1        0.076  -0.396  -0.123  0.00  0.00    -0.380 N 
ATOM      3  C   LIG    1       -1.228  -1.046   0.052  0.00  0.00    +0.250 C 
ATOM      4  C   LIG    1       -1.908  -0.503   1.311  0.00  0.00    +0.070 C 
ATOM      5  C   LIG    1       -1.024  -0.794   2.527  0.00  0.00    +0.030 C 
ATOM      6  C   LIG    1        0.358  -0.174   2.301  0.00  0.00    +0.120 C 
ATOM      7  C   LIG    1        0.952  -0.729   1.007  0.00  0.00    +0.300 C 
ATOM      8  H   LIG    1        0.499  -0.717  -0.981  0.00  0.00    +0.430 HD
ENDROOT
BRANCH   6   9
ATOM      9  O   LIG    1        0.233   1.246   2.200  0.00  0.00    -0.550 OA
ATOM     10  H   LIG    1       -0.184   1.660   2.967  0.00  0.00    +0.400 HD
ENDBRANCH   6   9
BRANCH   6  11
ATOM     11  C   LIG    1        1.273  -0.524   3.477  0.00  0.00    +0.190 C 
BRANCH  11  12
ATOM     12  N   LIG    1        2.638  -0.064   3.188  0.00  0.00    -0.530 NA
ATOM     13  C   LIG    1        3.589  -0.577   4.187  0.00  0.00    +0.180 C 
ATOM     14  C   LIG    1        5.012  -0.336   3.679  0.00  0.00    +0.280 C 
ATOM     15  N   LIG    1        5.166   1.054   3.261  0.00  0.00    -0.720 N 
ATOM     16  H   LIG    1        6.061   1.415   3.173  0.00  0.00    +0.410 HD
ATOM     17  C   LIG    1        4.126   1.852   2.995  0.00  0.00    +0.520 C 
ATOM     18  O   LIG    1        4.344   2.986   2.623  0.00  0.00    -0.540 OA
ATOM     19  C   LIG    1        2.699   1.403   3.136  0.00  0.00    +0.240 C 
ENDBRANCH  11  12
ENDBRANCH   6  11
TORSDOF 3
ENDMDL
MODEL       62
REMARK  Name = ZINC000534637075
REMARK                            x       y       z     vdW  Elec       q    Type
REMARK                         _______ _______ _______ _____ _____    ______ ____
ROOT
ATOM      1  N   LIG    1       -0.876  -1.898  -2.565  0.00  0.00    -0.710 N 
ATOM      2  H   LIG    1       -0.838  -1.157  -3.190  0.00  0.00    +0.410 HD
ENDROOT
BRANCH   1   9
ATOM      3  C   LIG    1        0.652  -0.570  -1.138  0.00  0.00    +0.170 C 
ATOM      4  C   LIG    1        2.142  -0.864  -0.830  0.00  0.00    +0.270 C 
ATOM      5  N   LIG    1        2.484  -1.936  -1.799  0.00  0.00    -0.510 N 
ATOM      6  C   LIG    1        1.301  -2.822  -1.855  0.00  0.00    +0.260 C 
ATOM      7  H   LIG    1        3.290  -2.451  -1.478  0.00  0.00    +0.440 HD
ATOM      8  H   LIG    1        2.664  -1.538  -2.709  0.00  0.00    +0.430 HD
ATOM      9  C   LIG    1        0.078  -1.970  -1.456  0.00  0.00    +0.280 C 
BRANCH   3  11
ATOM     10  C   LIG    1       -0.017   1.425   0.010  0.00  0.00    +0.240 C 
ATOM     11  O   LIG    1        0.002  -0.004   0.002  0.00  0.00    -0.350 OA
ENDBRANCH   3  11
ENDBRANCH   1   9
BRANCH   1  12
ATOM     12  C   LIG    1       -1.835  -2.891  -2.723  0.00  0.00    +0.340 A 
ATOM     13  C   LIG    1       -1.894  -3.955  -1.820  0.00  0.00    +0.190 A 
ATOM     14  N   LIG    1       -2.804  -4.899  -1.969  0.00  0.00    -0.400 NA
ATOM     15  C   LIG    1       -3.663  -4.841  -2.972  0.00  0.00    +0.260 A 
ATOM     16  C   LIG    1       -3.611  -3.783  -3.876  0.00  0.00    +0.080 A 
ATOM     17  N   LIG    1       -2.697  -2.826  -3.725  0.00  0.00    -0.470 NA
BRANCH  16  18
ATOM     18  C   LIG    1       -4.574  -3.719  -4.999  0.00  0.00    +0.580 C 
ATOM     19  O   LIG    1       -5.410  -4.590  -5.133  0.00  0.00    -0.510 OA
ATOM     20  N   LIG    1       -4.522  -2.695  -5.874  0.00  0.00    -0.830 N 
ATOM     21  H   LIG    1       -5.152  -2.653  -6.609  0.00  0.00    +0.410 HD
ATOM     22  H   LIG    1       -3.854  -1.999  -5.767  0.00  0.00    +0.410 HD
ENDBRANCH  16  18
ENDBRANCH   1  12
TORSDOF 4
ENDMDL
MODEL       63
REMARK  Name = ZINC000534658823
REMARK                            x       y       z     vdW  Elec       q    Type
REMARK                         _______ _______ _______ _____ _____    ______ ____
ROOT
ATOM      1  C   LIG    1       -0.018   1.461   0.010  0.00  0.00    +0.310 C 
ATOM      2  N   LIG    1        0.002  -0.004   0.002  0.00  0.00    -0.570 N 
ATOM      3  C   LIG    1        0.007  -0.722  -1.127  0.00  0.00    +0.530 C 
ATOM      4  C   LIG    1        0.029  -2.195  -0.786  0.00  0.00    +0.020 C 
ATOM      5  C   LIG    1        1.389  -2.792  -1.205  0.00  0.00    +0.340 C 
ATOM      6  N   LIG    1        2.280  -2.546  -0.049  0.00  0.00    -0.610 N 
ATOM      7  C   LIG    1        1.427  -2.804   1.134  0.00  0.00    +0.320 C 
ATOM      8  C   LIG    1        3.575  -2.171  -0.068  0.00  0.00    +0.530 C 
ATOM      9  O   LIG    1        4.140  -1.996  -1.127  0.00  0.00    -0.510 OA
ATOM     10  C   LIG    1        0.036  -2.203   0.766  0.00  0.00    +0.020 C 
ATOM     11  O   LIG    1       -0.004  -0.262  -2.249  0.00  0.00    -0.460 OA
ATOM     12  C   LIG    1        0.023  -0.734   1.123  0.00  0.00    +0.530 C 
ATOM     13  O   LIG    1        0.039  -0.286   2.250  0.00  0.00    -0.470 OA
ENDROOT
BRANCH   8  14
ATOM     14  C   LIG    1        4.320  -1.968   1.226  0.00  0.00    +0.220 C 
ATOM     15  C   LIG    1        3.693  -0.847   2.022  0.00  0.00    +0.000 C 
ATOM     16  C   LIG    1        4.634  -0.075   2.504  0.00  0.00    +0.070 C 
ATOM     17  C   LIG    1        5.985  -0.603   2.080  0.00  0.00    +0.330 C 
ATOM     18  N   LIG    1        5.710  -1.531   0.956  0.00  0.00    -0.500 N 
ATOM     19  H   LIG    1        5.768  -1.048   0.072  0.00  0.00    +0.440 HD
ATOM     20  H   LIG    1        6.344  -2.315   0.976  0.00  0.00    +0.450 HD
ENDBRANCH   8  14
TORSDOF 1
ENDMDL
MODEL       64
REMARK  Name = ZINC000534658820
REMARK                            x       y       z     vdW  Elec       q    Type
REMARK                         _______ _______ _______ _____ _____    ______ ____
ROOT
ATOM      1  C   LIG    1       -0.018   1.461   0.010  0.00  0.00    +0.310 C 
ATOM      2  N   LIG    1        0.002  -0.004   0.002  0.00  0.00    -0.570 N 
ATOM      3  C   LIG    1        0.007  -0.722  -1.127  0.00  0.00    +0.530 C 
ATOM      4  C   LIG    1        0.029  -2.195  -0.786  0.00  0.00    +0.020 C 
ATOM      5  C   LIG    1        1.389  -2.792  -1.205  0.00  0.00    +0.340 C 
ATOM      6  N   LIG    1        2.280  -2.546  -0.049  0.00  0.00    -0.610 N 
ATOM      7  C   LIG    1        1.427  -2.804   1.134  0.00  0.00    +0.320 C 
ATOM      8  C   LIG    1        3.575  -2.171  -0.068  0.00  0.00    +0.540 C 
ATOM      9  O   LIG    1        4.140  -1.996  -1.127  0.00  0.00    -0.510 OA
ATOM     10  C   LIG    1        0.036  -2.203   0.766  0.00  0.00    +0.020 C 
ATOM     11  O   LIG    1       -0.004  -0.262  -2.249  0.00  0.00    -0.460 OA
ATOM     12  C   LIG    1        0.023  -0.734   1.123  0.00  0.00    +0.530 C 
ATOM     13  O   LIG    1        0.039  -0.286   2.250  0.00  0.00    -0.470 OA
ENDROOT
BRANCH   8  14
ATOM     14  C   LIG    1        4.320  -1.968   1.226  0.00  0.00    +0.220 C 
ATOM     15  C   LIG    1        4.393  -3.266   1.997  0.00  0.00    +0.010 C 
ATOM     16  C   LIG    1        5.604  -3.425   2.470  0.00  0.00    +0.060 C 
ATOM     17  C   LIG    1        6.461  -2.249   2.063  0.00  0.00    +0.330 C 
ATOM     18  N   LIG    1        5.727  -1.590   0.955  0.00  0.00    -0.500 N 
ATOM     19  H   LIG    1        5.847  -0.589   0.992  0.00  0.00    +0.450 HD
ATOM     20  H   LIG    1        6.028  -1.953   0.063  0.00  0.00    +0.440 HD
ENDBRANCH   8  14
TORSDOF 1
ENDMDL
MODEL       65
REMARK  Name = ZINC000040860505
REMARK                            x       y       z     vdW  Elec       q    Type
REMARK                         _______ _______ _______ _____ _____    ______ ____
ROOT
ATOM      1  O   LIG    1        0.002  -0.004   0.002  0.00  0.00    -0.950 OA
ATOM      2  S   LIG    1       -0.017   1.417   0.010  0.00  0.00    +2.780 S 
ATOM      3  O   LIG    1        1.162   2.210   0.003  0.00  0.00    -0.960 OA
ENDROOT
BRANCH   2   4
ATOM      4  N   LIG    1       -0.875   1.865   1.354  0.00  0.00    -1.020 NA
ATOM      5  C   LIG    1       -0.685   3.190   1.964  0.00  0.00    +0.320 C 
ATOM      6  C   LIG    1       -2.061   3.837   2.156  0.00  0.00    +0.260 C 
ATOM      7  N   LIG    1       -2.923   2.933   2.927  0.00  0.00    -0.500 N 
ATOM      8  C   LIG    1       -3.168   1.703   2.162  0.00  0.00    +0.270 C 
ATOM      9  H   LIG    1       -3.803   3.389   3.117  0.00  0.00    +0.440 HD
ATOM     10  H   LIG    1       -2.471   2.700   3.799  0.00  0.00    +0.430 HD
ATOM     11  C   LIG    1       -1.852   0.953   1.967  0.00  0.00    +0.330 C 
ENDBRANCH   2   4
BRANCH   2  12
ATOM     12  N   LIG    1       -0.900   1.880  -1.312  0.00  0.00    -1.120 NA
ATOM     13  H   LIG    1       -1.261   1.209  -1.914  0.00  0.00    +0.430 HD
BRANCH  12  14
ATOM     14  C   LIG    1       -1.137   3.302  -1.574  0.00  0.00    +0.280 C 
BRANCH  14  15
ATOM     15  C   LIG    1       -1.634   3.480  -3.010  0.00  0.00    +0.190 C 
BRANCH  15  16
ATOM     16  O   LIG    1       -2.910   2.852  -3.153  0.00  0.00    -0.580 OA
ATOM     17  H   LIG    1       -3.287   2.926  -4.040  0.00  0.00    +0.390 HD
ENDBRANCH  15  16
ENDBRANCH  14  15
ENDBRANCH  12  14
ENDBRANCH   2  12
TORSDOF 5
ENDMDL
MODEL       66
REMARK  Name = ZINC000004955833
REMARK                            x       y       z     vdW  Elec       q    Type
REMARK                         _______ _______ _______ _____ _____    ______ ____
ROOT
ATOM      1  C   LIG    1        0.762  -0.676   1.142  0.00  0.00    +0.200 C 
ATOM      2  N   LIG    1        0.230  -0.728  -0.226  0.00  0.00    -0.520 NA
ENDROOT
BRANCH   2   3
ATOM      3  C   LIG    1       -1.210  -1.016  -0.221  0.00  0.00    +0.160 C 
BRANCH   3   4
ATOM      4  C   LIG    1       -1.804  -0.674  -1.589  0.00  0.00    +0.180 C 
BRANCH   4   5
ATOM      5  O   LIG    1       -1.593   0.712  -1.867  0.00  0.00    -0.540 OA
ATOM      6  H   LIG    1       -1.999   1.308  -1.222  0.00  0.00    +0.380 HD
ENDBRANCH   4   5
BRANCH   4   7
ATOM      7  C   LIG    1       -3.304  -0.971  -1.583  0.00  0.00    +0.190 C 
BRANCH   7   8
ATOM      8  N   LIG    1       -3.857  -0.728  -2.922  0.00  0.00    -0.530 NA
ATOM      9  C   LIG    1       -3.016  -1.344  -3.959  0.00  0.00    +0.140 C 
ATOM     10  C   LIG    1       -3.659  -1.119  -5.330  0.00  0.00    +0.220 C 
ATOM     11  O   LIG    1       -3.839   0.284  -5.542  0.00  0.00    -0.380 OA
ATOM     12  C   LIG    1       -4.653   0.916  -4.551  0.00  0.00    +0.220 C 
ATOM     13  C   LIG    1       -4.021   0.712  -3.172  0.00  0.00    +0.160 C 
ENDBRANCH   7   8
ENDBRANCH   4   7
ENDBRANCH   3   4
ENDBRANCH   2   3
BRANCH   2  14
ATOM     14  C   LIG    1        0.961  -1.711  -1.038  0.00  0.00    +0.160 C 
BRANCH  14  15
ATOM     15  C   LIG    1        2.406  -1.245  -1.226  0.00  0.00    +0.200 C 
BRANCH  15  16
ATOM     16  O   LIG    1        2.415   0.021  -1.889  0.00  0.00    -0.540 OA
ATOM     17  H   LIG    1        2.003   0.010  -2.764  0.00  0.00    +0.390 HD
ENDBRANCH  15  16
BRANCH  15  18
ATOM     18  C   LIG    1        3.166  -2.269  -2.071  0.00  0.00    +0.230 C 
BRANCH  18  19
ATOM     19  N   LIG    1        4.581  -1.883  -2.151  0.00  0.00    -0.630 N 
ATOM     20  H   LIG    1        5.083  -2.558  -2.708  0.00  0.00    +0.440 HD
ATOM     21  H   LIG    1        4.975  -1.854  -1.223  0.00  0.00    +0.440 HD
ATOM     22  H   LIG    1        4.658  -0.972  -2.578  0.00  0.00    +0.440 HD
ENDBRANCH  18  19
ENDBRANCH  15  18
ENDBRANCH  14  15
ENDBRANCH   2  14
TORSDOF 10
ENDMDL
MODEL       67
REMARK  Name = ZINC000004955834
REMARK                            x       y       z     vdW  Elec       q    Type
REMARK                         _______ _______ _______ _____ _____    ______ ____
ROOT
ATOM      1  C   LIG    1        0.425  -0.523   0.089  0.00  0.00    +0.200 C 
ATOM      2  N   LIG    1       -0.543  -0.350  -1.002  0.00  0.00    -0.520 NA
ENDROOT
BRANCH   2   3
ATOM      3  C   LIG    1       -1.908  -0.205  -0.476  0.00  0.00    +0.160 C 
BRANCH   3   4
ATOM      4  C   LIG    1       -2.816   0.368  -1.566  0.00  0.00    +0.180 C 
BRANCH   4   5
ATOM      5  O   LIG    1       -2.334   1.655  -1.960  0.00  0.00    -0.540 OA
ATOM      6  H   LIG    1       -2.308   2.301  -1.241  0.00  0.00    +0.380 HD
ENDBRANCH   4   5
BRANCH   4   7
ATOM      7  C   LIG    1       -4.241   0.501  -1.025  0.00  0.00    +0.190 C 
BRANCH   7   8
ATOM      8  N   LIG    1       -5.143   0.902  -2.113  0.00  0.00    -0.530 NA
ATOM      9  C   LIG    1       -4.923   0.078  -3.310  0.00  0.00    +0.140 C 
ATOM     10  C   LIG    1       -5.921   0.489  -4.396  0.00  0.00    +0.220 C 
ATOM     11  O   LIG    1       -5.776   1.886  -4.666  0.00  0.00    -0.380 OA
ATOM     12  C   LIG    1       -5.983   2.718  -3.522  0.00  0.00    +0.220 C 
ATOM     13  C   LIG    1       -4.986   2.330  -2.427  0.00  0.00    +0.160 C 
ENDBRANCH   7   8
ENDBRANCH   4   7
ENDBRANCH   3   4
ENDBRANCH   2   3
BRANCH   2  14
ATOM     14  C   LIG    1       -0.463  -1.461  -1.959  0.00  0.00    +0.160 C 
BRANCH  14  15
ATOM     15  C   LIG    1        0.771  -1.282  -2.845  0.00  0.00    +0.220 C 
BRANCH  15  16
ATOM     16  O   LIG    1        1.949  -1.330  -2.037  0.00  0.00    -0.550 OA
ATOM     17  H   LIG    1        2.061  -2.161  -1.555  0.00  0.00    +0.390 HD
ENDBRANCH  15  16
BRANCH  15  18
ATOM     18  C   LIG    1        0.820  -2.404  -3.884  0.00  0.00    +0.240 C 
BRANCH  18  19
ATOM     19  N   LIG    1        2.005  -2.233  -4.735  0.00  0.00    -0.630 N 
ATOM     20  H   LIG    1        2.037  -2.973  -5.420  0.00  0.00    +0.440 HD
ATOM     21  H   LIG    1        2.837  -2.267  -4.164  0.00  0.00    +0.440 HD
ATOM     22  H   LIG    1        1.956  -1.341  -5.205  0.00  0.00    +0.440 HD
ENDBRANCH  18  19
ENDBRANCH  15  18
ENDBRANCH  14  15
ENDBRANCH   2  14
TORSDOF 10
ENDMDL
MODEL       68
REMARK  Name = ZINC000238572190
REMARK                            x       y       z     vdW  Elec       q    Type
REMARK                         _______ _______ _______ _____ _____    ______ ____
ROOT
ATOM      1  C   LIG    1        0.477   2.022   4.644  0.00  0.00    +0.270 C 
ENDROOT
BRANCH   1   2
ATOM      2  C   LIG    1        1.108   3.208   5.328  0.00  0.00    +0.200 A 
ATOM      3  C   LIG    1        0.366   4.003   6.128  0.00  0.00    -0.110 A 
ATOM      4  C   LIG    1        0.982   5.110   6.760  0.00  0.00    +0.550 A 
ATOM      5  N   LIG    1        2.292   5.347   6.550  0.00  0.00    -0.660 N 
ATOM      6  H   LIG    1        2.721   6.104   6.979  0.00  0.00    +0.440 HD
ATOM      7  C   LIG    1        3.008   4.538   5.747  0.00  0.00    +0.700 A 
ATOM      8  O   LIG    1        4.189   4.764   5.568  0.00  0.00    -0.530 OA
ATOM      9  O   LIG    1        0.333   5.842   7.487  0.00  0.00    -0.500 OA
ATOM     10  N   LIG    1        2.436   3.480   5.145  0.00  0.00    -0.630 N 
ATOM     11  H   LIG    1        2.969   2.908   4.570  0.00  0.00    +0.440 HD
ENDBRANCH   1   2
BRANCH   1  15
ATOM     12  C   LIG    1       -0.699   1.479   1.216  0.00  0.00    +0.170 C 
ATOM     13  C   LIG    1       -0.670   3.023   1.280  0.00  0.00    +0.070 C 
ATOM     14  C   LIG    1       -0.435   3.304   2.785  0.00  0.00    +0.210 C 
ATOM     15  N   LIG    1        0.503   2.225   3.189  0.00  0.00    -0.520 NA
ATOM     16  C   LIG    1        0.050   1.008   2.477  0.00  0.00    +0.210 C 
BRANCH  12  17
ATOM     17  N   LIG    1       -0.012   1.005   0.008  0.00  0.00    -0.630 N 
ATOM     18  H   LIG    1       -0.500   1.339  -0.810  0.00  0.00    +0.440 HD
ATOM     19  H   LIG    1        0.935   1.354   0.000  0.00  0.00    +0.440 HD
ATOM     20  H   LIG    1        0.002  -0.004   0.002  0.00  0.00    +0.440 HD
ENDBRANCH  12  17
ENDBRANCH   1  15
TORSDOF 3
ENDMDL
MODEL       69
REMARK  Name = ZINC000001719118
REMARK                            x       y       z     vdW  Elec       q    Type
REMARK                         _______ _______ _______ _____ _____    ______ ____
ROOT
ATOM      1  C   LIG    1       -1.877  -0.751  -0.300  0.00  0.00    +0.140 C 
ATOM      2  O   LIG    1       -2.246  -0.401   1.051  0.00  0.00    -0.360 OA
ATOM      3  C   LIG    1       -3.386  -1.205   1.397  0.00  0.00    +0.260 C 
ATOM      4  C   LIG    1       -3.317  -2.488   0.546  0.00  0.00    +0.180 C 
ATOM      5  C   LIG    1       -2.062  -2.290  -0.342  0.00  0.00    +0.140 C 
ENDROOT
BRANCH   4   6
ATOM      6  O   LIG    1       -3.167  -3.636   1.383  0.00  0.00    -0.540 OA
ATOM      7  H   LIG    1       -3.118  -4.472   0.899  0.00  0.00    +0.400 HD
ENDBRANCH   4   6
BRANCH   3   8
ATOM      8  O   LIG    1       -4.590  -0.492   1.105  0.00  0.00    -0.560 OA
ATOM      9  H   LIG    1       -4.683  -0.241   0.176  0.00  0.00    +0.410 HD
ENDBRANCH   3   8
BRANCH   5  10
ATOM     10  O   LIG    1       -0.929  -2.952   0.222  0.00  0.00    -0.540 OA
ATOM     11  H   LIG    1       -0.119  -2.857  -0.298  0.00  0.00    +0.390 HD
ENDBRANCH   5  10
BRANCH   1  12
ATOM     12  C   LIG    1       -0.420  -0.376  -0.575  0.00  0.00    +0.220 C 
BRANCH  12  13
ATOM     13  O   LIG    1       -0.290   1.047  -0.596  0.00  0.00    -0.570 OA
ATOM     14  H   LIG    1        0.610   1.357  -0.766  0.00  0.00    +0.390 HD
ENDBRANCH  12  13
ENDBRANCH   1  12
BRANCH   3  15
ATOM     15  C   LIG    1       -3.340  -1.560   2.884  0.00  0.00    +0.340 C 
BRANCH  15  16
ATOM     16  N   LIG    1       -3.542  -0.345   3.685  0.00  0.00    -0.380 N 
ATOM     17  C   LIG    1       -2.499   0.634   3.357  0.00  0.00    +0.260 C 
ATOM     18  C   LIG    1       -2.752   1.931   4.128  0.00  0.00    +0.050 C 
ATOM     19  C   LIG    1       -2.725   1.639   5.631  0.00  0.00    +0.030 C 
ATOM     20  C   LIG    1       -3.767   0.562   5.950  0.00  0.00    +0.060 C 
ATOM     21  C   LIG    1       -3.475  -0.684   5.111  0.00  0.00    +0.250 C 
ATOM     22  H   LIG    1       -4.448   0.047   3.476  0.00  0.00    +0.430 HD
ENDBRANCH  15  16
ENDBRANCH   3  15
TORSDOF 7
ENDMDL
MODEL       70
REMARK  Name = ZINC000067675284
REMARK                            x       y       z     vdW  Elec       q    Type
REMARK                         _______ _______ _______ _____ _____    ______ ____
ROOT
ATOM      1  C   LIG    1       -0.018   1.465   0.010  0.00  0.00    +0.220 C 
ATOM      2  N   LIG    1        0.002  -0.004   0.002  0.00  0.00    -0.500 NA
ATOM      3  C   LIG    1       -1.367  -0.551  -0.008  0.00  0.00    +0.230 C 
ATOM      4  C   LIG    1       -1.498  -1.478   1.219  0.00  0.00    +0.160 C 
ATOM      5  C   LIG    1       -0.025  -1.849   1.535  0.00  0.00    +0.080 C 
ATOM      6  C   LIG    1        0.711  -0.531   1.188  0.00  0.00    +0.160 C 
ENDROOT
BRANCH   6   7
ATOM      7  C   LIG    1        2.155  -0.808   0.859  0.00  0.00    +0.530 C 
ATOM      8  N   LIG    1        3.049  -0.993   1.851  0.00  0.00    -0.620 N 
ATOM      9  C   LIG    1        2.750  -0.958   3.294  0.00  0.00    +0.260 C 
ATOM     10  C   LIG    1        3.868  -1.805   3.951  0.00  0.00    +0.010 C 
ATOM     11  C   LIG    1        5.096  -1.430   3.079  0.00  0.00    +0.170 C 
ATOM     12  C   LIG    1        4.482  -1.269   1.672  0.00  0.00    +0.280 C 
ATOM     13  O   LIG    1        2.513  -0.864  -0.299  0.00  0.00    -0.500 OA
BRANCH  11  14
ATOM     14  O   LIG    1        6.064  -2.481   3.091  0.00  0.00    -0.560 OA
ATOM     15  H   LIG    1        6.423  -2.675   3.968  0.00  0.00    +0.390 HD
ENDBRANCH  11  14
ENDBRANCH   6   7
BRANCH   4  16
ATOM     16  N   LIG    1       -2.279  -2.677   0.883  0.00  0.00    -0.630 N 
ATOM     17  H   LIG    1       -3.209  -2.405   0.604  0.00  0.00    +0.440 HD
ATOM     18  H   LIG    1       -2.332  -3.280   1.690  0.00  0.00    +0.440 HD
ATOM     19  H   LIG    1       -1.830  -3.168   0.125  0.00  0.00    +0.440 HD
ENDBRANCH   4  16
TORSDOF 3
ENDMDL
MODEL       71
REMARK  Name = ZINC000231659812
REMARK                            x       y       z     vdW  Elec       q    Type
REMARK                         _______ _______ _______ _____ _____    ______ ____
ROOT
ATOM      1  C   LIG    1       -1.359  -2.014  -0.120  0.00  0.00    +0.500 C 
ATOM      2  N   LIG    1       -2.517  -2.702  -0.134  0.00  0.00    -0.580 N 
ATOM      3  C   LIG    1       -3.805  -2.003  -0.027  0.00  0.00    +0.270 C 
ATOM      4  C   LIG    1       -4.694  -2.425  -1.202  0.00  0.00    +0.050 C 
ATOM      5  C   LIG    1       -4.807  -3.951  -1.228  0.00  0.00    +0.080 C 
ATOM      6  C   LIG    1       -3.419  -4.564  -1.427  0.00  0.00    -0.470 C 
ATOM      7  C   LIG    1       -2.516  -4.166  -0.262  0.00  0.00    +0.350 C 
ATOM      8  O   LIG    1       -0.302  -2.602  -0.213  0.00  0.00    -0.520 OA
ENDROOT
BRANCH   6   9
ATOM      9  S   LIG    1       -3.560  -6.371  -1.498  0.00  0.00    +2.620 S 
ATOM     10  O   LIG    1       -4.290  -6.859  -0.380  0.00  0.00    -0.940 OA
ATOM     11  O   LIG    1       -2.320  -6.954  -1.874  0.00  0.00    -0.950 OA
BRANCH   9  12
ATOM     12  N   LIG    1       -4.554  -6.658  -2.791  0.00  0.00    -1.240 NA
ATOM     13  H   LIG    1       -5.234  -6.010  -3.033  0.00  0.00    +0.410 HD
ATOM     14  H   LIG    1       -4.457  -7.474  -3.306  0.00  0.00    +0.430 HD
ENDBRANCH   9  12
ENDBRANCH   6   9
BRANCH   1  15
ATOM     15  C   LIG    1       -1.376  -0.512   0.012  0.00  0.00    +0.290 C 
BRANCH  15  17
ATOM     16  C   LIG    1       -0.018   1.465   0.010  0.00  0.00    +0.320 C 
ATOM     17  N   LIG    1        0.002  -0.004   0.002  0.00  0.00    -0.370 N 
ATOM     18  C   LIG    1        0.713  -0.491   1.192  0.00  0.00    +0.330 C 
ATOM     19  H   LIG    1        0.474  -0.330  -0.828  0.00  0.00    +0.430 HD
ENDBRANCH  15  17
ENDBRANCH   1  15
TORSDOF 4
ENDMDL
MODEL       72
REMARK  Name = ZINC000096663668
REMARK                            x       y       z     vdW  Elec       q    Type
REMARK                         _______ _______ _______ _____ _____    ______ ____
ROOT
ATOM      1  C   LIG    1       -3.601  -0.999   0.031  0.00  0.00    +0.030 C 
ENDROOT
BRANCH   1   2
ATOM      2  C   LIG    1       -2.452   0.011   0.025  0.00  0.00    +0.290 C 
BRANCH   2   3
ATOM      3  N   LIG    1       -1.173  -0.704   0.009  0.00  0.00    -0.700 N 
ATOM      4  H   LIG    1       -1.160  -1.674   0.004  0.00  0.00    +0.440 HD
BRANCH   3   8
ATOM      5  N   LIG    1       -0.016   1.328   0.009  0.00  0.00    -0.790 N 
ATOM      6  H   LIG    1       -0.863   1.801   0.016  0.00  0.00    +0.440 HD
ATOM      7  H   LIG    1        0.817   1.824   0.004  0.00  0.00    +0.440 HD
ATOM      8  C   LIG    1        0.002  -0.004   0.002  0.00  0.00    +0.740 C 
BRANCH   8   9
ATOM      9  N   LIG    1        1.165  -0.654  -0.013  0.00  0.00    -0.790 N 
ATOM     10  H   LIG    1        1.998  -0.158  -0.018  0.00  0.00    +0.440 HD
ATOM     11  H   LIG    1        1.178  -1.624  -0.018  0.00  0.00    +0.440 HD
ENDBRANCH   8   9
ENDBRANCH   3   8
ENDBRANCH   2   3
ENDBRANCH   1   2
BRANCH   1  12
ATOM     12  C   LIG    1       -4.936  -0.252   0.048  0.00  0.00    +0.080 C 
BRANCH  12  13
ATOM     13  C   LIG    1       -6.085  -1.262   0.053  0.00  0.00    +0.230 C 
ATOM     14  N   LIG    1       -6.129  -1.990   1.333  0.00  0.00    -0.660 N 
ATOM     15  H   LIG    1       -5.435  -2.560   1.700  0.00  0.00    +0.450 HD
ATOM     16  C   LIG    1       -7.320  -1.710   1.894  0.00  0.00    +0.540 C 
ATOM     17  N   LIG    1       -8.060  -0.890   1.140  0.00  0.00    -0.640 N 
ATOM     18  H   LIG    1       -8.946  -0.579   1.382  0.00  0.00    +0.450 HD
ATOM     19  S   LIG    1       -7.830  -2.335   3.404  0.00  0.00    -0.520 S 
ATOM     20  C   LIG    1       -7.422  -0.549  -0.001  0.00  0.00    +0.520 C 
ATOM     21  O   LIG    1       -7.833   0.177  -0.881  0.00  0.00    -0.440 OA
ENDBRANCH  12  13
ENDBRANCH   1  12
TORSDOF 6
ENDMDL
MODEL       73
REMARK  Name = ZINC000002564585
REMARK                            x       y       z     vdW  Elec       q    Type
REMARK                         _______ _______ _______ _____ _____    ______ ____
ROOT
ATOM      1  C   LIG    1       -3.601  -0.999   0.031  0.00  0.00    +0.030 C 
ENDROOT
BRANCH   1   2
ATOM      2  C   LIG    1       -2.452   0.011   0.025  0.00  0.00    +0.290 C 
BRANCH   2   3
ATOM      3  N   LIG    1       -1.173  -0.704   0.009  0.00  0.00    -0.700 N 
ATOM      4  H   LIG    1       -1.160  -1.674   0.004  0.00  0.00    +0.440 HD
BRANCH   3   8
ATOM      5  N   LIG    1       -0.016   1.328   0.009  0.00  0.00    -0.790 N 
ATOM      6  H   LIG    1       -0.863   1.801   0.016  0.00  0.00    +0.440 HD
ATOM      7  H   LIG    1        0.817   1.824   0.004  0.00  0.00    +0.440 HD
ATOM      8  C   LIG    1        0.002  -0.004   0.002  0.00  0.00    +0.740 C 
BRANCH   8   9
ATOM      9  N   LIG    1        1.165  -0.654  -0.013  0.00  0.00    -0.790 N 
ATOM     10  H   LIG    1        1.998  -0.158  -0.018  0.00  0.00    +0.440 HD
ATOM     11  H   LIG    1        1.178  -1.624  -0.018  0.00  0.00    +0.440 HD
ENDBRANCH   8   9
ENDBRANCH   3   8
ENDBRANCH   2   3
ENDBRANCH   1   2
BRANCH   1  12
ATOM     12  C   LIG    1       -4.936  -0.252   0.048  0.00  0.00    +0.080 C 
BRANCH  12  13
ATOM     13  C   LIG    1       -6.085  -1.262   0.053  0.00  0.00    +0.230 C 
ATOM     14  N   LIG    1       -6.154  -1.976  -1.233  0.00  0.00    -0.660 N 
ATOM     15  H   LIG    1       -5.467  -2.542  -1.619  0.00  0.00    +0.450 HD
ATOM     16  C   LIG    1       -7.354  -1.691  -1.768  0.00  0.00    +0.540 C 
ATOM     17  N   LIG    1       -8.080  -0.878  -0.992  0.00  0.00    -0.640 N 
ATOM     18  H   LIG    1       -8.971  -0.564  -1.213  0.00  0.00    +0.450 HD
ATOM     19  S   LIG    1       -7.894  -2.299  -3.275  0.00  0.00    -0.520 S 
ATOM     20  C   LIG    1       -7.421  -0.550   0.141  0.00  0.00    +0.520 C 
ATOM     21  O   LIG    1       -7.815   0.166   1.037  0.00  0.00    -0.440 OA
ENDBRANCH  12  13
ENDBRANCH   1  12
TORSDOF 6
ENDMDL
MODEL       74
REMARK  Name = ZINC000002516274
REMARK                            x       y       z     vdW  Elec       q    Type
REMARK                         _______ _______ _______ _____ _____    ______ ____
ROOT
ATOM      1  C   LIG    1       -6.085  -1.262   0.053  0.00  0.00    +0.180 C 
ENDROOT
BRANCH   1   2
ATOM      2  C   LIG    1       -7.396  -0.531   0.194  0.00  0.00    +0.480 C 
ATOM      3  N   LIG    1       -7.805  -0.109   1.406  0.00  0.00    -0.690 N 
ATOM      4  H   LIG    1       -7.257  -0.276   2.189  0.00  0.00    +0.400 HD
ATOM      5  O   LIG    1       -8.082  -0.323  -0.785  0.00  0.00    -0.520 OA
BRANCH   3   6
ATOM      6  C   LIG    1       -9.079   0.602   1.543  0.00  0.00    +0.290 C 
BRANCH   6   7
ATOM      7  C   LIG    1       -9.305   0.967   3.011  0.00  0.00    -0.060 C 
BRANCH   7   8
ATOM      8  C   LIG    1      -10.615   1.698   3.151  0.00  0.00    +0.490 C 
ATOM      9  O   LIG    1      -10.986   2.079   4.248  0.00  0.00    -0.680 OA
ATOM     10  O   LIG    1      -11.305   1.907   2.168  0.00  0.00    -0.690 OA
ENDBRANCH   7   8
ENDBRANCH   6   7
ENDBRANCH   3   6
ENDBRANCH   1   2
BRANCH   1  11
ATOM     11  N   LIG    1       -6.079  -2.018  -1.206  0.00  0.00    -0.620 N 
ATOM     12  H   LIG    1       -6.837  -2.684  -1.202  0.00  0.00    +0.450 HD
ATOM     13  H   LIG    1       -5.201  -2.507  -1.300  0.00  0.00    +0.430 HD
ATOM     14  H   LIG    1       -6.194  -1.382  -1.981  0.00  0.00    +0.440 HD
ENDBRANCH   1  11
BRANCH   1  15
ATOM     15  C   LIG    1       -4.936  -0.252   0.048  0.00  0.00    +0.100 C 
BRANCH  15  16
ATOM     16  C   LIG    1       -3.601  -0.999   0.031  0.00  0.00    +0.030 C 
BRANCH  16  17
ATOM     17  C   LIG    1       -2.452   0.011   0.025  0.00  0.00    +0.290 C 
BRANCH  17  18
ATOM     18  N   LIG    1       -1.173  -0.704   0.009  0.00  0.00    -0.700 N 
ATOM     19  H   LIG    1       -1.160  -1.674   0.004  0.00  0.00    +0.440 HD
BRANCH  18  23
ATOM     20  N   LIG    1       -0.016   1.328   0.009  0.00  0.00    -0.790 N 
ATOM     21  H   LIG    1       -0.863   1.801   0.016  0.00  0.00    +0.440 HD
ATOM     22  H   LIG    1        0.817   1.824   0.004  0.00  0.00    +0.440 HD
ATOM     23  C   LIG    1        0.002  -0.004   0.002  0.00  0.00    +0.750 C 
BRANCH  23  24
ATOM     24  N   LIG    1        1.165  -0.654  -0.013  0.00  0.00    -0.790 N 
ATOM     25  H   LIG    1        1.178  -1.624  -0.018  0.00  0.00    +0.440 HD
ATOM     26  H   LIG    1        1.998  -0.158  -0.018  0.00  0.00    +0.440 HD
ENDBRANCH  23  24
ENDBRANCH  18  23
ENDBRANCH  17  18
ENDBRANCH  16  17
ENDBRANCH  15  16
ENDBRANCH   1  15
TORSDOF 11
ENDMDL
MODEL       75
REMARK  Name = ZINC000092699955
REMARK                            x       y       z     vdW  Elec       q    Type
REMARK                         _______ _______ _______ _____ _____    ______ ____
ROOT
ATOM      1  C   LIG    1        1.269   1.938  -0.028  0.00  0.00    -0.060 A 
ATOM      2  C   LIG    1        2.510   1.372   0.057  0.00  0.00    +0.270 A 
ATOM      3  N   LIG    1        3.404   2.378  -0.016  0.00  0.00    -0.380 N 
ATOM      4  N   LIG    1        2.669   3.565  -0.147  0.00  0.00    -0.020 NA
ATOM      5  N   LIG    1        1.416   3.268  -0.157  0.00  0.00    -0.190 NA
ENDROOT
BRANCH   1   7
ATOM      6  O   LIG    1       -0.026  -0.004  -0.001  0.00  0.00    -0.530 OA
ATOM      7  C   LIG    1       -0.014   1.212   0.009  0.00  0.00    +0.600 C 
ATOM      8  N   LIG    1       -1.175   1.896   0.047  0.00  0.00    -0.590 N 
ATOM      9  C   LIG    1       -2.464   1.196   0.163  0.00  0.00    +0.270 C 
ATOM     10  C   LIG    1       -3.259   1.833   1.308  0.00  0.00    +0.220 C 
ATOM     11  O   LIG    1       -3.321   3.247   1.108  0.00  0.00    -0.380 OA
ATOM     12  C   LIG    1       -2.048   3.897   1.129  0.00  0.00    +0.210 C 
ATOM     13  C   LIG    1       -1.190   3.366  -0.019  0.00  0.00    +0.260 C 
ENDBRANCH   1   7
BRANCH   3  14
ATOM     14  C   LIG    1        4.863   2.255   0.032  0.00  0.00    +0.290 C 
ATOM     15  C   LIG    1        5.353   0.861   0.465  0.00  0.00    +0.350 C 
ATOM     16  N   LIG    1        5.347   0.521  -0.975  0.00  0.00    -0.540 N 
ATOM     17  H   LIG    1        4.469   0.134  -1.285  0.00  0.00    +0.440 HD
ATOM     18  H   LIG    1        6.138  -0.043  -1.250  0.00  0.00    +0.440 HD
ATOM     19  C   LIG    1        5.504   1.948  -1.333  0.00  0.00    +0.340 C 
ENDBRANCH   3  14
TORSDOF 2
ENDMDL
MODEL       76
REMARK  Name = ZINC000005985356
REMARK                            x       y       z     vdW  Elec       q    Type
REMARK                         _______ _______ _______ _____ _____    ______ ____
ROOT
ATOM      1  C   LIG    1       -2.694   0.465   0.030  0.00  0.00    +0.040 C 
ATOM      2  C   LIG    1       -2.555   1.263  -1.282  0.00  0.00    -0.310 C 
ATOM      3  S   LIG    1       -3.872   0.539  -2.342  0.00  0.00    +2.400 S 
ATOM      4  C   LIG    1       -5.037   0.271  -0.946  0.00  0.00    -0.300 C 
ATOM      5  O   LIG    1       -3.441  -0.713  -2.858  0.00  0.00    -0.900 OA
ATOM      6  O   LIG    1       -4.387   1.534  -3.216  0.00  0.00    -0.900 OA
ATOM      7  C   LIG    1       -4.098  -0.096   0.217  0.00  0.00    +0.240 C 
ENDROOT
BRANCH   7   8
ATOM      8  O   LIG    1       -4.640   0.424   1.433  0.00  0.00    -0.540 OA
ATOM      9  H   LIG    1       -5.509   0.065   1.661  0.00  0.00    +0.410 HD
ENDBRANCH   7   8
BRANCH   1  10
ATOM     10  S   LIG    1       -1.512  -0.906   0.012  0.00  0.00    +0.130 S 
BRANCH  10  14
ATOM     11  N   LIG    1       -0.016   1.329   0.009  0.00  0.00    -0.770 N 
ATOM     12  H   LIG    1       -0.863   1.802   0.016  0.00  0.00    +0.440 HD
ATOM     13  H   LIG    1        0.817   1.825   0.004  0.00  0.00    +0.440 HD
ATOM     14  C   LIG    1        0.002  -0.004   0.002  0.00  0.00    +0.470 C 
BRANCH  14  15
ATOM     15  N   LIG    1        1.165  -0.655  -0.013  0.00  0.00    -0.740 N 
ATOM     16  H   LIG    1        1.179  -1.625  -0.018  0.00  0.00    +0.450 HD
ATOM     17  H   LIG    1        1.999  -0.158  -0.018  0.00  0.00    +0.440 HD
ENDBRANCH  14  15
ENDBRANCH  10  14
ENDBRANCH   1  10
TORSDOF 4
ENDMDL
MODEL       77
REMARK  Name = ZINC000006303516
REMARK                            x       y       z     vdW  Elec       q    Type
REMARK                         _______ _______ _______ _____ _____    ______ ____
ROOT
ATOM      1  C   LIG    1       -2.719   0.283   0.029  0.00  0.00    +0.030 C 
ATOM      2  C   LIG    1       -2.771   0.916  -1.386  0.00  0.00    -0.300 C 
ATOM      3  S   LIG    1       -4.424   1.720  -1.356  0.00  0.00    +2.400 S 
ATOM      4  C   LIG    1       -5.232   0.412  -0.359  0.00  0.00    -0.310 C 
ATOM      5  O   LIG    1       -4.972   1.732  -2.667  0.00  0.00    -0.900 OA
ATOM      6  O   LIG    1       -4.357   2.922  -0.602  0.00  0.00    -0.910 OA
ATOM      7  C   LIG    1       -4.085  -0.333   0.338  0.00  0.00    +0.250 C 
ENDROOT
BRANCH   7   8
ATOM      8  O   LIG    1       -4.087  -1.695  -0.092  0.00  0.00    -0.560 OA
ATOM      9  H   LIG    1       -4.897  -2.176   0.128  0.00  0.00    +0.410 HD
ENDBRANCH   7   8
BRANCH   1  10
ATOM     10  S   LIG    1       -1.447  -1.004   0.074  0.00  0.00    +0.110 S 
BRANCH  10  14
ATOM     11  N   LIG    1        0.327   0.858   0.860  0.00  0.00    -0.740 N 
ATOM     12  H   LIG    1       -0.268   0.999   1.613  0.00  0.00    +0.450 HD
ATOM     13  H   LIG    1        1.160   1.352   0.801  0.00  0.00    +0.430 HD
ATOM     14  C   LIG    1       -0.001  -0.011  -0.096  0.00  0.00    +0.470 C 
BRANCH  14  15
ATOM     15  N   LIG    1        0.764  -0.129  -1.181  0.00  0.00    -0.720 N 
ATOM     16  H   LIG    1        0.524  -0.761  -1.877  0.00  0.00    +0.450 HD
ATOM     17  H   LIG    1        1.560   0.418  -1.275  0.00  0.00    +0.430 HD
ENDBRANCH  14  15
ENDBRANCH  10  14
ENDBRANCH   1  10
TORSDOF 4
ENDMDL
MODEL       78
REMARK  Name = ZINC000042783863
REMARK                            x       y       z     vdW  Elec       q    Type
REMARK                         _______ _______ _______ _____ _____    ______ ____
ROOT
ATOM      1  C   LIG    1       -1.299   1.931   0.019  0.00  0.00    +0.030 A 
ATOM      2  C   LIG    1       -2.553   1.379   0.027  0.00  0.00    -0.200 A 
ATOM      3  C   LIG    1       -2.993  -0.058   0.037  0.00  0.00    +0.390 C 
ATOM      4  N   LIG    1       -4.404  -0.102   0.461  0.00  0.00    -0.510 N 
ATOM      5  C   LIG    1       -5.215   0.805  -0.361  0.00  0.00    +0.290 C 
ATOM      6  C   LIG    1       -4.943   2.263   0.036  0.00  0.00    +0.180 C 
ATOM      7  H   LIG    1       -4.471   0.179   1.428  0.00  0.00    +0.430 HD
ATOM      8  H   LIG    1       -4.753  -1.044   0.363  0.00  0.00    +0.440 HD
ATOM      9  C   LIG    1       -3.446   2.461   0.032  0.00  0.00    +0.020 A 
ATOM     10  N   LIG    1       -2.747   3.554   0.031  0.00  0.00    -0.220 NA
ATOM     11  N   LIG    1       -1.485   3.288   0.027  0.00  0.00    -0.370 N 
ATOM     12  H   LIG    1       -0.775   3.950   0.025  0.00  0.00    +0.460 HD
ENDROOT
BRANCH   1  14
ATOM     13  O   LIG    1        0.002  -0.004   0.002  0.00  0.00    -0.520 OA
ATOM     14  C   LIG    1       -0.014   1.212   0.009  0.00  0.00    +0.580 C 
ATOM     15  N   LIG    1        1.143   1.902   0.001  0.00  0.00    -0.710 N 
ATOM     16  H   LIG    1        1.130   2.872   0.007  0.00  0.00    +0.400 HD
BRANCH  15  17
ATOM     17  C   LIG    1        2.422   1.187  -0.015  0.00  0.00    +0.300 C 
BRANCH  17  18
ATOM     18  C   LIG    1        3.571   2.197  -0.020  0.00  0.00    +0.190 C 
BRANCH  18  19
ATOM     19  O   LIG    1        3.565   2.932   1.205  0.00  0.00    -0.580 OA
ATOM     20  H   LIG    1        4.268   3.592   1.271  0.00  0.00    +0.390 HD
ENDBRANCH  18  19
ENDBRANCH  17  18
ENDBRANCH  15  17
ENDBRANCH   1  14
TORSDOF 4
ENDMDL
MODEL       79
REMARK  Name = ZINC000004336693
REMARK                            x       y       z     vdW  Elec       q    Type
REMARK                         _______ _______ _______ _____ _____    ______ ____
ROOT
ATOM      1  C   LIG    1       -2.715   0.292  -0.132  0.00  0.00    +0.060 C 
ATOM      2  C   LIG    1       -2.595   1.181   1.122  0.00  0.00    -0.310 C 
ATOM      3  S   LIG    1       -4.341   1.640   1.467  0.00  0.00    +2.400 S 
ATOM      4  C   LIG    1       -5.018   0.021   0.920  0.00  0.00    -0.300 C 
ATOM      5  O   LIG    1       -4.756   2.663   0.572  0.00  0.00    -0.900 OA
ATOM      6  O   LIG    1       -4.531   1.794   2.867  0.00  0.00    -0.910 OA
ATOM      7  C   LIG    1       -4.086  -0.364  -0.243  0.00  0.00    +0.230 C 
ENDROOT
BRANCH   7   8
ATOM      8  O   LIG    1       -4.689   0.041  -1.473  0.00  0.00    -0.550 OA
ATOM      9  H   LIG    1       -5.538  -0.384  -1.654  0.00  0.00    +0.410 HD
ENDBRANCH   7   8
BRANCH   1  10
ATOM     10  S   LIG    1       -1.450  -1.000  -0.059  0.00  0.00    +0.050 S 
BRANCH  10  14
ATOM     11  N   LIG    1        0.845   0.039   0.881  0.00  0.00    -0.720 N 
ATOM     12  H   LIG    1        0.617  -0.404   1.713  0.00  0.00    +0.450 HD
ATOM     13  H   LIG    1        1.683   0.522   0.802  0.00  0.00    +0.430 HD
ATOM     14  C   LIG    1        0.005  -0.010  -0.152  0.00  0.00    +0.490 C 
BRANCH  14  15
ATOM     15  N   LIG    1        0.265   0.689  -1.257  0.00  0.00    -0.740 N 
ATOM     16  H   LIG    1       -0.347   0.653  -2.009  0.00  0.00    +0.450 HD
ATOM     17  H   LIG    1        1.065   1.234  -1.309  0.00  0.00    +0.430 HD
ENDBRANCH  14  15
ENDBRANCH  10  14
ENDBRANCH   1  10
TORSDOF 4
ENDMDL
MODEL       80
REMARK  Name = ZINC000004336692
REMARK                            x       y       z     vdW  Elec       q    Type
REMARK                         _______ _______ _______ _____ _____    ______ ____
ROOT
ATOM      1  C   LIG    1       -2.715   0.292  -0.132  0.00  0.00    +0.040 C 
ATOM      2  C   LIG    1       -2.595   1.181   1.122  0.00  0.00    -0.310 C 
ATOM      3  S   LIG    1       -4.341   1.640   1.467  0.00  0.00    +2.400 S 
ATOM      4  C   LIG    1       -5.018   0.021   0.920  0.00  0.00    -0.300 C 
ATOM      5  O   LIG    1       -4.756   2.663   0.572  0.00  0.00    -0.900 OA
ATOM      6  O   LIG    1       -4.531   1.794   2.867  0.00  0.00    -0.900 OA
ATOM      7  C   LIG    1       -4.086  -0.364  -0.243  0.00  0.00    +0.240 C 
ENDROOT
BRANCH   7   8
ATOM      8  O   LIG    1       -3.919  -1.784  -0.252  0.00  0.00    -0.550 OA
ATOM      9  H   LIG    1       -4.740  -2.276  -0.387  0.00  0.00    +0.410 HD
ENDBRANCH   7   8
BRANCH   1  10
ATOM     10  S   LIG    1       -1.450  -1.000  -0.059  0.00  0.00    +0.120 S 
BRANCH  10  14
ATOM     11  N   LIG    1        0.845   0.039   0.881  0.00  0.00    -0.730 N 
ATOM     12  H   LIG    1        0.617  -0.404   1.713  0.00  0.00    +0.450 HD
ATOM     13  H   LIG    1        1.683   0.522   0.802  0.00  0.00    +0.430 HD
ATOM     14  C   LIG    1        0.005  -0.010  -0.152  0.00  0.00    +0.470 C 
BRANCH  14  15
ATOM     15  N   LIG    1        0.265   0.689  -1.257  0.00  0.00    -0.740 N 
ATOM     16  H   LIG    1       -0.347   0.653  -2.009  0.00  0.00    +0.450 HD
ATOM     17  H   LIG    1        1.065   1.234  -1.309  0.00  0.00    +0.430 HD
ENDBRANCH  14  15
ENDBRANCH  10  14
ENDBRANCH   1  10
TORSDOF 4
ENDMDL
MODEL       81
REMARK  Name = ZINC000072238903
REMARK                            x       y       z     vdW  Elec       q    Type
REMARK                         _______ _______ _______ _____ _____    ______ ____
ROOT
ATOM      1  C   LIG    1       -0.295   1.842   4.884  0.00  0.00    +0.480 A 
ATOM      2  N   LIG    1        0.111   0.694   5.384  0.00  0.00    -0.500 NA
ATOM      3  C   LIG    1        0.146   0.483   6.707  0.00  0.00    +0.230 A 
ATOM      4  C   LIG    1       -0.227   1.417   7.593  0.00  0.00    +0.220 A 
ATOM      5  N   LIG    1       -0.667   2.654   7.165  0.00  0.00    -0.460 N 
ATOM      6  C   LIG    1       -1.093   3.753   7.811  0.00  0.00    +0.650 A 
ATOM      7  N   LIG    1       -1.405   4.683   6.885  0.00  0.00    -0.520 N 
ATOM      8  H   LIG    1       -1.740   5.577   7.059  0.00  0.00    +0.470 HD
ATOM      9  N   LIG    1       -1.158   4.123   5.623  0.00  0.00    -0.240 NA
ATOM     10  O   LIG    1       -1.181   3.887   9.020  0.00  0.00    -0.520 OA
ATOM     11  C   LIG    1       -0.711   2.908   5.803  0.00  0.00    +0.240 A 
ENDROOT
BRANCH   1  15
ATOM     12  C   LIG    1       -0.699   1.479   1.216  0.00  0.00    +0.160 C 
ATOM     13  C   LIG    1       -0.641   3.026   1.319  0.00  0.00    +0.070 C 
ATOM     14  C   LIG    1       -0.750   3.275   2.838  0.00  0.00    +0.290 C 
ATOM     15  N   LIG    1       -0.324   2.042   3.515  0.00  0.00    -0.590 N 
ATOM     16  C   LIG    1        0.066   1.052   2.494  0.00  0.00    +0.310 C 
BRANCH  12  17
ATOM     17  N   LIG    1       -0.012   1.005   0.008  0.00  0.00    -0.630 N 
ATOM     18  H   LIG    1       -0.500   1.339  -0.810  0.00  0.00    +0.440 HD
ATOM     19  H   LIG    1        0.935   1.354   0.000  0.00  0.00    +0.440 HD
ATOM     20  H   LIG    1        0.002  -0.004   0.002  0.00  0.00    +0.440 HD
ENDBRANCH  12  17
ENDBRANCH   1  15
TORSDOF 2
ENDMDL
MODEL       82
REMARK  Name = ZINC000072238902
REMARK                            x       y       z     vdW  Elec       q    Type
REMARK                         _______ _______ _______ _____ _____    ______ ____
ROOT
ATOM      1  C   LIG    1       -0.886   0.030   4.694  0.00  0.00    +0.480 A 
ATOM      2  N   LIG    1        0.328  -0.219   5.138  0.00  0.00    -0.500 NA
ATOM      3  C   LIG    1        0.532  -0.750   6.352  0.00  0.00    +0.230 A 
ATOM      4  C   LIG    1       -0.476  -1.056   7.180  0.00  0.00    +0.220 A 
ATOM      5  N   LIG    1       -1.786  -0.831   6.803  0.00  0.00    -0.460 N 
ATOM      6  C   LIG    1       -2.966  -1.037   7.414  0.00  0.00    +0.650 A 
ATOM      7  N   LIG    1       -3.942  -0.630   6.574  0.00  0.00    -0.520 N 
ATOM      8  H   LIG    1       -4.896  -0.659   6.748  0.00  0.00    +0.470 HD
ATOM      9  N   LIG    1       -3.325  -0.158   5.406  0.00  0.00    -0.250 NA
ATOM     10  O   LIG    1       -3.127  -1.506   8.527  0.00  0.00    -0.520 OA
ATOM     11  C   LIG    1       -2.033  -0.279   5.557  0.00  0.00    +0.240 A 
ENDROOT
BRANCH   1  15
ATOM     12  C   LIG    1       -0.699   1.479   1.216  0.00  0.00    +0.170 C 
ATOM     13  C   LIG    1       -2.128   0.880   1.306  0.00  0.00    +0.070 C 
ATOM     14  C   LIG    1       -2.381   0.906   2.833  0.00  0.00    +0.310 C 
ATOM     15  N   LIG    1       -1.077   0.578   3.438  0.00  0.00    -0.590 N 
ATOM     16  C   LIG    1       -0.011   0.933   2.485  0.00  0.00    +0.310 C 
BRANCH  12  17
ATOM     17  N   LIG    1       -0.012   1.005   0.008  0.00  0.00    -0.630 N 
ATOM     18  H   LIG    1       -0.500   1.339  -0.810  0.00  0.00    +0.440 HD
ATOM     19  H   LIG    1        0.935   1.354   0.000  0.00  0.00    +0.440 HD
ATOM     20  H   LIG    1        0.002  -0.004   0.002  0.00  0.00    +0.440 HD
ENDBRANCH  12  17
ENDBRANCH   1  15
TORSDOF 2
ENDMDL
MODEL       83
REMARK  Name = ZINC000085790376
REMARK                            x       y       z     vdW  Elec       q    Type
REMARK                         _______ _______ _______ _____ _____    ______ ____
ROOT
ATOM      1  N   LIG    1        1.402  -4.080   2.324  0.00  0.00    -0.490 N 
ATOM      2  H   LIG    1        1.800  -4.418   1.460  0.00  0.00    +0.450 HD
ATOM      3  H   LIG    1        0.443  -4.385   2.394  0.00  0.00    +0.430 HD
ENDROOT
BRANCH   1   4
ATOM      4  C   LIG    1        2.169  -4.612   3.458  0.00  0.00    +0.180 C 
ATOM      5  C   LIG    1        2.194  -6.154   3.421  0.00  0.00    +0.140 C 
ATOM      6  C   LIG    1        1.510  -6.551   4.711  0.00  0.00    +0.520 C 
ATOM      7  N   LIG    1        1.152  -5.446   5.378  0.00  0.00    -0.670 N 
ATOM      8  H   LIG    1        0.697  -5.474   6.234  0.00  0.00    +0.440 HD
ATOM      9  O   LIG    1        1.317  -7.688   5.082  0.00  0.00    -0.430 OA
ATOM     10  C   LIG    1        1.476  -4.296   4.765  0.00  0.00    +0.520 C 
ATOM     11  O   LIG    1        1.246  -3.185   5.192  0.00  0.00    -0.430 OA
ENDBRANCH   1   4
BRANCH   1  12
ATOM     12  C   LIG    1        1.451  -2.612   2.345  0.00  0.00    +0.300 C 
BRANCH  12  18
ATOM     13  C   LIG    1       -0.018   1.465   0.010  0.00  0.00    +0.210 C 
ATOM     14  N   LIG    1        0.002  -0.004   0.002  0.00  0.00    -0.540 NA
ATOM     15  C   LIG    1        0.607  -0.516  -1.236  0.00  0.00    +0.160 C 
ATOM     16  C   LIG    1        0.553  -2.046  -1.230  0.00  0.00    +0.250 C 
ATOM     17  O   LIG    1        1.216  -2.536  -0.061  0.00  0.00    -0.400 OA
ATOM     18  C   LIG    1        0.652  -2.058   1.164  0.00  0.00    +0.160 C 
ATOM     19  C   LIG    1        0.707  -0.528   1.181  0.00  0.00    +0.180 C 
ENDBRANCH  12  18
ENDBRANCH   1  12
TORSDOF 3
ENDMDL
MODEL       84
REMARK  Name = ZINC000085790375
REMARK                            x       y       z     vdW  Elec       q    Type
REMARK                         _______ _______ _______ _____ _____    ______ ____
ROOT
ATOM      1  N   LIG    1        1.568  -4.068   2.238  0.00  0.00    -0.490 N 
ATOM      2  H   LIG    1        2.144  -4.278   1.436  0.00  0.00    +0.440 HD
ATOM      3  H   LIG    1        0.660  -4.491   2.119  0.00  0.00    +0.440 HD
ENDROOT
BRANCH   1   4
ATOM      4  C   LIG    1        2.203  -4.603   3.450  0.00  0.00    +0.180 C 
ATOM      5  C   LIG    1        2.439  -6.121   3.315  0.00  0.00    +0.140 C 
ATOM      6  C   LIG    1        1.612  -6.709   4.437  0.00  0.00    +0.520 C 
ATOM      7  N   LIG    1        1.006  -5.719   5.103  0.00  0.00    -0.670 N 
ATOM      8  H   LIG    1        0.424  -5.877   5.864  0.00  0.00    +0.440 HD
ATOM      9  O   LIG    1        1.514  -7.890   4.692  0.00  0.00    -0.430 OA
ATOM     10  C   LIG    1        1.269  -4.489   4.635  0.00  0.00    +0.520 C 
ATOM     11  O   LIG    1        0.827  -3.455   5.088  0.00  0.00    -0.430 OA
ENDBRANCH   1   4
BRANCH   1  12
ATOM     12  C   LIG    1        1.417  -2.612   2.365  0.00  0.00    +0.300 C 
BRANCH  12  18
ATOM     13  C   LIG    1       -0.018   1.465   0.010  0.00  0.00    +0.210 C 
ATOM     14  N   LIG    1        0.002  -0.004   0.002  0.00  0.00    -0.540 NA
ATOM     15  C   LIG    1       -1.361  -0.549  -0.075  0.00  0.00    +0.160 C 
ATOM     16  C   LIG    1       -1.291  -2.077  -0.141  0.00  0.00    +0.250 C 
ATOM     17  O   LIG    1       -0.576  -2.566   0.997  0.00  0.00    -0.390 OA
ATOM     18  C   LIG    1        0.756  -2.056   1.102  0.00  0.00    +0.170 C 
ATOM     19  C   LIG    1        0.707  -0.528   1.181  0.00  0.00    +0.180 C 
ENDBRANCH  12  18
ENDBRANCH   1  12
TORSDOF 3
ENDMDL
MODEL       85
REMARK  Name = ZINC000004476508
REMARK                            x       y       z     vdW  Elec       q    Type
REMARK                         _______ _______ _______ _____ _____    ______ ____
ROOT
ATOM      1  N   LIG    1       -2.733  -2.544  -0.111  0.00  0.00    -0.710 N 
ATOM      2  H   LIG    1       -3.477  -1.927  -0.028  0.00  0.00    +0.420 HD
ATOM      3  C   LIG    1       -2.964  -3.867  -0.218  0.00  0.00    +0.520 C 
ATOM      4  O   LIG    1       -2.033  -4.639  -0.323  0.00  0.00    -0.500 OA
ENDROOT
BRANCH   3   5
ATOM      5  C   LIG    1       -4.366  -4.385  -0.207  0.00  0.00    +0.510 C 
ATOM      6  N   LIG    1       -4.596  -5.708  -0.314  0.00  0.00    -0.690 N 
ATOM      7  H   LIG    1       -3.853  -6.325  -0.398  0.00  0.00    +0.420 HD
ATOM      8  O   LIG    1       -5.296  -3.613  -0.103  0.00  0.00    -0.520 OA
BRANCH   6   9
ATOM      9  C   LIG    1       -5.971  -6.215  -0.303  0.00  0.00    +0.280 C 
BRANCH   9  10
ATOM     10  C   LIG    1       -5.953  -7.739  -0.438  0.00  0.00    +0.160 C 
ATOM     11  C   LIG    1       -7.398  -8.272  -0.549  0.00  0.00    +0.020 C 
ATOM     12  C   LIG    1       -7.337  -9.570   0.301  0.00  0.00    +0.010 C 
ATOM     13  C   LIG    1       -6.327  -9.155   1.400  0.00  0.00    +0.200 C 
ATOM     14  O   LIG    1       -5.364  -8.323   0.730  0.00  0.00    -0.380 OA
ENDBRANCH   9  10
ENDBRANCH   6   9
ENDBRANCH   3   5
BRANCH   1  15
ATOM     15  C   LIG    1       -1.358  -2.037  -0.122  0.00  0.00    +0.290 C 
BRANCH  15  16
ATOM     16  C   LIG    1       -1.376  -0.512   0.012  0.00  0.00    +0.260 C 
BRANCH  16  18
ATOM     17  C   LIG    1       -0.018   1.465   0.010  0.00  0.00    +0.330 C 
ATOM     18  N   LIG    1        0.002  -0.004   0.002  0.00  0.00    -0.380 N 
ATOM     19  C   LIG    1        0.713  -0.491   1.192  0.00  0.00    +0.330 C 
ATOM     20  H   LIG    1        0.474  -0.330  -0.828  0.00  0.00    +0.430 HD
ENDBRANCH  16  18
ENDBRANCH  15  16
ENDBRANCH   1  15
TORSDOF 6
ENDMDL
MODEL       86
REMARK  Name = ZINC000004476510
REMARK                            x       y       z     vdW  Elec       q    Type
REMARK                         _______ _______ _______ _____ _____    ______ ____
ROOT
ATOM      1  N   LIG    1       -2.733  -2.544  -0.111  0.00  0.00    -0.710 N 
ATOM      2  H   LIG    1       -3.477  -1.927  -0.028  0.00  0.00    +0.420 HD
ATOM      3  C   LIG    1       -2.964  -3.867  -0.218  0.00  0.00    +0.520 C 
ATOM      4  O   LIG    1       -2.033  -4.639  -0.323  0.00  0.00    -0.500 OA
ENDROOT
BRANCH   3   5
ATOM      5  C   LIG    1       -4.366  -4.385  -0.207  0.00  0.00    +0.510 C 
ATOM      6  N   LIG    1       -4.596  -5.708  -0.314  0.00  0.00    -0.690 N 
ATOM      7  H   LIG    1       -3.853  -6.325  -0.398  0.00  0.00    +0.420 HD
ATOM      8  O   LIG    1       -5.296  -3.613  -0.103  0.00  0.00    -0.520 OA
BRANCH   6   9
ATOM      9  C   LIG    1       -5.971  -6.215  -0.303  0.00  0.00    +0.300 C 
BRANCH   9  10
ATOM     10  C   LIG    1       -5.953  -7.739  -0.438  0.00  0.00    +0.140 C 
ATOM     11  C   LIG    1       -7.400  -8.293  -0.464  0.00  0.00    +0.030 C 
ATOM     12  C   LIG    1       -7.189  -9.632  -1.223  0.00  0.00    +0.010 C 
ATOM     13  C   LIG    1       -6.062  -9.272  -2.215  0.00  0.00    +0.190 C 
ATOM     14  O   LIG    1       -5.380  -8.122  -1.698  0.00  0.00    -0.380 OA
ENDBRANCH   9  10
ENDBRANCH   6   9
ENDBRANCH   3   5
BRANCH   1  15
ATOM     15  C   LIG    1       -1.358  -2.037  -0.122  0.00  0.00    +0.290 C 
BRANCH  15  16
ATOM     16  C   LIG    1       -1.376  -0.512   0.012  0.00  0.00    +0.260 C 
BRANCH  16  18
ATOM     17  C   LIG    1       -0.018   1.465   0.010  0.00  0.00    +0.330 C 
ATOM     18  N   LIG    1        0.002  -0.004   0.002  0.00  0.00    -0.380 N 
ATOM     19  C   LIG    1        0.713  -0.491   1.192  0.00  0.00    +0.330 C 
ATOM     20  H   LIG    1        0.474  -0.330  -0.828  0.00  0.00    +0.430 HD
ENDBRANCH  16  18
ENDBRANCH  15  16
ENDBRANCH   1  15
TORSDOF 6
ENDMDL
MODEL       87
REMARK  Name = ZINC000102190836
REMARK                            x       y       z     vdW  Elec       q    Type
REMARK                         _______ _______ _______ _____ _____    ______ ____
ROOT
ATOM      1  C   LIG    1        1.565  -3.321  -0.025  0.00  0.00    +0.280 C 
ENDROOT
BRANCH   1   8
ATOM      2  N   LIG    1       -0.017   1.381   0.010  0.00  0.00    -0.800 N 
ATOM      3  H   LIG    1       -0.863   1.854   0.016  0.00  0.00    +0.440 HD
ATOM      4  H   LIG    1        0.817   1.877   0.004  0.00  0.00    +0.440 HD
ATOM      5  C   LIG    1        0.002  -0.004   0.002  0.00  0.00    +0.600 A 
ATOM      6  N   LIG    1       -1.052  -0.786   0.002  0.00  0.00    -0.520 N 
ATOM      7  C   LIG    1       -0.653  -2.069  -0.007  0.00  0.00    +0.230 A 
ATOM      8  C   LIG    1        0.691  -2.094  -0.014  0.00  0.00    +0.030 A 
ATOM      9  H   LIG    1       -1.974  -0.485   0.008  0.00  0.00    +0.460 HD
ATOM     10  N   LIG    1        1.116  -0.784  -0.013  0.00  0.00    -0.540 N 
ATOM     11  H   LIG    1        2.036  -0.477  -0.017  0.00  0.00    +0.460 HD
ENDBRANCH   1   8
BRANCH   1  12
ATOM     12  O   LIG    1        0.939  -4.345  -0.801  0.00  0.00    -0.500 OA
ATOM     13  H   LIG    1        0.072  -4.615  -0.469  0.00  0.00    +0.380 HD
ENDBRANCH   1  12
BRANCH   1  14
ATOM     14  C   LIG    1        1.766  -3.818   1.408  0.00  0.00    +0.160 C 
BRANCH  14  15
ATOM     15  O   LIG    1        2.392  -2.794   2.184  0.00  0.00    -0.550 OA
ATOM     16  H   LIG    1        3.259  -2.524   1.852  0.00  0.00    +0.380 HD
ENDBRANCH  14  15
BRANCH  14  17
ATOM     17  C   LIG    1        2.654  -5.064   1.396  0.00  0.00    +0.190 C 
BRANCH  17  18
ATOM     18  O   LIG    1        2.027  -6.088   0.620  0.00  0.00    -0.530 OA
ATOM     19  H   LIG    1        1.161  -6.358   0.952  0.00  0.00    +0.370 HD
ENDBRANCH  17  18
BRANCH  17  20
ATOM     20  C   LIG    1        2.854  -5.561   2.829  0.00  0.00    +0.160 C 
BRANCH  20  21
ATOM     21  O   LIG    1        3.776  -6.653   2.830  0.00  0.00    -0.560 OA
ATOM     22  H   LIG    1        3.951  -7.019   3.707  0.00  0.00    +0.390 HD
ENDBRANCH  20  21
ENDBRANCH  17  20
ENDBRANCH  14  17
ENDBRANCH   1  14
TORSDOF 8
ENDMDL
MODEL       88
REMARK  Name = ZINC000006677797
REMARK                            x       y       z     vdW  Elec       q    Type
REMARK                         _______ _______ _______ _____ _____    ______ ____
ROOT
ATOM      1  C   LIG    1       -1.234  -0.866   0.046  0.00  0.00    +0.080 C 
ATOM      2  C   LIG    1       -1.779  -1.264  -1.329  0.00  0.00    +0.060 C 
ATOM      3  C   LIG    1       -0.706  -2.045  -2.091  0.00  0.00    +0.270 C 
ATOM      4  N   LIG    1       -0.346  -3.252  -1.337  0.00  0.00    -0.500 N 
ATOM      5  C   LIG    1        0.244  -2.876  -0.046  0.00  0.00    +0.260 C 
ATOM      6  H   LIG    1        0.323  -3.791  -1.866  0.00  0.00    +0.440 HD
ATOM      7  H   LIG    1       -1.173  -3.807  -1.178  0.00  0.00    +0.420 HD
ATOM      8  C   LIG    1       -0.792  -2.127   0.794  0.00  0.00    +0.100 C 
ENDROOT
BRANCH   1   9
ATOM      9  N   LIG    1       -2.283  -0.181   0.813  0.00  0.00    -0.520 NA
ATOM     10  C   LIG    1       -3.427  -1.073   1.051  0.00  0.00    +0.150 C 
ATOM     11  C   LIG    1       -4.468  -0.341   1.902  0.00  0.00    +0.240 C 
ATOM     12  O   LIG    1       -4.852   0.868   1.242  0.00  0.00    -0.380 OA
ATOM     13  C   LIG    1       -3.762   1.760   0.995  0.00  0.00    +0.240 C 
ATOM     14  C   LIG    1       -2.713   1.050   0.134  0.00  0.00    +0.150 C 
ENDBRANCH   1   9
BRANCH   1  18
ATOM     15  N   LIG    1        0.328   0.860   0.884  0.00  0.00    -0.830 N 
ATOM     16  H   LIG    1       -0.203   0.905   1.694  0.00  0.00    +0.420 HD
ATOM     17  H   LIG    1        1.132   1.396   0.801  0.00  0.00    +0.410 HD
ATOM     18  C   LIG    1       -0.054   0.056  -0.128  0.00  0.00    +0.530 C 
ATOM     19  O   LIG    1        0.552   0.074  -1.179  0.00  0.00    -0.540 OA
ENDBRANCH   1  18
TORSDOF 2
ENDMDL
MODEL       89
REMARK  Name = ZINC000019853313
REMARK                            x       y       z     vdW  Elec       q    Type
REMARK                         _______ _______ _______ _____ _____    ______ ____
ROOT
ATOM      1  C   LIG    1        1.208  -4.284  -2.054  0.00  0.00    +0.280 C 
ENDROOT
BRANCH   1   3
ATOM      2  C   LIG    1        0.605  -2.159  -1.026  0.00  0.00    +0.510 C 
ATOM      3  N   LIG    1        1.188  -2.819  -2.046  0.00  0.00    -0.710 N 
ATOM      4  H   LIG    1        1.595  -2.325  -2.775  0.00  0.00    +0.420 HD
ATOM      5  O   LIG    1        0.097  -2.778  -0.115  0.00  0.00    -0.510 OA
BRANCH   2   9
ATOM      6  C   LIG    1       -0.018   1.461   0.010  0.00  0.00    +0.310 C 
ATOM      7  N   LIG    1        0.002  -0.004   0.002  0.00  0.00    -0.700 N 
ATOM      8  H   LIG    1       -0.404  -0.499   0.731  0.00  0.00    +0.420 HD
ATOM      9  C   LIG    1        0.585  -0.664  -1.018  0.00  0.00    +0.500 C 
ATOM     10  O   LIG    1        1.093  -0.046  -1.930  0.00  0.00    -0.520 OA
ENDBRANCH   2   9
ENDBRANCH   1   3
BRANCH   1  11
ATOM     11  C   LIG    1        1.924  -4.778  -3.313  0.00  0.00    +0.200 C 
BRANCH  11  12
ATOM     12  N   LIG    1        1.944  -6.246  -3.321  0.00  0.00    -0.530 NA
ATOM     13  C   LIG    1        2.349  -6.775  -2.011  0.00  0.00    +0.200 C 
ATOM     14  C   LIG    1        2.300  -8.304  -2.043  0.00  0.00    +0.280 C 
ATOM     15  N   LIG    1        3.201  -8.801  -3.091  0.00  0.00    -0.510 N 
ATOM     16  C   LIG    1        2.770  -8.285  -4.396  0.00  0.00    +0.280 C 
ATOM     17  H   LIG    1        3.178  -9.810  -3.104  0.00  0.00    +0.440 HD
ATOM     18  H   LIG    1        4.142  -8.489  -2.900  0.00  0.00    +0.430 HD
ATOM     19  C   LIG    1        2.823  -6.755  -4.383  0.00  0.00    +0.210 C 
ENDBRANCH  11  12
ENDBRANCH   1  11
TORSDOF 4
ENDMDL
MODEL       90
REMARK  Name = ZINC000113207091
REMARK                            x       y       z     vdW  Elec       q    Type
REMARK                         _______ _______ _______ _____ _____    ______ ____
ROOT
ATOM      1  N   LIG    1       -2.339  -2.899   0.248  0.00  0.00    -0.490 N 
ATOM      2  H   LIG    1       -2.191  -3.871   0.474  0.00  0.00    +0.440 HD
ATOM      3  H   LIG    1       -2.618  -2.817  -0.718  0.00  0.00    +0.440 HD
ENDROOT
BRANCH   1   7
ATOM      4  C   LIG    1       -0.018   1.461   0.010  0.00  0.00    +0.300 C 
ATOM      5  N   LIG    1        0.002  -0.004   0.002  0.00  0.00    -0.610 N 
ATOM      6  C   LIG    1       -1.276  -0.705   0.004  0.00  0.00    +0.290 C 
ATOM      7  C   LIG    1       -1.093  -2.152   0.463  0.00  0.00    +0.160 C 
ATOM      8  C   LIG    1        0.039  -2.786  -0.354  0.00  0.00    +0.070 C 
ATOM      9  C   LIG    1        1.355  -2.105   0.032  0.00  0.00    +0.120 C 
ATOM     10  C   LIG    1        1.188  -0.613  -0.013  0.00  0.00    +0.510 C 
ATOM     11  O   LIG    1        2.186   0.075  -0.056  0.00  0.00    -0.520 OA
ENDBRANCH   1   7
BRANCH   1  12
ATOM     12  C   LIG    1       -3.394  -2.350   1.111  0.00  0.00    +0.170 C 
ATOM     13  C   LIG    1       -4.734  -3.070   0.854  0.00  0.00    +0.150 C 
ATOM     14  C   LIG    1       -5.059  -3.701   2.190  0.00  0.00    +0.520 C 
ATOM     15  N   LIG    1       -4.089  -3.405   3.064  0.00  0.00    -0.670 N 
ATOM     16  H   LIG    1       -4.100  -3.713   3.985  0.00  0.00    +0.440 HD
ATOM     17  O   LIG    1       -6.041  -4.369   2.430  0.00  0.00    -0.430 OA
ATOM     18  C   LIG    1       -3.101  -2.647   2.565  0.00  0.00    +0.520 C 
ATOM     19  O   LIG    1       -2.129  -2.265   3.181  0.00  0.00    -0.430 OA
ENDBRANCH   1  12
TORSDOF 2
ENDMDL
MODEL       91
REMARK  Name = ZINC000113207088
REMARK                            x       y       z     vdW  Elec       q    Type
REMARK                         _______ _______ _______ _____ _____    ______ ____
ROOT
ATOM      1  N   LIG    1       -2.341  -2.896  -0.254  0.00  0.00    -0.490 N 
ATOM      2  H   LIG    1       -2.531  -2.827   0.735  0.00  0.00    +0.440 HD
ATOM      3  H   LIG    1       -2.270  -3.868  -0.515  0.00  0.00    +0.440 HD
ENDROOT
BRANCH   1   7
ATOM      4  C   LIG    1        0.253   1.310  -0.080  0.00  0.00    +0.300 C 
ATOM      5  N   LIG    1        0.184  -0.153  -0.126  0.00  0.00    -0.610 N 
ATOM      6  C   LIG    1       -1.129  -0.778  -0.033  0.00  0.00    +0.290 C 
ATOM      7  C   LIG    1       -1.077  -2.213  -0.558  0.00  0.00    +0.160 C 
ATOM      8  C   LIG    1        0.085  -2.945   0.125  0.00  0.00    +0.070 C 
ATOM      9  C   LIG    1        1.398  -2.325  -0.358  0.00  0.00    +0.120 C 
ATOM     10  C   LIG    1        1.327  -0.829  -0.255  0.00  0.00    +0.510 C 
ATOM     11  O   LIG    1        2.364  -0.201  -0.283  0.00  0.00    -0.510 OA
ENDBRANCH   1   7
BRANCH   1  12
ATOM     12  C   LIG    1       -3.433  -2.264  -1.007  0.00  0.00    +0.170 C 
ATOM     13  C   LIG    1       -3.317  -2.592  -2.509  0.00  0.00    +0.130 C 
ATOM     14  C   LIG    1       -4.596  -3.342  -2.809  0.00  0.00    +0.530 C 
ATOM     15  N   LIG    1       -5.325  -3.435  -1.689  0.00  0.00    -0.670 N 
ATOM     16  H   LIG    1       -6.186  -3.879  -1.659  0.00  0.00    +0.440 HD
ATOM     17  O   LIG    1       -4.912  -3.789  -3.891  0.00  0.00    -0.430 OA
ATOM     18  C   LIG    1       -4.767  -2.860  -0.612  0.00  0.00    +0.520 C 
ATOM     19  O   LIG    1       -5.253  -2.828   0.498  0.00  0.00    -0.430 OA
ENDBRANCH   1  12
TORSDOF 2
ENDMDL
MODEL       92
REMARK  Name = ZINC000004892522
REMARK                            x       y       z     vdW  Elec       q    Type
REMARK                         _______ _______ _______ _____ _____    ______ ____
ROOT
ATOM      1  C   LIG    1       -1.293  -0.775   0.010  0.00  0.00    -0.010 C 
ATOM      2  C   LIG    1       -2.109  -0.418  -1.235  0.00  0.00    +0.080 C 
ATOM      3  C   LIG    1       -3.385  -1.263  -1.261  0.00  0.00    +0.270 C 
ATOM      4  N   LIG    1       -3.033  -2.687  -1.297  0.00  0.00    -0.370 N 
ATOM      5  C   LIG    1       -2.311  -3.053  -0.073  0.00  0.00    +0.240 C 
ATOM      6  H   LIG    1       -2.446  -2.867  -2.098  0.00  0.00    +0.440 HD
ATOM      7  C   LIG    1       -0.994  -2.277  -0.001  0.00  0.00    +0.110 C 
ENDROOT
BRANCH   4   8
ATOM      8  C   LIG    1       -4.258  -3.491  -1.399  0.00  0.00    +0.180 C 
ATOM      9  C   LIG    1       -3.922  -4.996  -1.385  0.00  0.00    +0.120 C 
ATOM     10  C   LIG    1       -4.628  -5.506  -0.148  0.00  0.00    +0.530 C 
ATOM     11  N   LIG    1       -5.259  -4.487   0.450  0.00  0.00    -0.670 N 
ATOM     12  H   LIG    1       -5.776  -4.595   1.264  0.00  0.00    +0.440 HD
ATOM     13  O   LIG    1       -4.624  -6.654   0.241  0.00  0.00    -0.430 OA
ATOM     14  C   LIG    1       -5.120  -3.305  -0.170  0.00  0.00    +0.520 C 
ATOM     15  O   LIG    1       -5.606  -2.257   0.199  0.00  0.00    -0.430 OA
ENDBRANCH   4   8
BRANCH   1  19
ATOM     16  N   LIG    1       -0.016   1.344   0.009  0.00  0.00    -0.850 N 
ATOM     17  H   LIG    1       -0.863   1.817   0.016  0.00  0.00    +0.400 HD
ATOM     18  H   LIG    1        0.817   1.840   0.004  0.00  0.00    +0.410 HD
ATOM     19  C   LIG    1        0.002  -0.004   0.002  0.00  0.00    +0.520 C 
ATOM     20  O   LIG    1        1.060  -0.596  -0.011  0.00  0.00    -0.530 OA
ENDBRANCH   1  19
TORSDOF 2
ENDMDL
MODEL       93
REMARK  Name = ZINC000019866250
REMARK                            x       y       z     vdW  Elec       q    Type
REMARK                         _______ _______ _______ _____ _____    ______ ____
ROOT
ATOM      1  C   LIG    1       -1.293  -0.775   0.010  0.00  0.00    -0.010 C 
ATOM      2  C   LIG    1       -2.109  -0.418  -1.235  0.00  0.00    +0.080 C 
ATOM      3  C   LIG    1       -3.385  -1.263  -1.261  0.00  0.00    +0.280 C 
ATOM      4  N   LIG    1       -3.033  -2.687  -1.297  0.00  0.00    -0.370 N 
ATOM      5  C   LIG    1       -2.311  -3.053  -0.073  0.00  0.00    +0.250 C 
ATOM      6  H   LIG    1       -2.446  -2.867  -2.098  0.00  0.00    +0.440 HD
ATOM      7  C   LIG    1       -0.994  -2.277  -0.001  0.00  0.00    +0.110 C 
ENDROOT
BRANCH   4   8
ATOM      8  C   LIG    1       -4.258  -3.491  -1.399  0.00  0.00    +0.180 C 
ATOM      9  C   LIG    1       -5.153  -3.274  -0.162  0.00  0.00    +0.130 C 
ATOM     10  C   LIG    1       -5.239  -4.652   0.459  0.00  0.00    +0.530 C 
ATOM     11  N   LIG    1       -4.526  -5.512  -0.278  0.00  0.00    -0.670 N 
ATOM     12  H   LIG    1       -4.447  -6.453  -0.056  0.00  0.00    +0.440 HD
ATOM     13  O   LIG    1       -5.856  -4.931   1.464  0.00  0.00    -0.430 OA
ATOM     14  C   LIG    1       -3.932  -4.968  -1.351  0.00  0.00    +0.520 C 
ATOM     15  O   LIG    1       -3.242  -5.564  -2.150  0.00  0.00    -0.430 OA
ENDBRANCH   4   8
BRANCH   1  19
ATOM     16  N   LIG    1       -0.016   1.344   0.009  0.00  0.00    -0.850 N 
ATOM     17  H   LIG    1       -0.863   1.817   0.016  0.00  0.00    +0.400 HD
ATOM     18  H   LIG    1        0.817   1.840   0.004  0.00  0.00    +0.410 HD
ATOM     19  C   LIG    1        0.002  -0.004   0.002  0.00  0.00    +0.520 C 
ATOM     20  O   LIG    1        1.060  -0.596  -0.011  0.00  0.00    -0.530 OA
ENDBRANCH   1  19
TORSDOF 2
ENDMDL
MODEL       94
REMARK  Name = ZINC000082125451
REMARK                            x       y       z     vdW  Elec       q    Type
REMARK                         _______ _______ _______ _____ _____    ______ ____
ROOT
ATOM      1  C   LIG    1        0.997  -1.850  -1.726  0.00  0.00    +0.550 C 
ATOM      2  N   LIG    1        1.617  -2.350  -2.813  0.00  0.00    -0.750 N 
ATOM      3  H   LIG    1        1.987  -1.750  -3.480  0.00  0.00    +0.400 HD
ATOM      4  O   LIG    1        0.535  -2.600  -0.893  0.00  0.00    -0.490 OA
ENDROOT
BRANCH   1   5
ATOM      5  C   LIG    1        0.880  -0.358  -1.545  0.00  0.00    -0.340 C 
BRANCH   5   7
ATOM      6  C   LIG    1       -0.022   1.810   0.012  0.00  0.00    -0.260 C 
ATOM      7  S   LIG    1        0.002  -0.004   0.002  0.00  0.00    +2.450 S 
ATOM      8  O   LIG    1       -1.334  -0.474  -0.117  0.00  0.00    -0.910 OA
ATOM      9  O   LIG    1        0.801  -0.452   1.088  0.00  0.00    -0.910 OA
ENDBRANCH   5   7
ENDBRANCH   1   5
BRANCH   2  10
ATOM     10  C   LIG    1        1.731  -3.800  -2.989  0.00  0.00    +0.310 C 
BRANCH  10  11
ATOM     11  C   LIG    1        2.471  -4.099  -4.294  0.00  0.00    +0.180 C 
ATOM     12  C   LIG    1        2.746  -5.613  -4.407  0.00  0.00    +0.080 C 
ATOM     13  C   LIG    1        4.162  -5.665  -5.039  0.00  0.00    +0.210 C 
ATOM     14  C   LIG    1        4.843  -4.439  -4.382  0.00  0.00    +0.260 C 
ATOM     15  F   LIG    1        4.822  -6.850  -4.693  0.00  0.00    -0.170 F 
ATOM     16  N   LIG    1        3.777  -3.413  -4.299  0.00  0.00    -0.520 N 
ATOM     17  H   LIG    1        3.882  -2.882  -3.447  0.00  0.00    +0.430 HD
ATOM     18  H   LIG    1        3.837  -2.796  -5.095  0.00  0.00    +0.440 HD
ENDBRANCH  10  11
ENDBRANCH   2  10
TORSDOF 4
ENDMDL
MODEL       95
REMARK  Name = ZINC000002561025
REMARK                            x       y       z     vdW  Elec       q    Type
REMARK                         _______ _______ _______ _____ _____    ______ ____
ROOT
ATOM      1  N   LIG    1       -2.806  -3.896   0.008  0.00  0.00    -0.710 N 
ATOM      2  H   LIG    1       -1.936  -4.325  -0.003  0.00  0.00    +0.420 HD
ATOM      3  C   LIG    1       -3.926  -4.646   0.015  0.00  0.00    +0.520 C 
ATOM      4  O   LIG    1       -5.014  -4.110   0.028  0.00  0.00    -0.530 OA
ENDROOT
BRANCH   1   5
ATOM      5  C   LIG    1       -2.902  -2.434   0.017  0.00  0.00    +0.370 C 
BRANCH   5   6
ATOM      6  C   LIG    1       -1.518  -1.840   0.007  0.00  0.00    +0.460 C 
ATOM      7  O   LIG    1       -0.550  -2.562  -0.006  0.00  0.00    -0.500 OA
BRANCH   6   8
ATOM      8  O   LIG    1       -1.360  -0.507   0.012  0.00  0.00    -0.350 OA
BRANCH   8  10
ATOM      9  C   LIG    1       -0.019   1.526   0.010  0.00  0.00    +0.070 C 
ATOM     10  C   LIG    1        0.002  -0.004   0.002  0.00  0.00    +0.220 C 
ENDBRANCH   8  10
ENDBRANCH   6   8
ENDBRANCH   5   6
ENDBRANCH   1   5
BRANCH   3  11
ATOM     11  C   LIG    1       -3.827  -6.149   0.006  0.00  0.00    +0.340 C 
BRANCH  11  12
ATOM     12  N   LIG    1       -5.173  -6.728   0.015  0.00  0.00    -0.690 N 
ATOM     13  H   LIG    1       -5.950  -6.147   0.026  0.00  0.00    +0.420 HD
ATOM     14  C   LIG    1       -5.331  -8.066   0.010  0.00  0.00    +0.500 C 
ATOM     15  O   LIG    1       -4.360  -8.792  -0.004  0.00  0.00    -0.530 OA
BRANCH  14  16
ATOM     16  C   LIG    1       -6.716  -8.661   0.020  0.00  0.00    +0.320 C 
BRANCH  16  17
ATOM     17  N   LIG    1       -6.619 -10.127   0.011  0.00  0.00    -0.620 N 
ATOM     18  H   LIG    1       -6.130 -10.427  -0.819  0.00  0.00    +0.440 HD
ATOM     19  H   LIG    1       -7.546 -10.525   0.018  0.00  0.00    +0.450 HD
ATOM     20  H   LIG    1       -6.115 -10.435   0.828  0.00  0.00    +0.440 HD
ENDBRANCH  16  17
ENDBRANCH  14  16
ENDBRANCH  11  12
ENDBRANCH   3  11
TORSDOF 8
ENDMDL
MODEL       96
REMARK  Name = ZINC000001640977
REMARK                            x       y       z     vdW  Elec       q    Type
REMARK                         _______ _______ _______ _____ _____    ______ ____
ROOT
ATOM      1  N   LIG    1       -2.316  -3.061   0.105  0.00  0.00    -0.380 N 
ATOM      2  H   LIG    1       -3.039  -2.836   0.772  0.00  0.00    +0.420 HD
ENDROOT
BRANCH   1   3
ATOM      3  C   LIG    1       -1.162  -2.177   0.318  0.00  0.00    +0.280 C 
BRANCH   3   4
ATOM      4  C   LIG    1       -1.618  -0.718   0.254  0.00  0.00    +0.060 C 
BRANCH   4   8
ATOM      5  N   LIG    1       -0.599   1.526   0.458  0.00  0.00    -0.840 N 
ATOM      6  H   LIG    1       -1.478   1.905   0.303  0.00  0.00    +0.410 HD
ATOM      7  H   LIG    1        0.163   2.110   0.598  0.00  0.00    +0.420 HD
ATOM      8  C   LIG    1       -0.434   0.189   0.472  0.00  0.00    +0.520 C 
ATOM      9  O   LIG    1        0.666  -0.285   0.660  0.00  0.00    -0.530 OA
ENDBRANCH   4   8
ENDBRANCH   3   4
ENDBRANCH   1   3
BRANCH   1  10
ATOM     10  C   LIG    1       -1.901  -4.459   0.285  0.00  0.00    +0.280 C 
BRANCH  10  11
ATOM     11  C   LIG    1       -1.495  -4.687   1.743  0.00  0.00    +0.060 C 
BRANCH  11  12
ATOM     12  C   LIG    1       -1.145  -6.139   1.945  0.00  0.00    +0.520 C 
ATOM     13  O   LIG    1       -1.213  -6.915   1.016  0.00  0.00    -0.530 OA
ATOM     14  N   LIG    1       -0.755  -6.575   3.160  0.00  0.00    -0.840 N 
ATOM     15  H   LIG    1       -0.530  -7.509   3.290  0.00  0.00    +0.420 HD
ATOM     16  H   LIG    1       -0.700  -5.954   3.903  0.00  0.00    +0.410 HD
ENDBRANCH  11  12
ENDBRANCH  10  11
ENDBRANCH   1  10
BRANCH   1  17
ATOM     17  C   LIG    1       -2.831  -2.875  -1.257  0.00  0.00    +0.280 C 
BRANCH  17  18
ATOM     18  C   LIG    1       -4.128  -3.668  -1.425  0.00  0.00    +0.060 C 
BRANCH  18  19
ATOM     19  C   LIG    1       -4.665  -3.466  -2.819  0.00  0.00    +0.520 C 
ATOM     20  O   LIG    1       -4.067  -2.757  -3.601  0.00  0.00    -0.530 OA
ATOM     21  N   LIG    1       -5.807  -4.073  -3.196  0.00  0.00    -0.840 N 
ATOM     22  H   LIG    1       -6.152  -3.942  -4.093  0.00  0.00    +0.420 HD
ATOM     23  H   LIG    1       -6.285  -4.639  -2.570  0.00  0.00    +0.410 HD
ENDBRANCH  18  19
ENDBRANCH  17  18
ENDBRANCH   1  17
TORSDOF 9
ENDMDL
MODEL       97
REMARK  Name = ZINC000002656288
REMARK                            x       y       z     vdW  Elec       q    Type
REMARK                         _______ _______ _______ _____ _____    ______ ____
ROOT
ATOM      1  N   LIG    1        0.432  -2.015  -1.302  0.00  0.00    -0.380 N 
ATOM      2  H   LIG    1        0.797  -2.334  -0.417  0.00  0.00    +0.420 HD
ENDROOT
BRANCH   1   3
ATOM      3  C   LIG    1        0.573  -0.555  -1.391  0.00  0.00    +0.220 C 
BRANCH   3   5
ATOM      4  C   LIG    1        0.506   1.395  -2.952  0.00  0.00    +0.050 C 
ATOM      5  C   LIG    1        0.169  -0.089  -2.791  0.00  0.00    +0.210 C 
BRANCH   5   6
ATOM      6  O   LIG    1       -1.236  -0.280  -2.970  0.00  0.00    -0.540 OA
ATOM      7  H   LIG    1       -1.783   0.207  -2.339  0.00  0.00    +0.390 HD
ENDBRANCH   5   6
ENDBRANCH   3   5
ENDBRANCH   1   3
BRANCH   1   8
ATOM      8  C   LIG    1        1.179  -2.647  -2.397  0.00  0.00    +0.300 C 
BRANCH   8   9
ATOM      9  C   LIG    1        2.672  -2.358  -2.229  0.00  0.00    +0.070 C 
BRANCH   9  10
ATOM     10  C   LIG    1        3.439  -3.007  -3.353  0.00  0.00    +0.520 C 
ATOM     11  O   LIG    1        2.849  -3.637  -4.204  0.00  0.00    -0.530 OA
ATOM     12  N   LIG    1        4.780  -2.886  -3.411  0.00  0.00    -0.840 N 
ATOM     13  H   LIG    1        5.274  -3.303  -4.134  0.00  0.00    +0.420 HD
ATOM     14  H   LIG    1        5.252  -2.382  -2.730  0.00  0.00    +0.410 HD
ENDBRANCH   9  10
ENDBRANCH   8   9
ENDBRANCH   1   8
BRANCH   1  15
ATOM     15  C   LIG    1       -0.988  -2.377  -1.404  0.00  0.00    +0.290 C 
BRANCH  15  16
ATOM     16  C   LIG    1       -1.760  -1.746  -0.244  0.00  0.00    +0.050 C 
BRANCH  16  17
ATOM     17  C   LIG    1       -3.190  -2.223  -0.275  0.00  0.00    +0.520 C 
ATOM     18  O   LIG    1       -3.555  -2.991  -1.139  0.00  0.00    -0.530 OA
ATOM     19  N   LIG    1       -4.063  -1.795   0.659  0.00  0.00    -0.850 N 
ATOM     20  H   LIG    1       -4.983  -2.102   0.639  0.00  0.00    +0.420 HD
ATOM     21  H   LIG    1       -3.771  -1.181   1.350  0.00  0.00    +0.410 HD
ENDBRANCH  16  17
ENDBRANCH  15  16
ENDBRANCH   1  15
TORSDOF 9
ENDMDL
MODEL       98
REMARK  Name = ZINC000031990034
REMARK                            x       y       z     vdW  Elec       q    Type
REMARK                         _______ _______ _______ _____ _____    ______ ____
ROOT
ATOM      1  C   LIG    1       -0.316   1.661   1.172  0.00  0.00    +0.220 C 
ATOM      2  C   LIG    1       -1.761   1.343   0.707  0.00  0.00    -0.320 C 
ATOM      3  S   LIG    1       -2.666   1.376   2.307  0.00  0.00    +2.410 S 
ATOM      4  C   LIG    1       -1.301   0.648   3.289  0.00  0.00    -0.310 C 
ATOM      5  O   LIG    1       -3.759   0.470   2.256  0.00  0.00    -0.890 OA
ATOM      6  O   LIG    1       -2.876   2.723   2.709  0.00  0.00    -0.900 OA
ATOM      7  C   LIG    1       -0.033   0.878   2.456  0.00  0.00    +0.200 C 
ENDROOT
BRANCH   7   8
ATOM      8  N   LIG    1        0.547  -0.424   2.101  0.00  0.00    -0.550 NA
ATOM      9  C   LIG    1       -0.462  -1.302   1.492  0.00  0.00    +0.140 C 
ATOM     10  C   LIG    1        0.197  -2.623   1.085  0.00  0.00    +0.230 C 
ATOM     11  O   LIG    1        0.811  -3.217   2.231  0.00  0.00    -0.370 OA
ATOM     12  C   LIG    1        1.800  -2.389   2.849  0.00  0.00    +0.240 C 
ATOM     13  C   LIG    1        1.156  -1.066   3.275  0.00  0.00    +0.180 C 
ENDBRANCH   7   8
BRANCH   1  14
ATOM     14  N   LIG    1        0.638   1.261   0.129  0.00  0.00    -0.610 N 
ATOM     15  H   LIG    1        0.523   1.855  -0.678  0.00  0.00    +0.440 HD
ATOM     16  H   LIG    1        1.579   1.352   0.482  0.00  0.00    +0.440 HD
ATOM     17  H   LIG    1        0.468   0.302  -0.132  0.00  0.00    +0.440 HD
ENDBRANCH   1  14
TORSDOF 2
ENDMDL
MODEL       99
REMARK  Name = ZINC000031990029
REMARK                            x       y       z     vdW  Elec       q    Type
REMARK                         _______ _______ _______ _____ _____    ______ ____
ROOT
ATOM      1  C   LIG    1       -0.699   1.479   1.216  0.00  0.00    +0.200 C 
ATOM      2  C   LIG    1       -2.146   0.920   1.246  0.00  0.00    -0.300 C 
ATOM      3  S   LIG    1       -2.578   1.143   3.019  0.00  0.00    +2.410 S 
ATOM      4  C   LIG    1       -0.900   0.764   3.651  0.00  0.00    -0.260 C 
ATOM      5  O   LIG    1       -3.484   0.125   3.421  0.00  0.00    -0.900 OA
ATOM      6  O   LIG    1       -2.884   2.508   3.268  0.00  0.00    -0.890 OA
ATOM      7  C   LIG    1        0.041   0.979   2.458  0.00  0.00    +0.160 C 
ENDROOT
BRANCH   7   8
ATOM      8  N   LIG    1        1.060   1.971   2.828  0.00  0.00    -0.530 NA
ATOM      9  C   LIG    1        1.758   2.478   1.638  0.00  0.00    +0.120 C 
ATOM     10  C   LIG    1        2.766   3.550   2.062  0.00  0.00    +0.240 C 
ATOM     11  O   LIG    1        3.668   2.994   3.022  0.00  0.00    -0.370 OA
ATOM     12  C   LIG    1        3.022   2.491   4.195  0.00  0.00    +0.240 C 
ATOM     13  C   LIG    1        2.017   1.409   3.792  0.00  0.00    +0.170 C 
ENDBRANCH   7   8
BRANCH   1  14
ATOM     14  N   LIG    1       -0.012   1.005   0.008  0.00  0.00    -0.630 N 
ATOM     15  H   LIG    1       -0.500   1.339  -0.810  0.00  0.00    +0.450 HD
ATOM     16  H   LIG    1        0.935   1.354   0.000  0.00  0.00    +0.430 HD
ATOM     17  H   LIG    1        0.002  -0.004   0.002  0.00  0.00    +0.440 HD
ENDBRANCH   1  14
TORSDOF 2
ENDMDL
MODEL      100
REMARK  Name = ZINC000031990032
REMARK                            x       y       z     vdW  Elec       q    Type
REMARK                         _______ _______ _______ _____ _____    ______ ____
ROOT
ATOM      1  C   LIG    1       -0.600   1.412   1.136  0.00  0.00    +0.220 C 
ATOM      2  C   LIG    1       -0.660   2.945   1.060  0.00  0.00    -0.300 C 
ATOM      3  S   LIG    1       -0.003   3.537   2.665  0.00  0.00    +2.410 S 
ATOM      4  C   LIG    1       -0.288   1.956   3.559  0.00  0.00    -0.300 C 
ATOM      5  O   LIG    1       -0.856   4.546   3.187  0.00  0.00    -0.890 OA
ATOM      6  O   LIG    1        1.393   3.775   2.550  0.00  0.00    -0.900 OA
ATOM      7  C   LIG    1        0.021   0.924   2.446  0.00  0.00    +0.180 C 
ENDROOT
BRANCH   7   8
ATOM      8  N   LIG    1       -0.559  -0.378   2.805  0.00  0.00    -0.520 NA
ATOM      9  C   LIG    1       -1.988  -0.247   3.125  0.00  0.00    +0.150 C 
ATOM     10  C   LIG    1       -2.564  -1.631   3.434  0.00  0.00    +0.230 C 
ATOM     11  O   LIG    1       -1.822  -2.224   4.503  0.00  0.00    -0.370 OA
ATOM     12  C   LIG    1       -0.426  -2.367   4.225  0.00  0.00    +0.240 C 
ATOM     13  C   LIG    1        0.172  -0.990   3.924  0.00  0.00    +0.170 C 
ENDBRANCH   7   8
BRANCH   1  14
ATOM     14  N   LIG    1        0.203   0.911   0.013  0.00  0.00    -0.630 N 
ATOM     15  H   LIG    1       -0.218   1.201  -0.857  0.00  0.00    +0.440 HD
ATOM     16  H   LIG    1        1.138   1.284   0.075  0.00  0.00    +0.440 HD
ATOM     17  H   LIG    1        0.240  -0.097   0.049  0.00  0.00    +0.450 HD
ENDBRANCH   1  14
TORSDOF 2
ENDMDL
MODEL      101
REMARK  Name = ZINC000031990026
REMARK                            x       y       z     vdW  Elec       q    Type
REMARK                         _______ _______ _______ _____ _____    ______ ____
ROOT
ATOM      1  C   LIG    1       -0.406   1.794   1.310  0.00  0.00    +0.230 C 
ATOM      2  C   LIG    1       -0.225   3.266   1.731  0.00  0.00    -0.310 C 
ATOM      3  S   LIG    1       -0.423   3.197   3.557  0.00  0.00    +2.410 S 
ATOM      4  C   LIG    1        0.382   1.553   3.719  0.00  0.00    -0.320 C 
ATOM      5  O   LIG    1       -1.802   3.094   3.888  0.00  0.00    -0.890 OA
ATOM      6  O   LIG    1        0.386   4.193   4.167  0.00  0.00    -0.900 OA
ATOM      7  C   LIG    1       -0.060   0.827   2.436  0.00  0.00    +0.200 C 
ENDROOT
BRANCH   7   8
ATOM      8  N   LIG    1        1.028  -0.054   1.988  0.00  0.00    -0.550 NA
ATOM      9  C   LIG    1        1.027  -1.317   2.741  0.00  0.00    +0.190 C 
ATOM     10  C   LIG    1        2.135  -2.226   2.203  0.00  0.00    +0.240 C 
ATOM     11  O   LIG    1        3.389  -1.544   2.291  0.00  0.00    -0.370 OA
ATOM     12  C   LIG    1        3.425  -0.310   1.569  0.00  0.00    +0.230 C 
ATOM     13  C   LIG    1        2.330   0.619   2.100  0.00  0.00    +0.150 C 
ENDBRANCH   7   8
BRANCH   1  14
ATOM     14  N   LIG    1        0.465   1.516   0.160  0.00  0.00    -0.620 N 
ATOM     15  H   LIG    1        0.101   1.982  -0.658  0.00  0.00    +0.440 HD
ATOM     16  H   LIG    1        1.396   1.854   0.353  0.00  0.00    +0.430 HD
ATOM     17  H   LIG    1        0.497   0.521  -0.006  0.00  0.00    +0.450 HD
ENDBRANCH   1  14
TORSDOF 2
ENDMDL
MODEL      102
REMARK  Name = ZINC000085436827
REMARK                            x       y       z     vdW  Elec       q    Type
REMARK                         _______ _______ _______ _____ _____    ______ ____
ROOT
ATOM      1  N   LIG    1       -0.913  -2.193   0.075  0.00  0.00    -0.520 NA
ATOM      2  C   LIG    1        0.195  -2.484  -0.845  0.00  0.00    +0.220 C 
ATOM      3  C   LIG    1        0.599  -3.954  -0.704  0.00  0.00    +0.280 C 
ATOM      4  N   LIG    1       -0.554  -4.810  -1.012  0.00  0.00    -0.380 N 
ATOM      5  C   LIG    1       -1.644  -4.525  -0.069  0.00  0.00    +0.280 C 
ATOM      6  H   LIG    1       -0.868  -4.626  -1.953  0.00  0.00    +0.420 HD
ATOM      7  C   LIG    1       -2.066  -3.060  -0.205  0.00  0.00    +0.210 C 
ENDROOT
BRANCH   1   8
ATOM      8  C   LIG    1       -1.293  -0.775   0.010  0.00  0.00    +0.230 C 
BRANCH   8  12
ATOM      9  N   LIG    1       -2.833   0.754   1.197  0.00  0.00    -0.850 N 
ATOM     10  H   LIG    1       -2.633   1.425   0.526  0.00  0.00    +0.410 HD
ATOM     11  H   LIG    1       -3.450   0.957   1.918  0.00  0.00    +0.410 HD
ATOM     12  C   LIG    1       -2.250  -0.460   1.130  0.00  0.00    +0.520 C 
ATOM     13  O   LIG    1       -2.497  -1.298   1.971  0.00  0.00    -0.530 OA
ENDBRANCH   8  12
ENDBRANCH   1   8
BRANCH   4  14
ATOM     14  C   LIG    1       -0.162  -6.221  -0.893  0.00  0.00    +0.240 C 
BRANCH  14  15
ATOM     15  C   LIG    1       -1.324  -7.112  -1.334  0.00  0.00    +0.240 C 
BRANCH  15  16
ATOM     16  C   LIG    1       -0.962  -8.579  -1.093  0.00  0.00    -0.090 C 
ATOM     17  C   LIG    1       -1.727  -9.326   0.001  0.00  0.00    +0.040 C 
ATOM     18  C   LIG    1       -2.002  -9.635  -1.472  0.00  0.00    +0.060 C 
ENDBRANCH  15  16
BRANCH  15  19
ATOM     19  O   LIG    1       -1.582  -6.907  -2.724  0.00  0.00    -0.550 OA
ATOM     20  H   LIG    1       -0.831  -7.113  -3.298  0.00  0.00    +0.390 HD
ENDBRANCH  15  19
ENDBRANCH  14  15
ENDBRANCH   4  14
TORSDOF 6
ENDMDL
MODEL      103
REMARK  Name = ZINC000085436828
REMARK                            x       y       z     vdW  Elec       q    Type
REMARK                         _______ _______ _______ _____ _____    ______ ____
ROOT
ATOM      1  N   LIG    1       -1.212  -2.221  -0.101  0.00  0.00    -0.520 NA
ATOM      2  C   LIG    1       -0.021  -2.470  -0.926  0.00  0.00    +0.220 C 
ATOM      3  C   LIG    1        0.453  -3.909  -0.712  0.00  0.00    +0.280 C 
ATOM      4  N   LIG    1       -0.623  -4.839  -1.082  0.00  0.00    -0.380 N 
ATOM      5  C   LIG    1       -1.796  -4.595  -0.233  0.00  0.00    +0.280 C 
ATOM      6  H   LIG    1       -0.872  -4.697  -2.049  0.00  0.00    +0.420 HD
ATOM      7  C   LIG    1       -2.289  -3.161  -0.443  0.00  0.00    +0.220 C 
ENDROOT
BRANCH   1   8
ATOM      8  C   LIG    1       -1.664  -0.830  -0.236  0.00  0.00    +0.230 C 
BRANCH   8  12
ATOM      9  N   LIG    1       -3.378   0.634   0.782  0.00  0.00    -0.850 N 
ATOM     10  H   LIG    1       -3.158   1.303   0.115  0.00  0.00    +0.410 HD
ATOM     11  H   LIG    1       -4.063   0.817   1.444  0.00  0.00    +0.410 HD
ATOM     12  C   LIG    1       -2.728  -0.546   0.793  0.00  0.00    +0.520 C 
ATOM     13  O   LIG    1       -2.999  -1.380   1.631  0.00  0.00    -0.530 OA
ENDBRANCH   8  12
ENDBRANCH   1   8
BRANCH   4  14
ATOM     14  C   LIG    1       -0.162  -6.221  -0.893  0.00  0.00    +0.240 C 
BRANCH  14  15
ATOM     15  C   LIG    1        0.972  -6.519  -1.877  0.00  0.00    +0.250 C 
BRANCH  15  16
ATOM     16  C   LIG    1        1.465  -7.952  -1.667  0.00  0.00    -0.090 C 
ATOM     17  C   LIG    1        1.288  -8.936  -2.824  0.00  0.00    +0.030 C 
ATOM     18  C   LIG    1        2.680  -8.406  -2.478  0.00  0.00    +0.040 C 
ENDBRANCH  15  16
BRANCH  15  19
ATOM     19  O   LIG    1        0.493  -6.371  -3.215  0.00  0.00    -0.550 OA
ATOM     20  H   LIG    1       -0.240  -6.960  -3.438  0.00  0.00    +0.390 HD
ENDBRANCH  15  19
ENDBRANCH  14  15
ENDBRANCH   4  14
TORSDOF 6
ENDMDL
MODEL      104
REMARK  Name = ZINC000004705203
REMARK                            x       y       z     vdW  Elec       q    Type
REMARK                         _______ _______ _______ _____ _____    ______ ____
ROOT
ATOM      1  C   LIG    1        1.790  -6.407  -3.045  0.00  0.00    +0.520 C 
ATOM      2  N   LIG    1        2.346  -7.158  -4.016  0.00  0.00    -0.710 N 
ATOM      3  H   LIG    1        2.771  -6.731  -4.776  0.00  0.00    +0.420 HD
ATOM      4  O   LIG    1        1.259  -6.941  -2.094  0.00  0.00    -0.500 OA
ENDROOT
BRANCH   1   7
ATOM      5  N   LIG    1        1.272  -4.165  -2.169  0.00  0.00    -0.690 N 
ATOM      6  H   LIG    1        0.847  -4.592  -1.409  0.00  0.00    +0.420 HD
ATOM      7  C   LIG    1        1.828  -4.916  -3.140  0.00  0.00    +0.510 C 
ATOM      8  O   LIG    1        2.360  -4.381  -4.091  0.00  0.00    -0.510 OA
BRANCH   5   9
ATOM      9  C   LIG    1        1.309  -2.703  -2.261  0.00  0.00    +0.280 C 
BRANCH   9  10
ATOM     10  C   LIG    1        0.613  -2.097  -1.041  0.00  0.00    +0.030 C 
BRANCH  10  11
ATOM     11  C   LIG    1        0.652  -0.570  -1.138  0.00  0.00    +0.160 C 
BRANCH  11  13
ATOM     12  C   LIG    1       -0.017   1.425   0.010  0.00  0.00    +0.200 C 
ATOM     13  O   LIG    1        0.002  -0.004   0.002  0.00  0.00    -0.390 OA
ENDBRANCH  11  13
ENDBRANCH  10  11
ENDBRANCH   9  10
ENDBRANCH   5   9
ENDBRANCH   1   7
BRANCH   2  14
ATOM     14  C   LIG    1        2.309  -8.619  -3.924  0.00  0.00    +0.290 C 
BRANCH  14  15
ATOM     15  C   LIG    1        3.005  -9.226  -5.144  0.00  0.00    +0.260 C 
BRANCH  15  16
ATOM     16  N   LIG    1        2.968 -10.691  -5.051  0.00  0.00    -0.380 N 
ATOM     17  C   LIG    1        3.738 -11.272  -6.159  0.00  0.00    +0.330 C 
ATOM     18  C   LIG    1        1.575 -11.152  -5.129  0.00  0.00    +0.330 C 
ATOM     19  H   LIG    1        3.370 -10.983  -4.173  0.00  0.00    +0.430 HD
ENDBRANCH  15  16
ENDBRANCH  14  15
ENDBRANCH   2  14
TORSDOF 8
ENDMDL
MODEL      105
REMARK  Name = ZINC000035851507
REMARK                            x       y       z     vdW  Elec       q    Type
REMARK                         _______ _______ _______ _____ _____    ______ ____
ROOT
ATOM      1  C   LIG    1       -2.929  -3.830   0.009  0.00  0.00    +0.290 C 
ATOM      2  C   LIG    1       -2.860  -4.336  -1.446  0.00  0.00    -0.270 C 
ATOM      3  S   LIG    1       -4.045  -5.741  -1.448  0.00  0.00    +2.390 S 
ATOM      4  C   LIG    1       -5.202  -4.944  -0.263  0.00  0.00    -0.270 C 
ATOM      5  O   LIG    1       -3.444  -6.879  -0.844  0.00  0.00    -0.910 OA
ATOM      6  O   LIG    1       -4.660  -5.850  -2.724  0.00  0.00    -0.890 OA
ATOM      7  C   LIG    1       -4.256  -4.174   0.675  0.00  0.00    +0.210 C 
ENDROOT
BRANCH   1   9
ATOM      8  C   LIG    1       -1.518  -1.844   0.007  0.00  0.00    +0.650 C 
ATOM      9  N   LIG    1       -2.757  -2.376   0.016  0.00  0.00    -0.710 N 
ATOM     10  H   LIG    1       -3.534  -1.795   0.026  0.00  0.00    +0.420 HD
ATOM     11  O   LIG    1       -0.545  -2.571  -0.006  0.00  0.00    -0.550 OA
BRANCH   8  12
ATOM     12  O   LIG    1       -1.360  -0.507   0.012  0.00  0.00    -0.360 OA
BRANCH  12  14
ATOM     13  C   LIG    1       -0.019   1.526   0.010  0.00  0.00    +0.070 C 
ATOM     14  C   LIG    1        0.002  -0.004   0.002  0.00  0.00    +0.240 C 
ENDBRANCH  12  14
ENDBRANCH   8  12
ENDBRANCH   1   9
BRANCH   7  15
ATOM     15  N   LIG    1       -3.987  -4.998   1.861  0.00  0.00    -0.640 N 
ATOM     16  H   LIG    1       -4.851  -5.174   2.351  0.00  0.00    +0.450 HD
ATOM     17  H   LIG    1       -3.348  -4.511   2.472  0.00  0.00    +0.450 HD
ATOM     18  H   LIG    1       -3.577  -5.875   1.576  0.00  0.00    +0.440 HD
ENDBRANCH   7  15
TORSDOF 4
ENDMDL
MODEL      106
REMARK  Name = ZINC000379811890
REMARK                            x       y       z     vdW  Elec       q    Type
REMARK                         _______ _______ _______ _____ _____    ______ ____
ROOT
ATOM      1  N   LIG    1       -1.117   4.220   1.248  0.00  0.00    -0.490 N 
ATOM      2  H   LIG    1       -0.697   3.781   2.054  0.00  0.00    +0.440 HD
ATOM      3  H   LIG    1       -2.122   4.186   1.334  0.00  0.00    +0.450 HD
ENDROOT
BRANCH   1   7
ATOM      4  O   LIG    1        0.002  -0.004   0.002  0.00  0.00    -0.420 OA
ATOM      5  C   LIG    1       -0.014   1.208   0.009  0.00  0.00    +0.520 C 
ATOM      6  C   LIG    1       -1.260   2.068   0.032  0.00  0.00    +0.150 C 
ATOM      7  C   LIG    1       -0.705   3.507   0.032  0.00  0.00    +0.190 C 
ATOM      8  C   LIG    1        0.795   3.309   0.009  0.00  0.00    +0.520 C 
ATOM      9  O   LIG    1        1.620   4.197   0.002  0.00  0.00    -0.430 OA
ATOM     10  N   LIG    1        1.066   1.998   0.003  0.00  0.00    -0.670 N 
ATOM     11  H   LIG    1        1.971   1.650  -0.012  0.00  0.00    +0.440 HD
ENDBRANCH   1   7
BRANCH   1  12
ATOM     12  C   LIG    1       -0.679   5.619   1.168  0.00  0.00    +0.280 C 
BRANCH  12  13
ATOM     13  C   LIG    1       -1.108   6.362   2.435  0.00  0.00    +0.400 C 
BRANCH  13  14
ATOM     14  N   LIG    1       -0.671   7.758   2.355  0.00  0.00    -0.160 N 
ATOM     15  N   LIG    1        0.462   8.211   2.768  0.00  0.00    -0.300 NA
ATOM     16  C   LIG    1        0.493   9.499   2.529  0.00  0.00    +0.420 A 
ATOM     17  N   LIG    1       -0.668   9.814   1.953  0.00  0.00    -0.260 NA
ATOM     18  N   LIG    1       -1.356   8.727   1.855  0.00  0.00    -0.050 NA
ENDBRANCH  13  14
ENDBRANCH  12  13
ENDBRANCH   1  12
TORSDOF 4
ENDMDL
MODEL      107
REMARK  Name = ZINC000035851506
REMARK                            x       y       z     vdW  Elec       q    Type
REMARK                         _______ _______ _______ _____ _____    ______ ____
ROOT
ATOM      1  C   LIG    1       -2.929  -3.830   0.009  0.00  0.00    +0.280 C 
ATOM      2  C   LIG    1       -2.832  -4.352   1.458  0.00  0.00    -0.270 C 
ATOM      3  S   LIG    1       -4.593  -4.449   1.976  0.00  0.00    +2.400 S 
ATOM      4  C   LIG    1       -5.197  -4.947   0.314  0.00  0.00    -0.290 C 
ATOM      5  O   LIG    1       -5.073  -3.150   2.295  0.00  0.00    -0.890 OA
ATOM      6  O   LIG    1       -4.766  -5.521   2.893  0.00  0.00    -0.890 OA
ATOM      7  C   LIG    1       -4.268  -4.167  -0.635  0.00  0.00    +0.200 C 
ENDROOT
BRANCH   1   9
ATOM      8  C   LIG    1       -1.518  -1.844   0.007  0.00  0.00    +0.650 C 
ATOM      9  N   LIG    1       -2.757  -2.376   0.016  0.00  0.00    -0.720 N 
ATOM     10  H   LIG    1       -3.534  -1.795   0.026  0.00  0.00    +0.420 HD
ATOM     11  O   LIG    1       -0.545  -2.571  -0.006  0.00  0.00    -0.550 OA
BRANCH   8  12
ATOM     12  O   LIG    1       -1.360  -0.507   0.012  0.00  0.00    -0.360 OA
BRANCH  12  14
ATOM     13  C   LIG    1       -0.019   1.526   0.010  0.00  0.00    +0.070 C 
ATOM     14  C   LIG    1        0.002  -0.004   0.002  0.00  0.00    +0.240 C 
ENDBRANCH  12  14
ENDBRANCH   8  12
ENDBRANCH   1   9
BRANCH   7  15
ATOM     15  N   LIG    1       -4.022  -4.978  -1.835  0.00  0.00    -0.630 N 
ATOM     16  H   LIG    1       -3.607  -5.858  -1.567  0.00  0.00    +0.440 HD
ATOM     17  H   LIG    1       -3.395  -4.484  -2.451  0.00  0.00    +0.440 HD
ATOM     18  H   LIG    1       -4.896  -5.149  -2.310  0.00  0.00    +0.450 HD
ENDBRANCH   7  15
TORSDOF 4
ENDMDL
MODEL      108
REMARK  Name = ZINC000379811894
REMARK                            x       y       z     vdW  Elec       q    Type
REMARK                         _______ _______ _______ _____ _____    ______ ____
ROOT
ATOM      1  N   LIG    1       -1.153   4.233  -1.164  0.00  0.00    -0.490 N 
ATOM      2  H   LIG    1       -2.160   4.200  -1.220  0.00  0.00    +0.450 HD
ATOM      3  H   LIG    1       -0.756   3.804  -1.986  0.00  0.00    +0.440 HD
ENDROOT
BRANCH   1   7
ATOM      4  O   LIG    1        0.002  -0.004   0.002  0.00  0.00    -0.430 OA
ATOM      5  C   LIG    1       -0.014   1.208   0.009  0.00  0.00    +0.520 C 
ATOM      6  C   LIG    1       -1.260   2.068   0.032  0.00  0.00    +0.150 C 
ATOM      7  C   LIG    1       -0.705   3.507   0.032  0.00  0.00    +0.190 C 
ATOM      8  C   LIG    1        0.795   3.309   0.009  0.00  0.00    +0.520 C 
ATOM      9  O   LIG    1        1.620   4.197   0.002  0.00  0.00    -0.430 OA
ATOM     10  N   LIG    1        1.066   1.998   0.003  0.00  0.00    -0.670 N 
ATOM     11  H   LIG    1        1.971   1.650  -0.012  0.00  0.00    +0.440 HD
ENDBRANCH   1   7
BRANCH   1  12
ATOM     12  C   LIG    1       -0.712   5.632  -1.081  0.00  0.00    +0.280 C 
BRANCH  12  13
ATOM     13  C   LIG    1       -1.178   6.388  -2.326  0.00  0.00    +0.400 C 
BRANCH  13  14
ATOM     14  N   LIG    1       -0.739   7.784  -2.244  0.00  0.00    -0.160 N 
ATOM     15  N   LIG    1       -1.407   8.747  -1.708  0.00  0.00    -0.310 NA
ATOM     16  C   LIG    1       -0.697   9.842  -1.823  0.00  0.00    +0.420 A 
ATOM     17  N   LIG    1        0.432   9.509  -2.449  0.00  0.00    -0.260 NA
ATOM     18  N   LIG    1        0.379   8.242  -2.689  0.00  0.00    -0.050 NA
ENDBRANCH  13  14
ENDBRANCH  12  13
ENDBRANCH   1  12
TORSDOF 4
ENDMDL
MODEL      109
REMARK  Name = ZINC000035851505
REMARK                            x       y       z     vdW  Elec       q    Type
REMARK                         _______ _______ _______ _____ _____    ______ ____
ROOT
ATOM      1  C   LIG    1       -2.929  -3.830   0.009  0.00  0.00    +0.300 C 
ATOM      2  C   LIG    1       -2.860  -4.336  -1.446  0.00  0.00    -0.280 C 
ATOM      3  S   LIG    1       -4.045  -5.741  -1.448  0.00  0.00    +2.410 S 
ATOM      4  C   LIG    1       -5.202  -4.944  -0.263  0.00  0.00    -0.300 C 
ATOM      5  O   LIG    1       -3.444  -6.879  -0.844  0.00  0.00    -0.890 OA
ATOM      6  O   LIG    1       -4.660  -5.850  -2.724  0.00  0.00    -0.890 OA
ATOM      7  C   LIG    1       -4.256  -4.174   0.675  0.00  0.00    +0.220 C 
ENDROOT
BRANCH   1   9
ATOM      8  C   LIG    1       -1.518  -1.844   0.007  0.00  0.00    +0.650 C 
ATOM      9  N   LIG    1       -2.757  -2.376   0.016  0.00  0.00    -0.730 N 
ATOM     10  H   LIG    1       -3.534  -1.795   0.026  0.00  0.00    +0.390 HD
ATOM     11  O   LIG    1       -0.545  -2.571  -0.006  0.00  0.00    -0.530 OA
BRANCH   8  12
ATOM     12  O   LIG    1       -1.360  -0.507   0.012  0.00  0.00    -0.360 OA
BRANCH  12  14
ATOM     13  C   LIG    1       -0.019   1.526   0.010  0.00  0.00    +0.070 C 
ATOM     14  C   LIG    1        0.002  -0.004   0.002  0.00  0.00    +0.240 C 
ENDBRANCH  12  14
ENDBRANCH   8  12
ENDBRANCH   1   9
BRANCH   7  15
ATOM     15  N   LIG    1       -4.911  -2.929   1.097  0.00  0.00    -0.630 N 
ATOM     16  H   LIG    1       -5.140  -2.377   0.283  0.00  0.00    +0.430 HD
ATOM     17  H   LIG    1       -4.288  -2.406   1.694  0.00  0.00    +0.440 HD
ATOM     18  H   LIG    1       -5.756  -3.148   1.603  0.00  0.00    +0.450 HD
ENDBRANCH   7  15
TORSDOF 4
ENDMDL
MODEL      110
REMARK  Name = ZINC000035851508
REMARK                            x       y       z     vdW  Elec       q    Type
REMARK                         _______ _______ _______ _____ _____    ______ ____
ROOT
ATOM      1  C   LIG    1       -2.929  -3.830   0.009  0.00  0.00    +0.300 C 
ATOM      2  C   LIG    1       -2.833  -4.350   1.452  0.00  0.00    -0.280 C 
ATOM      3  S   LIG    1       -4.460  -5.117   1.801  0.00  0.00    +2.410 S 
ATOM      4  C   LIG    1       -5.358  -4.227   0.467  0.00  0.00    -0.310 C 
ATOM      5  O   LIG    1       -4.929  -4.683   3.070  0.00  0.00    -0.890 OA
ATOM      6  O   LIG    1       -4.408  -6.504   1.498  0.00  0.00    -0.890 OA
ATOM      7  C   LIG    1       -4.274  -4.168  -0.637  0.00  0.00    +0.220 C 
ENDROOT
BRANCH   1   9
ATOM      8  C   LIG    1       -1.518  -1.844   0.007  0.00  0.00    +0.650 C 
ATOM      9  N   LIG    1       -2.757  -2.376   0.016  0.00  0.00    -0.740 N 
ATOM     10  H   LIG    1       -3.534  -1.795   0.026  0.00  0.00    +0.400 HD
ATOM     11  O   LIG    1       -0.545  -2.571  -0.006  0.00  0.00    -0.540 OA
BRANCH   8  12
ATOM     12  O   LIG    1       -1.360  -0.507   0.012  0.00  0.00    -0.360 OA
BRANCH  12  14
ATOM     13  C   LIG    1       -0.019   1.526   0.010  0.00  0.00    +0.070 C 
ATOM     14  C   LIG    1        0.002  -0.004   0.002  0.00  0.00    +0.240 C 
ENDBRANCH  12  14
ENDBRANCH   8  12
ENDBRANCH   1   9
BRANCH   7  15
ATOM     15  N   LIG    1       -4.621  -3.130  -1.616  0.00  0.00    -0.620 N 
ATOM     16  H   LIG    1       -5.502  -3.360  -2.052  0.00  0.00    +0.450 HD
ATOM     17  H   LIG    1       -3.901  -3.078  -2.321  0.00  0.00    +0.450 HD
ATOM     18  H   LIG    1       -4.699  -2.239  -1.149  0.00  0.00    +0.430 HD
ENDBRANCH   7  15
TORSDOF 4
ENDMDL
MODEL      111
REMARK  Name = ZINC000004008993
REMARK                            x       y       z     vdW  Elec       q    Type
REMARK                         _______ _______ _______ _____ _____    ______ ____
ROOT
ATOM      1  C   LIG    1        1.940  -4.751  -3.340  0.00  0.00    +0.220 C 
ATOM      2  C   LIG    1        1.140  -4.381  -4.606  0.00  0.00    -0.300 C 
ATOM      3  S   LIG    1        1.354  -5.864  -5.672  0.00  0.00    +2.410 S 
ATOM      4  C   LIG    1        1.340  -7.046  -4.264  0.00  0.00    -0.300 C 
ATOM      5  O   LIG    1        2.642  -5.844  -6.272  0.00  0.00    -0.890 OA
ATOM      6  O   LIG    1        0.195  -6.053  -6.472  0.00  0.00    -0.900 OA
ATOM      7  C   LIG    1        2.050  -6.258  -3.148  0.00  0.00    +0.190 C 
ENDROOT
BRANCH   1   8
ATOM      8  N   LIG    1        1.272  -4.168  -2.168  0.00  0.00    -0.500 N 
ATOM      9  H   LIG    1        0.312  -4.479  -2.139  0.00  0.00    +0.430 HD
ATOM     10  H   LIG    1        1.747  -4.465  -1.329  0.00  0.00    +0.440 HD
BRANCH   8  11
ATOM     11  C   LIG    1        1.309  -2.703  -2.261  0.00  0.00    +0.270 C 
BRANCH  11  12
ATOM     12  C   LIG    1        0.613  -2.097  -1.041  0.00  0.00    +0.050 C 
BRANCH  12  13
ATOM     13  C   LIG    1        0.652  -0.570  -1.138  0.00  0.00    +0.180 C 
BRANCH  13  15
ATOM     14  C   LIG    1       -0.017   1.425   0.010  0.00  0.00    +0.230 C 
ATOM     15  O   LIG    1        0.002  -0.004   0.002  0.00  0.00    -0.390 OA
ENDBRANCH  13  15
ENDBRANCH  12  13
ENDBRANCH  11  12
ENDBRANCH   8  11
ENDBRANCH   1   8
BRANCH   7  16
ATOM     16  O   LIG    1        3.433  -6.618  -3.135  0.00  0.00    -0.550 OA
ATOM     17  H   LIG    1        3.594  -7.553  -2.952  0.00  0.00    +0.410 HD
ENDBRANCH   7  16
TORSDOF 6
ENDMDL
MODEL      112
REMARK  Name = ZINC000001771407
REMARK                            x       y       z     vdW  Elec       q    Type
REMARK                         _______ _______ _______ _____ _____    ______ ____
ROOT
ATOM      1  C   LIG    1        1.940  -4.751  -3.340  0.00  0.00    +0.220 C 
ATOM      2  C   LIG    1        1.140  -4.381  -4.606  0.00  0.00    -0.310 C 
ATOM      3  S   LIG    1        1.354  -5.864  -5.672  0.00  0.00    +2.410 S 
ATOM      4  C   LIG    1        1.340  -7.046  -4.264  0.00  0.00    -0.310 C 
ATOM      5  O   LIG    1        2.642  -5.844  -6.272  0.00  0.00    -0.890 OA
ATOM      6  O   LIG    1        0.195  -6.053  -6.472  0.00  0.00    -0.890 OA
ATOM      7  C   LIG    1        2.050  -6.258  -3.148  0.00  0.00    +0.210 C 
ENDROOT
BRANCH   1   8
ATOM      8  N   LIG    1        1.272  -4.168  -2.168  0.00  0.00    -0.490 N 
ATOM      9  H   LIG    1        0.312  -4.479  -2.139  0.00  0.00    +0.430 HD
ATOM     10  H   LIG    1        1.747  -4.465  -1.329  0.00  0.00    +0.440 HD
BRANCH   8  11
ATOM     11  C   LIG    1        1.309  -2.703  -2.261  0.00  0.00    +0.270 C 
BRANCH  11  12
ATOM     12  C   LIG    1        0.613  -2.097  -1.041  0.00  0.00    +0.050 C 
BRANCH  12  13
ATOM     13  C   LIG    1        0.652  -0.570  -1.138  0.00  0.00    +0.180 C 
BRANCH  13  15
ATOM     14  C   LIG    1       -0.017   1.425   0.010  0.00  0.00    +0.230 C 
ATOM     15  O   LIG    1        0.002  -0.004   0.002  0.00  0.00    -0.390 OA
ENDBRANCH  13  15
ENDBRANCH  12  13
ENDBRANCH  11  12
ENDBRANCH   8  11
ENDBRANCH   1   8
BRANCH   7  16
ATOM     16  O   LIG    1        1.466  -6.607  -1.891  0.00  0.00    -0.580 OA
ATOM     17  H   LIG    1        1.554  -7.542  -1.663  0.00  0.00    +0.430 HD
ENDBRANCH   7  16
TORSDOF 6
ENDMDL
MODEL      113
REMARK  Name = ZINC000001771406
REMARK                            x       y       z     vdW  Elec       q    Type
REMARK                         _______ _______ _______ _____ _____    ______ ____
ROOT
ATOM      1  C   LIG    1        1.940  -4.751  -3.340  0.00  0.00    +0.210 C 
ATOM      2  C   LIG    1        3.450  -4.403  -3.306  0.00  0.00    -0.310 C 
ATOM      3  S   LIG    1        4.131  -5.654  -4.469  0.00  0.00    +2.420 S 
ATOM      4  C   LIG    1        2.973  -6.987  -3.981  0.00  0.00    -0.300 C 
ATOM      5  O   LIG    1        5.453  -5.998  -4.078  0.00  0.00    -0.890 OA
ATOM      6  O   LIG    1        3.864  -5.256  -5.806  0.00  0.00    -0.890 OA
ATOM      7  C   LIG    1        1.789  -6.273  -3.315  0.00  0.00    +0.200 C 
ENDROOT
BRANCH   1   8
ATOM      8  N   LIG    1        1.272  -4.168  -2.168  0.00  0.00    -0.490 N 
ATOM      9  H   LIG    1        0.312  -4.479  -2.139  0.00  0.00    +0.440 HD
ATOM     10  H   LIG    1        1.747  -4.465  -1.329  0.00  0.00    +0.430 HD
BRANCH   8  11
ATOM     11  C   LIG    1        1.309  -2.703  -2.261  0.00  0.00    +0.270 C 
BRANCH  11  12
ATOM     12  C   LIG    1        0.613  -2.097  -1.041  0.00  0.00    +0.050 C 
BRANCH  12  13
ATOM     13  C   LIG    1        0.652  -0.570  -1.138  0.00  0.00    +0.180 C 
BRANCH  13  15
ATOM     14  C   LIG    1       -0.017   1.425   0.010  0.00  0.00    +0.230 C 
ATOM     15  O   LIG    1        0.002  -0.004   0.002  0.00  0.00    -0.390 OA
ENDBRANCH  13  15
ENDBRANCH  12  13
ENDBRANCH  11  12
ENDBRANCH   8  11
ENDBRANCH   1   8
BRANCH   7  16
ATOM     16  O   LIG    1        0.588  -6.625  -4.004  0.00  0.00    -0.550 OA
ATOM     17  H   LIG    1        0.384  -7.570  -3.980  0.00  0.00    +0.410 HD
ENDBRANCH   7  16
TORSDOF 6
ENDMDL
MODEL      114
REMARK  Name = ZINC000004008994
REMARK                            x       y       z     vdW  Elec       q    Type
REMARK                         _______ _______ _______ _____ _____    ______ ____
ROOT
ATOM      1  C   LIG    1        1.940  -4.751  -3.340  0.00  0.00    +0.210 C 
ATOM      2  C   LIG    1        3.450  -4.403  -3.306  0.00  0.00    -0.310 C 
ATOM      3  S   LIG    1        4.131  -5.654  -4.469  0.00  0.00    +2.410 S 
ATOM      4  C   LIG    1        2.973  -6.987  -3.981  0.00  0.00    -0.300 C 
ATOM      5  O   LIG    1        5.453  -5.998  -4.078  0.00  0.00    -0.890 OA
ATOM      6  O   LIG    1        3.864  -5.256  -5.806  0.00  0.00    -0.900 OA
ATOM      7  C   LIG    1        1.789  -6.273  -3.315  0.00  0.00    +0.210 C 
ENDROOT
BRANCH   1   8
ATOM      8  N   LIG    1        1.272  -4.168  -2.168  0.00  0.00    -0.490 N 
ATOM      9  H   LIG    1        0.312  -4.479  -2.139  0.00  0.00    +0.440 HD
ATOM     10  H   LIG    1        1.747  -4.465  -1.329  0.00  0.00    +0.440 HD
BRANCH   8  11
ATOM     11  C   LIG    1        1.309  -2.703  -2.261  0.00  0.00    +0.270 C 
BRANCH  11  12
ATOM     12  C   LIG    1        0.613  -2.097  -1.041  0.00  0.00    +0.050 C 
BRANCH  12  13
ATOM     13  C   LIG    1        0.652  -0.570  -1.138  0.00  0.00    +0.180 C 
BRANCH  13  15
ATOM     14  C   LIG    1       -0.017   1.425   0.010  0.00  0.00    +0.230 C 
ATOM     15  O   LIG    1        0.002  -0.004   0.002  0.00  0.00    -0.390 OA
ENDBRANCH  13  15
ENDBRANCH  12  13
ENDBRANCH  11  12
ENDBRANCH   8  11
ENDBRANCH   1   8
BRANCH   7  16
ATOM     16  O   LIG    1        1.691  -6.706  -1.957  0.00  0.00    -0.580 OA
ATOM     17  H   LIG    1        1.527  -7.654  -1.857  0.00  0.00    +0.420 HD
ENDBRANCH   7  16
TORSDOF 6
ENDMDL
MODEL      115
REMARK  Name = ZINC000038932750
REMARK                            x       y       z     vdW  Elec       q    Type
REMARK                         _______ _______ _______ _____ _____    ______ ____
ROOT
ATOM      1  C   LIG    1        0.694  -2.144  -1.109  0.00  0.00    +0.040 A 
ATOM      2  C   LIG    1        1.310  -2.878  -2.116  0.00  0.00    +0.040 A 
ATOM      3  N   LIG    1        1.107  -4.182  -1.823  0.00  0.00    -0.370 N 
ATOM      4  C   LIG    1        0.408  -4.257  -0.704  0.00  0.00    +0.560 A 
ATOM      5  C   LIG    1        1.581  -5.321  -2.614  0.00  0.00    +0.410 C 
ATOM      6  N   LIG    1        0.153  -3.040  -0.254  0.00  0.00    -0.370 N 
ATOM      7  C   LIG    1       -0.598  -2.717   0.962  0.00  0.00    +0.410 C 
ENDROOT
BRANCH   1  11
ATOM      8  C   LIG    1        1.610   1.442  -0.264  0.00  0.00    +0.320 C 
ATOM      9  N   LIG    1        1.590  -0.023  -0.285  0.00  0.00    -0.710 N 
ATOM     10  H   LIG    1        2.256  -0.524   0.211  0.00  0.00    +0.410 HD
ATOM     11  C   LIG    1        0.646  -0.674  -0.993  0.00  0.00    +0.570 C 
ATOM     12  O   LIG    1       -0.244  -0.050  -1.536  0.00  0.00    -0.470 OA
ENDBRANCH   1  11
BRANCH   2  13
ATOM     13  C   LIG    1        2.044  -2.339  -3.277  0.00  0.00    +0.570 C 
ATOM     14  N   LIG    1        3.390  -2.279  -3.255  0.00  0.00    -0.710 N 
ATOM     15  H   LIG    1        3.873  -2.518  -2.449  0.00  0.00    +0.410 HD
ATOM     16  C   LIG    1        4.124  -1.852  -4.449  0.00  0.00    +0.320 C 
ATOM     17  O   LIG    1        1.434  -1.949  -4.254  0.00  0.00    -0.470 OA
ENDBRANCH   2  13
TORSDOF 2
ENDMDL
MODEL      116
REMARK  Name = ZINC000034085613
REMARK                            x       y       z     vdW  Elec       q    Type
REMARK                         _______ _______ _______ _____ _____    ______ ____
ROOT
ATOM      1  C   LIG    1       -0.699   1.479   1.216  0.00  0.00    +0.170 C 
ATOM      2  C   LIG    1       -2.135   0.901   1.298  0.00  0.00    +0.440 C 
ATOM      3  O   LIG    1       -2.431   0.932   2.711  0.00  0.00    -0.330 OA
ATOM      4  C   LIG    1       -1.233   0.535   3.399  0.00  0.00    +0.170 C 
ATOM      5  C   LIG    1       -0.041   0.896   2.490  0.00  0.00    +0.190 C 
ENDROOT
BRANCH   2   6
ATOM      6  N   LIG    1       -3.073   1.744   0.552  0.00  0.00    -0.540 N 
ATOM      7  C   LIG    1       -3.310   3.026   0.968  0.00  0.00    +0.320 A 
ATOM      8  C   LIG    1       -4.175   3.802   0.280  0.00  0.00    -0.070 A 
ATOM      9  C   LIG    1       -4.821   3.270  -0.862  0.00  0.00    +0.540 A 
ATOM     10  N   LIG    1       -4.560   2.002  -1.238  0.00  0.00    -0.650 N 
ATOM     11  H   LIG    1       -4.998   1.630  -2.020  0.00  0.00    +0.440 HD
ATOM     12  O   LIG    1       -5.604   3.951  -1.498  0.00  0.00    -0.480 OA
ATOM     13  C   LIG    1       -3.690   1.251  -0.538  0.00  0.00    +0.700 A 
ATOM     14  O   LIG    1       -3.464   0.110  -0.889  0.00  0.00    -0.530 OA
ENDBRANCH   2   6
BRANCH   1  15
ATOM     15  N   LIG    1       -0.012   1.005   0.008  0.00  0.00    -0.610 N 
ATOM     16  H   LIG    1       -0.500   1.339  -0.810  0.00  0.00    +0.440 HD
ATOM     17  H   LIG    1        0.935   1.354   0.000  0.00  0.00    +0.450 HD
ATOM     18  H   LIG    1        0.002  -0.004   0.002  0.00  0.00    +0.450 HD
ENDBRANCH   1  15
BRANCH   5  19
ATOM     19  O   LIG    1        0.718  -0.273   2.174  0.00  0.00    -0.570 OA
ATOM     20  H   LIG    1        1.104  -0.711   2.945  0.00  0.00    +0.430 HD
ENDBRANCH   5  19
BRANCH   4  21
ATOM     21  C   LIG    1       -1.123   1.286   4.728  0.00  0.00    +0.200 C 
BRANCH  21  22
ATOM     22  O   LIG    1       -2.176   0.868   5.599  0.00  0.00    -0.560 OA
ATOM     23  H   LIG    1       -2.168   1.304   6.462  0.00  0.00    +0.400 HD
ENDBRANCH  21  22
ENDBRANCH   4  21
TORSDOF 5
ENDMDL
MODEL      117
REMARK  Name = ZINC000040920654
REMARK                            x       y       z     vdW  Elec       q    Type
REMARK                         _______ _______ _______ _____ _____    ______ ____
ROOT
ATOM      1  C   LIG    1        0.731  -0.748  -1.059  0.00  0.00    +0.510 C 
ATOM      2  N   LIG    1        0.503  -2.067  -1.220  0.00  0.00    -0.580 N 
ATOM      3  C   LIG    1       -0.538  -2.754  -0.440  0.00  0.00    +0.280 C 
ATOM      4  C   LIG    1       -1.435  -3.535  -1.407  0.00  0.00    +0.180 C 
ATOM      5  N   LIG    1       -0.604  -4.412  -2.241  0.00  0.00    -0.530 NA
ATOM      6  C   LIG    1        0.318  -3.634  -3.079  0.00  0.00    +0.170 C 
ATOM      7  C   LIG    1        1.283  -2.856  -2.186  0.00  0.00    +0.300 C 
ATOM      8  O   LIG    1        1.514  -0.175  -1.786  0.00  0.00    -0.530 OA
ENDROOT
BRANCH   1  10
ATOM      9  C   LIG    1        0.178  -0.719   1.358  0.00  0.00    +0.120 C 
ATOM     10  C   LIG    1        0.013   0.013   0.025  0.00  0.00    +0.040 C 
ATOM     11  C   LIG    1       -1.474   0.114  -0.322  0.00  0.00    +0.110 C 
BRANCH  10  12
ATOM     12  N   LIG    1        0.583   1.363   0.134  0.00  0.00    -0.620 N 
ATOM     13  H   LIG    1        0.144   1.852   0.900  0.00  0.00    +0.440 HD
ATOM     14  H   LIG    1        0.420   1.868  -0.724  0.00  0.00    +0.440 HD
ATOM     15  H   LIG    1        1.576   1.296   0.302  0.00  0.00    +0.440 HD
ENDBRANCH  10  12
ENDBRANCH   1  10
BRANCH   5  16
ATOM     16  C   LIG    1       -1.436  -5.303  -3.061  0.00  0.00    +0.190 C 
BRANCH  16  17
ATOM     17  C   LIG    1       -0.552  -6.361  -3.723  0.00  0.00    +0.180 C 
BRANCH  17  18
ATOM     18  O   LIG    1        0.022  -7.199  -2.717  0.00  0.00    -0.560 OA
ATOM     19  H   LIG    1        0.596  -7.895  -3.066  0.00  0.00    +0.380 HD
ENDBRANCH  17  18
ENDBRANCH  16  17
ENDBRANCH   5  16
TORSDOF 5
ENDMDL
MODEL      118
REMARK  Name = ZINC000062533326
REMARK                            x       y       z     vdW  Elec       q    Type
REMARK                         _______ _______ _______ _____ _____    ______ ____
ROOT
ATOM      1  C   LIG    1       -1.845  -0.829   1.436  0.00  0.00    +0.060 C 
ENDROOT
BRANCH   1   2
ATOM      2  C   LIG    1       -1.293  -0.775   0.010  0.00  0.00    +0.200 C 
BRANCH   2   6
ATOM      3  N   LIG    1       -0.016   1.344   0.009  0.00  0.00    -0.850 N 
ATOM      4  H   LIG    1       -0.863   1.817   0.016  0.00  0.00    +0.400 HD
ATOM      5  H   LIG    1        0.817   1.840   0.004  0.00  0.00    +0.410 HD
ATOM      6  C   LIG    1        0.002  -0.004   0.002  0.00  0.00    +0.480 C 
ATOM      7  O   LIG    1        1.060  -0.596  -0.011  0.00  0.00    -0.530 OA
ENDBRANCH   2   6
BRANCH   2   8
ATOM      8  N   LIG    1       -1.052  -2.141  -0.473  0.00  0.00    -0.830 NA
ATOM      9  H   LIG    1       -0.386  -2.621   0.114  0.00  0.00    +0.360 HD
ATOM     10  H   LIG    1       -0.748  -2.136  -1.435  0.00  0.00    +0.360 HD
ENDBRANCH   2   8
ENDBRANCH   1   2
BRANCH   1  11
ATOM     11  C   LIG    1       -3.219  -1.502   1.425  0.00  0.00    +0.270 C 
BRANCH  11  12
ATOM     12  N   LIG    1       -3.750  -1.554   2.794  0.00  0.00    -0.370 N 
ATOM     13  C   LIG    1       -4.995  -2.345   2.792  0.00  0.00    +0.280 C 
ATOM     14  C   LIG    1       -5.260  -2.852   4.188  0.00  0.00    +0.030 C 
ATOM     15  C   LIG    1       -6.149  -1.881   4.984  0.00  0.00    +0.240 C 
ATOM     16  O   LIG    1       -5.792  -0.503   4.761  0.00  0.00    -0.370 OA
ATOM     17  C   LIG    1       -4.417  -0.210   4.720  0.00  0.00    +0.250 C 
ATOM     18  C   LIG    1       -3.939  -0.242   3.255  0.00  0.00    +0.210 C 
ATOM     19  H   LIG    1       -3.075  -2.012   3.387  0.00  0.00    +0.420 HD
ENDBRANCH  11  12
ENDBRANCH   1  11
TORSDOF 5
ENDMDL
MODEL      119
REMARK  Name = ZINC000089938932
REMARK                            x       y       z     vdW  Elec       q    Type
REMARK                         _______ _______ _______ _____ _____    ______ ____
ROOT
ATOM      1  C   LIG    1        2.079   0.043   1.247  0.00  0.00    +0.240 C 
ENDROOT
BRANCH   1  10
ATOM      2  C   LIG    1       -0.019   1.526   0.010  0.00  0.00    +0.080 C 
ATOM      3  C   LIG    1        0.002  -0.004   0.002  0.00  0.00    +0.130 C 
ATOM      4  C   LIG    1       -1.433  -0.534   0.014  0.00  0.00    +0.280 C 
ATOM      5  N   LIG    1       -1.413  -2.003   0.026  0.00  0.00    -0.390 N 
ATOM      6  C   LIG    1       -0.723  -2.475   1.234  0.00  0.00    +0.280 C 
ATOM      7  C   LIG    1        0.718  -1.961   1.232  0.00  0.00    +0.220 C 
ATOM      8  C   LIG    1       -2.791  -2.511   0.020  0.00  0.00    +0.310 C 
ATOM      9  H   LIG    1       -0.927  -2.339  -0.791  0.00  0.00    +0.420 HD
ATOM     10  N   LIG    1        0.712  -0.491   1.193  0.00  0.00    -0.520 NA
ENDBRANCH   1  10
BRANCH   1  11
ATOM     11  C   LIG    1        2.691  -0.278   2.587  0.00  0.00    +0.520 C 
ATOM     12  N   LIG    1        3.949   0.117   2.865  0.00  0.00    -0.690 N 
ATOM     13  H   LIG    1        4.461   0.607   2.202  0.00  0.00    +0.410 HD
ATOM     14  C   LIG    1        4.496  -0.170   4.063  0.00  0.00    +0.700 C 
ATOM     15  O   LIG    1        3.855  -0.784   4.892  0.00  0.00    -0.530 OA
ATOM     16  N   LIG    1        5.755   0.225   4.340  0.00  0.00    -0.850 N 
ATOM     17  H   LIG    1        6.149   0.019   5.203  0.00  0.00    +0.430 HD
ATOM     18  H   LIG    1        6.267   0.715   3.678  0.00  0.00    +0.400 HD
ATOM     19  O   LIG    1        2.051  -0.890   3.414  0.00  0.00    -0.450 OA
ENDBRANCH   1  11
TORSDOF 2
ENDMDL
MODEL      120
REMARK  Name = ZINC000237912186
REMARK                            x       y       z     vdW  Elec       q    Type
REMARK                         _______ _______ _______ _____ _____    ______ ____
ROOT
ATOM      1  C   LIG    1       -1.184  -0.926   0.222  0.00  0.00    +0.160 C 
ATOM      2  C   LIG    1       -2.010  -0.556   1.459  0.00  0.00    +0.310 C 
ATOM      3  N   LIG    1       -3.178  -1.449   1.521  0.00  0.00    -0.590 N 
ATOM      4  C   LIG    1       -2.947  -2.898   1.408  0.00  0.00    +0.250 C 
ATOM      5  C   LIG    1       -2.076  -3.154   0.173  0.00  0.00    +0.230 C 
ATOM      6  C   LIG    1       -4.422  -0.955   1.678  0.00  0.00    +0.510 C 
ATOM      7  O   LIG    1       -4.583   0.233   1.860  0.00  0.00    -0.520 OA
ATOM      8  O   LIG    1       -0.910  -2.329   0.240  0.00  0.00    -0.340 OA
ENDROOT
BRANCH   6   9
ATOM      9  C   LIG    1       -5.612  -1.878   1.627  0.00  0.00    +0.170 C 
ATOM     10  C   LIG    1       -5.978  -2.156   0.167  0.00  0.00    +0.070 C 
ATOM     11  C   LIG    1       -7.187  -3.095   0.120  0.00  0.00    +0.050 C 
ATOM     12  C   LIG    1       -8.344  -2.461   0.898  0.00  0.00    +0.060 C 
ATOM     13  C   LIG    1       -7.890  -2.171   2.331  0.00  0.00    +0.260 C 
ATOM     14  N   LIG    1       -6.749  -1.248   2.308  0.00  0.00    -0.490 N 
ATOM     15  H   LIG    1       -7.009  -0.406   1.817  0.00  0.00    +0.440 HD
ATOM     16  H   LIG    1       -6.486  -1.017   3.255  0.00  0.00    +0.430 HD
ENDBRANCH   6   9
BRANCH   1  20
ATOM     17  N   LIG    1        0.104   1.183   0.123  0.00  0.00    -0.850 N 
ATOM     18  H   LIG    1       -0.737   1.656   0.029  0.00  0.00    +0.400 HD
ATOM     19  H   LIG    1        0.940   1.676   0.132  0.00  0.00    +0.410 HD
ATOM     20  C   LIG    1        0.114  -0.160   0.236  0.00  0.00    +0.520 C 
ATOM     21  O   LIG    1        1.166  -0.752   0.348  0.00  0.00    -0.500 OA
ENDBRANCH   1  20
TORSDOF 2
ENDMDL
MODEL      121
REMARK  Name = ZINC000042539754
REMARK                            x       y       z     vdW  Elec       q    Type
REMARK                         _______ _______ _______ _____ _____    ______ ____
ROOT
ATOM      1  N   LIG    1       -1.117   4.220   1.248  0.00  0.00    -0.490 N 
ATOM      2  H   LIG    1       -0.697   3.781   2.054  0.00  0.00    +0.430 HD
ATOM      3  H   LIG    1       -2.122   4.186   1.334  0.00  0.00    +0.440 HD
ENDROOT
BRANCH   1   7
ATOM      4  O   LIG    1        0.002  -0.004   0.002  0.00  0.00    -0.430 OA
ATOM      5  C   LIG    1       -0.014   1.208   0.009  0.00  0.00    +0.520 C 
ATOM      6  C   LIG    1       -1.260   2.068   0.032  0.00  0.00    +0.140 C 
ATOM      7  C   LIG    1       -0.705   3.507   0.032  0.00  0.00    +0.180 C 
ATOM      8  C   LIG    1        0.795   3.309   0.009  0.00  0.00    +0.520 C 
ATOM      9  O   LIG    1        1.620   4.197   0.002  0.00  0.00    -0.430 OA
ATOM     10  N   LIG    1        1.066   1.998   0.003  0.00  0.00    -0.670 N 
ATOM     11  H   LIG    1        1.971   1.650  -0.012  0.00  0.00    +0.440 HD
ENDBRANCH   1   7
BRANCH   1  12
ATOM     12  C   LIG    1       -0.679   5.619   1.168  0.00  0.00    +0.270 C 
BRANCH  12  13
ATOM     13  C   LIG    1       -1.108   6.362   2.435  0.00  0.00    +0.340 C 
BRANCH  13  14
ATOM     14  N   LIG    1       -0.671   7.758   2.355  0.00  0.00    -0.400 N 
ATOM     15  C   LIG    1       -1.459   8.845   2.488  0.00  0.00    +0.240 A 
ATOM     16  C   LIG    1       -0.677   9.941   2.349  0.00  0.00    -0.090 A 
ATOM     17  C   LIG    1        0.634   9.508   2.123  0.00  0.00    +0.260 A 
ATOM     18  N   LIG    1        0.639   8.200   2.132  0.00  0.00    -0.300 NA
ENDBRANCH  13  14
ENDBRANCH  12  13
ENDBRANCH   1  12
TORSDOF 4
ENDMDL
MODEL      122
REMARK  Name = ZINC000004811920
REMARK                            x       y       z     vdW  Elec       q    Type
REMARK                         _______ _______ _______ _____ _____    ______ ____
ROOT
ATOM      1  C   LIG    1       -0.018   1.461   0.010  0.00  0.00    +0.370 C 
ATOM      2  N   LIG    1        0.002  -0.004   0.002  0.00  0.00    -0.500 N 
ATOM      3  C   LIG    1       -1.188  -0.710   0.004  0.00  0.00    +0.370 A 
ATOM      4  C   LIG    1       -1.145  -2.106  -0.004  0.00  0.00    -0.120 A 
ATOM      5  N   LIG    1       -2.453  -2.523   0.002  0.00  0.00    -0.420 N 
ATOM      6  C   LIG    1       -3.056  -3.780   0.010  0.00  0.00    +0.450 C 
ATOM      7  C   LIG    1       -4.356  -3.817  -0.244  0.00  0.00    +0.040 C 
ATOM      8  N   LIG    1       -5.111  -2.691  -0.550  0.00  0.00    -0.180 NA
ATOM      9  N   LIG    1       -4.613  -1.539   0.000  0.00  0.00    -0.570 N 
ATOM     10  H   LIG    1       -5.198  -0.859   0.369  0.00  0.00    +0.490 HD
ATOM     11  H   LIG    1       -6.051  -2.830  -0.212  0.00  0.00    +0.460 HD
ATOM     12  H   LIG    1       -5.140  -2.584  -1.553  0.00  0.00    +0.440 HD
ATOM     13  C   LIG    1       -3.240  -1.392   0.005  0.00  0.00    +0.510 A 
ATOM     14  C   LIG    1        0.108  -2.745  -0.013  0.00  0.00    +0.600 A 
ATOM     15  N   LIG    1        1.234  -2.002  -0.015  0.00  0.00    -0.640 N 
ATOM     16  H   LIG    1        2.097  -2.444  -0.022  0.00  0.00    +0.450 HD
ATOM     17  O   LIG    1        0.177  -3.961  -0.021  0.00  0.00    -0.500 OA
ATOM     18  N   LIG    1       -2.475  -0.339   0.011  0.00  0.00    -0.440 NA
ATOM     19  C   LIG    1        1.178  -0.659  -0.013  0.00  0.00    +0.710 A 
ATOM     20  O   LIG    1        2.213  -0.021  -0.014  0.00  0.00    -0.500 OA
ENDROOT
TORSDOF 0
ENDMDL
MODEL      123
REMARK  Name = ZINC000071788800
REMARK                            x       y       z     vdW  Elec       q    Type
REMARK                         _______ _______ _______ _____ _____    ______ ____
ROOT
ATOM      1  N   LIG    1       -0.795  -0.498  -1.363  0.00  0.00    -1.010 NA
ATOM      2  C   LIG    1       -2.247  -0.735  -1.345  0.00  0.00    +0.310 C 
ATOM      3  C   LIG    1       -2.881   0.039  -2.506  0.00  0.00    +0.190 C 
ATOM      4  N   LIG    1       -2.207  -0.326  -3.760  0.00  0.00    -0.510 NA
ATOM      5  C   LIG    1       -0.790   0.062  -3.736  0.00  0.00    +0.160 C 
ATOM      6  C   LIG    1       -0.072  -0.704  -2.627  0.00  0.00    +0.310 C 
ENDROOT
BRANCH   4   7
ATOM      7  C   LIG    1       -2.894   0.261  -4.917  0.00  0.00    +0.190 C 
ATOM      8  C   LIG    1       -2.321   1.621  -5.354  0.00  0.00    +0.250 C 
ATOM      9  N   LIG    1       -2.471   1.128  -6.740  0.00  0.00    -0.530 N 
ATOM     10  H   LIG    1       -1.698   1.386  -7.335  0.00  0.00    +0.430 HD
ATOM     11  H   LIG    1       -3.366   1.359  -7.146  0.00  0.00    +0.440 HD
ATOM     12  C   LIG    1       -2.394  -0.273  -6.271  0.00  0.00    +0.310 C 
ENDBRANCH   4   7
BRANCH   1  13
ATOM     13  S   LIG    1        0.002  -0.004   0.002  0.00  0.00    +2.790 S 
ATOM     14  O   LIG    1       -0.792  -0.422   1.104  0.00  0.00    -0.970 OA
ATOM     15  O   LIG    1        1.360  -0.386  -0.166  0.00  0.00    -0.970 OA
BRANCH  13  16
ATOM     16  N   LIG    1       -0.020   1.652   0.011  0.00  0.00    -1.260 NA
ATOM     17  H   LIG    1       -0.867   2.125   0.018  0.00  0.00    +0.410 HD
ATOM     18  H   LIG    1        0.813   2.148   0.006  0.00  0.00    +0.420 HD
ENDBRANCH  13  16
ENDBRANCH   1  13
TORSDOF 3
ENDMDL
MODEL      124
REMARK  Name = ZINC000253412190
REMARK                            x       y       z     vdW  Elec       q    Type
REMARK                         _______ _______ _______ _____ _____    ______ ____
ROOT
ATOM      1  O   LIG    1        0.002  -0.004   0.002  0.00  0.00    -0.510 OA
ATOM      2  C   LIG    1       -0.014   1.211   0.009  0.00  0.00    +0.590 C 
ATOM      3  N   LIG    1        1.143   1.901   0.001  0.00  0.00    -0.710 N 
ATOM      4  H   LIG    1        1.130   2.871   0.007  0.00  0.00    +0.420 HD
ENDROOT
BRANCH   3   5
ATOM      5  C   LIG    1        2.422   1.185  -0.015  0.00  0.00    +0.270 C 
ATOM      6  C   LIG    1        2.914   0.897   1.425  0.00  0.00    +0.270 C 
ATOM      7  N   LIG    1        4.382   0.765   1.303  0.00  0.00    -0.510 N 
ATOM      8  C   LIG    1        4.821   1.499   0.102  0.00  0.00    +0.280 C 
ATOM      9  H   LIG    1        4.629  -0.209   1.213  0.00  0.00    +0.440 HD
ATOM     10  H   LIG    1        4.827   1.154   2.121  0.00  0.00    +0.440 HD
ATOM     11  C   LIG    1        3.558   2.090  -0.560  0.00  0.00    +0.010 C 
BRANCH  11  12
ATOM     12  C   LIG    1        3.650   1.993  -2.084  0.00  0.00    +0.210 C 
BRANCH  12  13
ATOM     13  O   LIG    1        4.702   2.839  -2.553  0.00  0.00    -0.570 OA
ATOM     14  H   LIG    1        4.818   2.827  -3.513  0.00  0.00    +0.400 HD
ENDBRANCH  12  13
ENDBRANCH  11  12
ENDBRANCH   3   5
BRANCH   2  15
ATOM     15  C   LIG    1       -1.307   1.934   0.019  0.00  0.00    +0.010 A 
ATOM     16  C   LIG    1       -2.506   1.223   0.026  0.00  0.00    +0.300 A 
ATOM     17  N   LIG    1       -3.657   1.872   0.035  0.00  0.00    -0.430 NA
ATOM     18  C   LIG    1       -3.671   3.193   0.037  0.00  0.00    +0.280 A 
ATOM     19  C   LIG    1       -2.479   3.904   0.029  0.00  0.00    +0.240 A 
ATOM     20  N   LIG    1       -1.328   3.264   0.026  0.00  0.00    -0.410 NA
ENDBRANCH   2  15
TORSDOF 4
ENDMDL
MODEL      125
REMARK  Name = ZINC000005613046
REMARK                            x       y       z     vdW  Elec       q    Type
REMARK                         _______ _______ _______ _____ _____    ______ ____
ROOT
ATOM      1  N   LIG    1        0.002  -0.004   0.002  0.00  0.00    -0.460 N 
ATOM      2  H   LIG    1       -0.467  -0.492  -0.693  0.00  0.00    +0.440 HD
ATOM      3  C   LIG    1        0.686  -0.688   0.980  0.00  0.00    +0.460 C 
ATOM      4  N   LIG    1        0.785  -2.004   1.081  0.00  0.00    -0.610 N 
ATOM      5  C   LIG    1        1.628  -2.463   2.132  0.00  0.00    +0.230 C 
ATOM      6  C   LIG    1        1.575  -3.832   2.782  0.00  0.00    -0.260 C 
ATOM      7  S   LIG    1        2.813  -3.588   4.131  0.00  0.00    +2.410 S 
ATOM      8  C   LIG    1        2.660  -1.757   4.234  0.00  0.00    -0.240 C 
ATOM      9  O   LIG    1        4.106  -3.931   3.652  0.00  0.00    -0.890 OA
ATOM     10  O   LIG    1        2.324  -4.171   5.331  0.00  0.00    -0.890 OA
ATOM     11  C   LIG    1        1.446  -1.467   3.337  0.00  0.00    +0.060 C 
ATOM     12  H   LIG    1        0.318  -2.609   0.484  0.00  0.00    +0.440 HD
ATOM     13  S   LIG    1        1.601   0.048   2.328  0.00  0.00    +0.110 S 
ENDROOT
BRANCH   1  14
ATOM     14  N   LIG    1       -0.016   1.362   0.009  0.00  0.00    -0.590 N 
ATOM     15  H   LIG    1       -0.555   1.720  -0.765  0.00  0.00    +0.400 HD
ATOM     16  H   LIG    1        0.920   1.736   0.003  0.00  0.00    +0.380 HD
ENDBRANCH   1  14
TORSDOF 1
ENDMDL
MODEL      126
REMARK  Name = ZINC000098089014
REMARK                            x       y       z     vdW  Elec       q    Type
REMARK                         _______ _______ _______ _____ _____    ______ ____
ROOT
ATOM      1  C   LIG    1       -0.720   2.985   1.224  0.00  0.00    +0.090 A 
ATOM      2  N   LIG    1        0.187   3.763   1.740  0.00  0.00    -0.330 NA
ATOM      3  O   LIG    1       -0.117   4.927   1.586  0.00  0.00    +0.130 OA
ATOM      4  C   LIG    1       -1.288   5.005   0.934  0.00  0.00    +0.190 A 
ATOM      5  N   LIG    1       -1.673   3.767   0.697  0.00  0.00    -0.410 NA
ENDROOT
BRANCH   4   6
ATOM      6  C   LIG    1       -2.006   6.244   0.550  0.00  0.00    +0.620 C 
ATOM      7  N   LIG    1       -1.484   7.448   0.857  0.00  0.00    -0.590 N 
ATOM      8  C   LIG    1       -0.210   7.678   1.564  0.00  0.00    +0.270 C 
ATOM      9  C   LIG    1        0.233   9.098   1.131  0.00  0.00    +0.060 C 
ATOM     10  C   LIG    1       -1.127   9.840   1.060  0.00  0.00    +0.180 C 
ATOM     11  C   LIG    1       -2.087   8.750   0.538  0.00  0.00    +0.250 C 
ATOM     12  O   LIG    1       -3.064   6.174  -0.042  0.00  0.00    -0.460 OA
BRANCH  10  13
ATOM     13  O   LIG    1       -1.058  10.935   0.143  0.00  0.00    -0.550 OA
ATOM     14  H   LIG    1       -1.884  11.432   0.062  0.00  0.00    +0.390 HD
ENDBRANCH  10  13
ENDBRANCH   4   6
BRANCH   1  15
ATOM     15  C   LIG    1       -0.699   1.479   1.216  0.00  0.00    +0.450 C 
BRANCH  15  16
ATOM     16  N   LIG    1       -0.012   1.005   0.008  0.00  0.00    -0.630 N 
ATOM     17  H   LIG    1       -0.500   1.339  -0.810  0.00  0.00    +0.440 HD
ATOM     18  H   LIG    1        0.935   1.354   0.000  0.00  0.00    +0.440 HD
ATOM     19  H   LIG    1        0.002  -0.004   0.002  0.00  0.00    +0.450 HD
ENDBRANCH  15  16
ENDBRANCH   1  15
TORSDOF 4
ENDMDL
MODEL      127
REMARK  Name = ZINC000005613051
REMARK                            x       y       z     vdW  Elec       q    Type
REMARK                         _______ _______ _______ _____ _____    ______ ____
ROOT
ATOM      1  N   LIG    1        0.002  -0.004   0.002  0.00  0.00    -0.470 N 
ATOM      2  H   LIG    1       -0.467  -0.492  -0.693  0.00  0.00    +0.440 HD
ATOM      3  C   LIG    1        0.686  -0.688   0.980  0.00  0.00    +0.450 C 
ATOM      4  N   LIG    1        0.771  -1.967   1.063  0.00  0.00    -0.620 N 
ATOM      5  C   LIG    1        1.512  -2.571   2.153  0.00  0.00    +0.290 C 
ATOM      6  C   LIG    1        0.585  -3.517   2.948  0.00  0.00    -0.290 C 
ATOM      7  S   LIG    1        1.210  -3.370   4.669  0.00  0.00    +2.410 S 
ATOM      8  C   LIG    1        1.649  -1.592   4.503  0.00  0.00    -0.250 C 
ATOM      9  O   LIG    1        2.391  -4.146   4.821  0.00  0.00    -0.890 OA
ATOM     10  O   LIG    1        0.134  -3.517   5.586  0.00  0.00    -0.890 OA
ATOM     11  C   LIG    1        2.124  -1.502   3.062  0.00  0.00    +0.070 C 
ATOM     12  H   LIG    1        0.342  -2.527   0.398  0.00  0.00    +0.440 HD
ATOM     13  S   LIG    1        1.584   0.063   2.305  0.00  0.00    +0.130 S 
ENDROOT
BRANCH   1  14
ATOM     14  N   LIG    1       -0.016   1.362   0.009  0.00  0.00    -0.590 N 
ATOM     15  H   LIG    1       -0.555   1.720  -0.765  0.00  0.00    +0.400 HD
ATOM     16  H   LIG    1        0.920   1.736   0.003  0.00  0.00    +0.370 HD
ENDBRANCH   1  14
TORSDOF 1
ENDMDL
MODEL      128
REMARK  Name = ZINC000077010508
REMARK                            x       y       z     vdW  Elec       q    Type
REMARK                         _______ _______ _______ _____ _____    ______ ____
ROOT
ATOM      1  C   LIG    1       -2.571  -2.730   0.012  0.00  0.00    +0.200 C 
ATOM      2  C   LIG    1       -2.576  -4.273  -0.045  0.00  0.00    +0.080 C 
ATOM      3  C   LIG    1       -3.742  -4.704   0.868  0.00  0.00    +0.090 C 
ATOM      4  C   LIG    1       -4.343  -3.386   1.401  0.00  0.00    +0.190 C 
ATOM      5  N   LIG    1       -3.236  -2.399   1.298  0.00  0.00    -0.520 N 
ATOM      6  H   LIG    1       -3.602  -1.459   1.280  0.00  0.00    +0.440 HD
ATOM      7  H   LIG    1       -2.591  -2.511   2.066  0.00  0.00    +0.420 HD
ENDROOT
BRANCH   1   8
ATOM      8  C   LIG    1       -1.135  -2.201   0.001  0.00  0.00    +0.090 C 
BRANCH   8  12
ATOM      9  C   LIG    1       -0.018   1.461   0.010  0.00  0.00    +0.310 C 
ATOM     10  N   LIG    1        0.002  -0.004   0.002  0.00  0.00    -0.720 N 
ATOM     11  H   LIG    1        0.849  -0.478  -0.009  0.00  0.00    +0.410 HD
ATOM     12  C   LIG    1       -1.156  -0.694   0.009  0.00  0.00    +0.500 C 
ATOM     13  O   LIG    1       -2.214  -0.102   0.023  0.00  0.00    -0.550 OA
ENDBRANCH   8  12
ENDBRANCH   1   8
BRANCH   4  14
ATOM     14  C   LIG    1       -4.783  -3.550   2.857  0.00  0.00    +0.310 C 
BRANCH  14  15
ATOM     15  N   LIG    1       -5.206  -2.252   3.389  0.00  0.00    -1.140 NA
ATOM     16  H   LIG    1       -4.978  -1.436   2.915  0.00  0.00    +0.410 HD
BRANCH  15  17
ATOM     17  S   LIG    1       -6.073  -2.177   4.797  0.00  0.00    +2.610 S 
ATOM     18  O   LIG    1       -7.142  -3.092   4.600  0.00  0.00    -0.940 OA
ATOM     19  O   LIG    1       -6.321  -0.790   4.982  0.00  0.00    -0.940 OA
ATOM     20  C   LIG    1       -4.932  -2.794   6.065  0.00  0.00    -0.270 C 
ENDBRANCH  15  17
ENDBRANCH  14  15
ENDBRANCH   4  14
TORSDOF 5
ENDMDL
MODEL      129
REMARK  Name = ZINC000237931393
REMARK                            x       y       z     vdW  Elec       q    Type
REMARK                         _______ _______ _______ _____ _____    ______ ____
ROOT
ATOM      1  C   LIG    1       -1.306  -0.755   0.034  0.00  0.00    +0.160 C 
ATOM      2  C   LIG    1       -2.058  -0.509  -1.279  0.00  0.00    +0.310 C 
ATOM      3  N   LIG    1       -3.221  -1.409  -1.323  0.00  0.00    -0.590 N 
ATOM      4  C   LIG    1       -3.000  -2.839  -1.058  0.00  0.00    +0.260 C 
ATOM      5  C   LIG    1       -2.202  -2.971   0.245  0.00  0.00    +0.230 C 
ATOM      6  C   LIG    1       -4.453  -0.937  -1.599  0.00  0.00    +0.510 C 
ATOM      7  O   LIG    1       -4.633   0.256  -1.720  0.00  0.00    -0.520 OA
ATOM      8  O   LIG    1       -1.034  -2.152   0.168  0.00  0.00    -0.340 OA
ENDROOT
BRANCH   6   9
ATOM      9  C   LIG    1       -5.608  -1.892  -1.758  0.00  0.00    +0.170 C 
ATOM     10  C   LIG    1       -5.513  -2.585  -3.119  0.00  0.00    +0.080 C 
ATOM     11  C   LIG    1       -6.688  -3.555  -3.275  0.00  0.00    +0.050 C 
ATOM     12  C   LIG    1       -7.999  -2.783  -3.107  0.00  0.00    +0.060 C 
ATOM     13  C   LIG    1       -8.002  -2.083  -1.747  0.00  0.00    +0.260 C 
ATOM     14  N   LIG    1       -6.871  -1.151  -1.670  0.00  0.00    -0.490 N 
ATOM     15  H   LIG    1       -6.927  -0.493  -2.433  0.00  0.00    +0.440 HD
ATOM     16  H   LIG    1       -6.907  -0.652  -0.794  0.00  0.00    +0.430 HD
ENDBRANCH   6   9
BRANCH   1  20
ATOM     17  N   LIG    1       -0.023   1.360   0.006  0.00  0.00    -0.850 N 
ATOM     18  H   LIG    1       -0.869   1.836  -0.004  0.00  0.00    +0.400 HD
ATOM     19  H   LIG    1        0.811   1.854  -0.002  0.00  0.00    +0.410 HD
ATOM     20  C   LIG    1       -0.009   0.013   0.023  0.00  0.00    +0.520 C 
ATOM     21  O   LIG    1        1.048  -0.583   0.030  0.00  0.00    -0.500 OA
ENDBRANCH   1  20
TORSDOF 2
ENDMDL
MODEL      130
REMARK  Name = ZINC000034522724
REMARK                            x       y       z     vdW  Elec       q    Type
REMARK                         _______ _______ _______ _____ _____    ______ ____
ROOT
ATOM      1  C   LIG    1       -0.018   1.461   0.010  0.00  0.00    +0.380 C 
ATOM      2  N   LIG    1        0.002  -0.004   0.002  0.00  0.00    -0.530 N 
ATOM      3  C   LIG    1       -1.180  -0.708   0.009  0.00  0.00    +0.460 C 
ATOM      4  N   LIG    1       -1.276  -1.990   0.009  0.00  0.00    -0.630 N 
ATOM      5  C   LIG    1       -2.595  -2.614  -0.028  0.00  0.00    +0.260 C 
ATOM      6  C   LIG    1       -3.681  -1.569   0.070  0.00  0.00    +0.290 C 
ATOM      7  O   LIG    1       -4.770  -1.608  -0.783  0.00  0.00    -0.300 OA
ATOM      8  C   LIG    1       -4.718  -2.305  -2.008  0.00  0.00    +0.150 C 
ATOM      9  C   LIG    1       -4.045  -3.656  -1.840  0.00  0.00    +0.150 C 
ATOM     10  C   LIG    1       -2.680  -3.516  -1.240  0.00  0.00    +0.180 C 
ATOM     11  H   LIG    1       -0.477  -2.539   0.033  0.00  0.00    +0.440 HD
ATOM     12  S   LIG    1       -2.795   0.016   0.029  0.00  0.00    +0.040 S 
ATOM     13  C   LIG    1        1.281  -0.719  -0.014  0.00  0.00    +0.350 C 
ENDROOT
BRANCH   9  14
ATOM     14  O   LIG    1       -3.938  -4.287  -3.117  0.00  0.00    -0.550 OA
ATOM     15  H   LIG    1       -4.787  -4.440  -3.553  0.00  0.00    +0.400 HD
ENDBRANCH   9  14
BRANCH  10  16
ATOM     16  O   LIG    1       -2.215  -4.815  -0.866  0.00  0.00    -0.550 OA
ATOM     17  H   LIG    1       -2.150  -5.437  -1.604  0.00  0.00    +0.410 HD
ENDBRANCH  10  16
BRANCH   8  18
ATOM     18  C   LIG    1       -6.142  -2.515  -2.527  0.00  0.00    +0.220 C 
BRANCH  18  19
ATOM     19  O   LIG    1       -6.730  -1.249  -2.833  0.00  0.00    -0.560 OA
ATOM     20  H   LIG    1       -7.635  -1.307  -3.167  0.00  0.00    +0.400 HD
ENDBRANCH  18  19
ENDBRANCH   8  18
TORSDOF 4
ENDMDL
MODEL      131
REMARK  Name = ZINC000253495813
REMARK                            x       y       z     vdW  Elec       q    Type
REMARK                         _______ _______ _______ _____ _____    ______ ____
ROOT
ATOM      1  O   LIG    1       -0.102   0.164   0.032  0.00  0.00    -0.900 OA
ATOM      2  S   LIG    1       -0.087   1.582   0.125  0.00  0.00    +2.400 S 
ATOM      3  C   LIG    1       -0.354   2.098   1.874  0.00  0.00    -0.300 C 
ATOM      4  C   LIG    1        1.018   1.792   2.494  0.00  0.00    +0.160 C 
ATOM      5  N   LIG    1        1.170   2.297   3.827  0.00  0.00    -0.480 N 
ATOM      6  C   LIG    1        2.034   3.478   3.901  0.00  0.00    +0.280 C 
ATOM      7  C   LIG    1        3.377   3.118   3.252  0.00  0.00    +0.240 C 
ATOM      8  N   LIG    1        3.151   2.919   1.821  0.00  0.00    -0.540 NA
ATOM      9  H   LIG    1        1.564   1.572   4.406  0.00  0.00    +0.430 HD
ATOM     10  H   LIG    1        0.259   2.539   4.187  0.00  0.00    +0.440 HD
ATOM     11  C   LIG    1        2.155   1.917   1.521  0.00  0.00    +0.180 C 
ATOM     12  O   LIG    1       -0.898   2.365  -0.740  0.00  0.00    -0.890 OA
ATOM     13  C   LIG    1        1.647   2.193   0.079  0.00  0.00    -0.270 C 
ENDROOT
BRANCH   8  14
ATOM     14  C   LIG    1        4.414   2.645   1.122  0.00  0.00    +0.220 C 
BRANCH  14  15
ATOM     15  C   LIG    1        5.189   3.951   0.940  0.00  0.00    +0.200 C 
BRANCH  15  16
ATOM     16  O   LIG    1        5.604   4.441   2.216  0.00  0.00    -0.580 OA
ATOM     17  H   LIG    1        6.103   5.269   2.177  0.00  0.00    +0.390 HD
ENDBRANCH  15  16
ENDBRANCH  14  15
ENDBRANCH   8  14
TORSDOF 3
ENDMDL
MODEL      132
REMARK  Name = ZINC000035187948
REMARK                            x       y       z     vdW  Elec       q    Type
REMARK                         _______ _______ _______ _____ _____    ______ ____
ROOT
ATOM      1  O   LIG    1        0.002  -0.004   0.002  0.00  0.00    -0.530 OA
ATOM      2  C   LIG    1       -0.014   1.209   0.009  0.00  0.00    +0.510 C 
ATOM      3  N   LIG    1       -1.191   1.867   0.018  0.00  0.00    -0.580 N 
ATOM      4  C   LIG    1       -1.233   3.337   0.020  0.00  0.00    +0.290 C 
ATOM      5  C   LIG    1       -2.166   3.798  -1.105  0.00  0.00    +0.180 C 
ATOM      6  N   LIG    1       -3.470   3.139  -0.957  0.00  0.00    -0.530 NA
ATOM      7  C   LIG    1       -3.350   1.682  -1.099  0.00  0.00    +0.170 C 
ATOM      8  C   LIG    1       -2.466   1.133   0.020  0.00  0.00    +0.300 C 
ENDROOT
BRANCH   2   9
ATOM      9  C   LIG    1        1.280   1.980   0.001  0.00  0.00    +0.170 C 
ATOM     10  C   LIG    1        1.418   2.816   1.297  0.00  0.00    +0.100 C 
ATOM     11  C   LIG    1        2.957   2.988   1.397  0.00  0.00    +0.090 C 
ATOM     12  C   LIG    1        3.492   1.643   0.862  0.00  0.00    +0.270 C 
ATOM     13  N   LIG    1        2.432   1.053   0.022  0.00  0.00    -0.500 N 
ATOM     14  H   LIG    1        2.777   0.917  -0.916  0.00  0.00    +0.440 HD
ATOM     15  H   LIG    1        2.145   0.167   0.410  0.00  0.00    +0.440 HD
ENDBRANCH   2   9
BRANCH   6  16
ATOM     16  C   LIG    1       -4.446   3.682  -1.911  0.00  0.00    +0.190 C 
BRANCH  16  17
ATOM     17  C   LIG    1       -5.842   3.159  -1.567  0.00  0.00    +0.180 C 
BRANCH  17  18
ATOM     18  O   LIG    1       -6.239   3.665  -0.291  0.00  0.00    -0.560 OA
ATOM     19  H   LIG    1       -7.116   3.373  -0.008  0.00  0.00    +0.380 HD
ENDBRANCH  17  18
ENDBRANCH  16  17
ENDBRANCH   6  16
TORSDOF 4
ENDMDL
MODEL      133
REMARK  Name = ZINC000035187949
REMARK                            x       y       z     vdW  Elec       q    Type
REMARK                         _______ _______ _______ _____ _____    ______ ____
ROOT
ATOM      1  O   LIG    1       -0.157   0.004  -0.007  0.00  0.00    -0.530 OA
ATOM      2  C   LIG    1       -0.014   1.209   0.009  0.00  0.00    +0.500 C 
ATOM      3  N   LIG    1       -1.095   2.015   0.010  0.00  0.00    -0.590 N 
ATOM      4  C   LIG    1       -0.947   3.475  -0.092  0.00  0.00    +0.290 C 
ATOM      5  C   LIG    1       -1.859   3.979  -1.215  0.00  0.00    +0.180 C 
ATOM      6  N   LIG    1       -3.230   3.508  -0.978  0.00  0.00    -0.530 NA
ATOM      7  C   LIG    1       -3.304   2.042  -1.019  0.00  0.00    +0.170 C 
ATOM      8  C   LIG    1       -2.452   1.458   0.106  0.00  0.00    +0.300 C 
ENDROOT
BRANCH   2   9
ATOM      9  C   LIG    1        1.370   1.804   0.021  0.00  0.00    +0.160 C 
ATOM     10  C   LIG    1        1.829   2.094  -1.424  0.00  0.00    +0.090 C 
ATOM     11  C   LIG    1        3.334   1.718  -1.395  0.00  0.00    +0.080 C 
ATOM     12  C   LIG    1        3.335   0.506  -0.430  0.00  0.00    +0.270 C 
ATOM     13  N   LIG    1        2.325   0.842   0.601  0.00  0.00    -0.500 N 
ATOM     14  H   LIG    1        1.834   0.006   0.880  0.00  0.00    +0.440 HD
ATOM     15  H   LIG    1        2.781   1.252   1.402  0.00  0.00    +0.440 HD
ENDBRANCH   2   9
BRANCH   6  16
ATOM     16  C   LIG    1       -4.167   4.111  -1.935  0.00  0.00    +0.190 C 
BRANCH  16  17
ATOM     17  C   LIG    1       -5.603   3.799  -1.509  0.00  0.00    +0.180 C 
BRANCH  17  18
ATOM     18  O   LIG    1       -5.877   4.437  -0.260  0.00  0.00    -0.560 OA
ATOM     19  H   LIG    1       -6.772   4.283   0.072  0.00  0.00    +0.380 HD
ENDBRANCH  17  18
ENDBRANCH  16  17
ENDBRANCH   6  16
TORSDOF 4
ENDMDL
MODEL      134
REMARK  Name = ZINC000253495695
REMARK                            x       y       z     vdW  Elec       q    Type
REMARK                         _______ _______ _______ _____ _____    ______ ____
ROOT
ATOM      1  N   LIG    1       -2.647  -2.571   0.013  0.00  0.00    -0.510 NA
ATOM      2  C   LIG    1       -3.335  -2.161  -1.218  0.00  0.00    +0.230 C 
ATOM      3  C   LIG    1       -4.804  -2.584  -1.121  0.00  0.00    +0.300 C 
ATOM      4  N   LIG    1       -4.872  -4.044  -1.001  0.00  0.00    -0.510 N 
ATOM      5  C   LIG    1       -4.203  -4.489   0.230  0.00  0.00    +0.230 C 
ATOM      6  C   LIG    1       -4.194  -6.036   0.224  0.00  0.00    -0.280 C 
ATOM      7  S   LIG    1       -2.638  -6.496  -0.622  0.00  0.00    +2.400 S 
ATOM      8  C   LIG    1       -2.002  -4.792  -0.862  0.00  0.00    -0.360 C 
ATOM      9  O   LIG    1       -2.941  -7.071  -1.885  0.00  0.00    -0.900 OA
ATOM     10  O   LIG    1       -1.795  -7.189   0.288  0.00  0.00    -0.890 OA
ATOM     11  H   LIG    1       -4.417  -4.466  -1.797  0.00  0.00    +0.420 HD
ATOM     12  H   LIG    1       -5.839  -4.333  -0.978  0.00  0.00    +0.440 HD
ATOM     13  C   LIG    1       -2.746  -4.008   0.243  0.00  0.00    +0.240 C 
ENDROOT
BRANCH   1  14
ATOM     14  C   LIG    1       -1.244  -2.135   0.003  0.00  0.00    +0.300 C 
BRANCH  14  15
ATOM     15  C   LIG    1       -1.185  -0.630   0.010  0.00  0.00    +0.460 C 
ATOM     16  O   LIG    1       -2.208   0.015   0.023  0.00  0.00    -0.490 OA
BRANCH  15  18
ATOM     17  C   LIG    1       -0.018   1.448   0.010  0.00  0.00    +0.290 C 
ATOM     18  O   LIG    1        0.002  -0.004   0.002  0.00  0.00    -0.350 OA
ENDBRANCH  15  18
ENDBRANCH  14  15
ENDBRANCH   1  14
TORSDOF 3
ENDMDL
MODEL      135
REMARK  Name = ZINC000035609634
REMARK                            x       y       z     vdW  Elec       q    Type
REMARK                         _______ _______ _______ _____ _____    ______ ____
ROOT
ATOM      1  C   LIG    1       -1.420  -0.486   0.130  0.00  0.00    +0.500 C 
ATOM      2  N   LIG    1       -2.181  -0.075   1.163  0.00  0.00    -0.590 N 
ATOM      3  C   LIG    1       -1.683   0.933   2.112  0.00  0.00    +0.290 C 
ATOM      4  C   LIG    1       -2.735   2.040   2.243  0.00  0.00    +0.180 C 
ATOM      5  N   LIG    1       -4.030   1.442   2.593  0.00  0.00    -0.530 NA
ATOM      6  C   LIG    1       -4.509   0.547   1.531  0.00  0.00    +0.170 C 
ATOM      7  C   LIG    1       -3.533  -0.616   1.369  0.00  0.00    +0.300 C 
ATOM      8  O   LIG    1       -1.881  -1.243  -0.698  0.00  0.00    -0.520 OA
ENDROOT
BRANCH   1  10
ATOM      9  C   LIG    1        0.028   1.326  -0.748  0.00  0.00    +0.120 C 
ATOM     10  C   LIG    1        0.003  -0.007   0.004  0.00  0.00    +0.170 C 
BRANCH  10  11
ATOM     11  N   LIG    1        0.791  -1.001  -0.737  0.00  0.00    -0.620 N 
ATOM     12  H   LIG    1        0.396  -1.127  -1.656  0.00  0.00    +0.440 HD
ATOM     13  H   LIG    1        0.775  -1.880  -0.241  0.00  0.00    +0.440 HD
ATOM     14  H   LIG    1        1.744  -0.680  -0.821  0.00  0.00    +0.440 HD
ENDBRANCH  10  11
ENDBRANCH   1  10
BRANCH   5  15
ATOM     15  C   LIG    1       -5.025   2.480   2.895  0.00  0.00    +0.190 C 
BRANCH  15  16
ATOM     16  C   LIG    1       -6.275   1.831   3.492  0.00  0.00    +0.180 C 
BRANCH  16  17
ATOM     17  O   LIG    1       -5.949   1.241   4.753  0.00  0.00    -0.560 OA
ATOM     18  H   LIG    1       -6.696   0.810   5.190  0.00  0.00    +0.380 HD
ENDBRANCH  16  17
ENDBRANCH  15  16
ENDBRANCH   5  15
TORSDOF 5
ENDMDL
MODEL      136
REMARK  Name = ZINC000035609635
REMARK                            x       y       z     vdW  Elec       q    Type
REMARK                         _______ _______ _______ _____ _____    ______ ____
ROOT
ATOM      1  C   LIG    1        0.598  -0.531  -1.278  0.00  0.00    +0.500 C 
ATOM      2  N   LIG    1        1.893  -0.294  -1.567  0.00  0.00    -0.590 N 
ATOM      3  C   LIG    1        2.772   0.377  -0.597  0.00  0.00    +0.290 C 
ATOM      4  C   LIG    1        4.039  -0.467  -0.423  0.00  0.00    +0.180 C 
ATOM      5  N   LIG    1        4.641  -0.716  -1.740  0.00  0.00    -0.530 NA
ATOM      6  C   LIG    1        3.743  -1.500  -2.598  0.00  0.00    +0.170 C 
ATOM      7  C   LIG    1        2.466  -0.704  -2.858  0.00  0.00    +0.300 C 
ATOM      8  O   LIG    1       -0.088  -1.169  -2.048  0.00  0.00    -0.530 OA
ENDROOT
BRANCH   1  10
ATOM      9  C   LIG    1       -0.300   1.488  -0.153  0.00  0.00    +0.120 C 
ATOM     10  C   LIG    1        0.002  -0.004   0.002  0.00  0.00    +0.170 C 
BRANCH  10  11
ATOM     11  N   LIG    1       -1.242  -0.727   0.298  0.00  0.00    -0.620 N 
ATOM     12  H   LIG    1       -1.641  -0.374   1.155  0.00  0.00    +0.440 HD
ATOM     13  H   LIG    1       -1.043  -1.711   0.400  0.00  0.00    +0.440 HD
ATOM     14  H   LIG    1       -1.897  -0.593  -0.458  0.00  0.00    +0.440 HD
ENDBRANCH  10  11
ENDBRANCH   1  10
BRANCH   5  15
ATOM     15  C   LIG    1        5.948  -1.374  -1.605  0.00  0.00    +0.190 C 
BRANCH  15  16
ATOM     16  C   LIG    1        6.653  -1.391  -2.963  0.00  0.00    +0.180 C 
BRANCH  16  17
ATOM     17  O   LIG    1        6.944  -0.052  -3.365  0.00  0.00    -0.560 OA
ATOM     18  H   LIG    1        7.392   0.013  -4.220  0.00  0.00    +0.380 HD
ENDBRANCH  16  17
ENDBRANCH  15  16
ENDBRANCH   5  15
TORSDOF 5
ENDMDL
MODEL      137
REMARK  Name = ZINC000104251170
REMARK                            x       y       z     vdW  Elec       q    Type
REMARK                         _______ _______ _______ _____ _____    ______ ____
ROOT
ATOM      1  C   LIG    1       -1.421  -0.215   0.301  0.00  0.00    +0.180 C 
ATOM      2  C   LIG    1       -1.660  -1.691   0.632  0.00  0.00    +0.350 C 
ATOM      3  O   LIG    1       -1.334  -2.492  -0.505  0.00  0.00    -0.380 OA
ATOM      4  C   LIG    1       -2.123  -2.209  -1.663  0.00  0.00    +0.160 C 
ATOM      5  C   LIG    1       -1.902  -0.755  -2.087  0.00  0.00    +0.140 C 
ATOM      6  C   LIG    1       -2.263   0.171  -0.919  0.00  0.00    +0.220 C 
ENDROOT
BRANCH   1   8
ATOM      7  C   LIG    1        0.209   1.381  -0.442  0.00  0.00    +0.320 C 
ATOM      8  N   LIG    1        0.002  -0.004   0.002  0.00  0.00    -0.360 N 
ATOM      9  C   LIG    1        0.799  -0.255   1.210  0.00  0.00    +0.320 C 
ATOM     10  H   LIG    1        0.290  -0.638  -0.729  0.00  0.00    +0.430 HD
ENDBRANCH   1   8
BRANCH   5  11
ATOM     11  O   LIG    1       -0.531  -0.564  -2.442  0.00  0.00    -0.570 OA
ATOM     12  H   LIG    1       -0.233  -1.122  -3.173  0.00  0.00    +0.400 HD
ENDBRANCH   5  11
BRANCH   2  13
ATOM     13  O   LIG    1       -0.836  -2.071   1.736  0.00  0.00    -0.540 OA
ATOM     14  H   LIG    1       -0.935  -2.996   2.001  0.00  0.00    +0.410 HD
ENDBRANCH   2  13
BRANCH   6  15
ATOM     15  O   LIG    1       -1.992   1.526  -1.281  0.00  0.00    -0.540 OA
ATOM     16  H   LIG    1       -2.488   1.834  -2.052  0.00  0.00    +0.400 HD
ENDBRANCH   6  15
BRANCH   4  17
ATOM     17  C   LIG    1       -1.708  -3.142  -2.803  0.00  0.00    +0.210 C 
BRANCH  17  18
ATOM     18  O   LIG    1       -2.021  -4.491  -2.453  0.00  0.00    -0.560 OA
ATOM     19  H   LIG    1       -1.785  -5.138  -3.131  0.00  0.00    +0.400 HD
ENDBRANCH  17  18
ENDBRANCH   4  17
TORSDOF 6
ENDMDL
MODEL      138
REMARK  Name = ZINC000188221742
REMARK                            x       y       z     vdW  Elec       q    Type
REMARK                         _______ _______ _______ _____ _____    ______ ____
ROOT
ATOM      1  O   LIG    1        0.010   0.002   0.125  0.00  0.00    -0.510 OA
ATOM      2  C   LIG    1       -0.014   1.209   0.009  0.00  0.00    +0.520 C 
ATOM      3  N   LIG    1       -1.193   1.849  -0.120  0.00  0.00    -0.590 N 
ATOM      4  C   LIG    1       -2.473   1.129  -0.009  0.00  0.00    +0.310 C 
ATOM      5  C   LIG    1       -3.247   1.710   1.175  0.00  0.00    +0.280 C 
ATOM      6  N   LIG    1       -3.236   3.166   1.135  0.00  0.00    -0.720 N 
ATOM      7  H   LIG    1       -3.934   3.636   1.616  0.00  0.00    +0.410 HD
ATOM      8  C   LIG    1       -2.331   3.898   0.484  0.00  0.00    +0.510 C 
ATOM      9  O   LIG    1       -2.379   5.106   0.590  0.00  0.00    -0.530 OA
ATOM     10  C   LIG    1       -1.254   3.297  -0.370  0.00  0.00    +0.330 C 
ENDROOT
BRANCH   2  11
ATOM     11  C   LIG    1        1.273   1.992   0.002  0.00  0.00    +0.170 C 
ATOM     12  C   LIG    1        1.609   2.489   1.430  0.00  0.00    +0.110 C 
ATOM     13  C   LIG    1        3.148   2.671   1.344  0.00  0.00    +0.230 C 
ATOM     14  C   LIG    1        3.584   1.512   0.423  0.00  0.00    +0.290 C 
ATOM     15  F   LIG    1        3.469   3.908   0.774  0.00  0.00    -0.180 F 
ATOM     16  N   LIG    1        2.405   1.117  -0.372  0.00  0.00    -0.500 N 
ATOM     17  H   LIG    1        2.608   1.224  -1.355  0.00  0.00    +0.440 HD
ATOM     18  H   LIG    1        2.170   0.156  -0.176  0.00  0.00    +0.440 HD
ENDBRANCH   2  11
TORSDOF 1
ENDMDL
MODEL      139
REMARK  Name = ZINC000036162670
REMARK                            x       y       z     vdW  Elec       q    Type
REMARK                         _______ _______ _______ _____ _____    ______ ____
ROOT
ATOM      1  C   LIG    1       -1.412  -0.526   0.013  0.00  0.00    +0.510 C 
ATOM      2  N   LIG    1       -2.125  -0.563  -1.130  0.00  0.00    -0.600 N 
ATOM      3  C   LIG    1       -1.518  -0.100  -2.379  0.00  0.00    +0.330 C 
ATOM      4  C   LIG    1       -1.399  -1.274  -3.356  0.00  0.00    -0.340 C 
ATOM      5  S   LIG    1       -3.052  -1.968  -3.649  0.00  0.00    +2.420 S 
ATOM      6  C   LIG    1       -3.590  -2.341  -1.954  0.00  0.00    -0.330 C 
ATOM      7  O   LIG    1       -2.913  -3.188  -4.363  0.00  0.00    -0.920 OA
ATOM      8  O   LIG    1       -3.887  -0.946  -4.176  0.00  0.00    -0.920 OA
ATOM      9  C   LIG    1       -3.498  -1.071  -1.112  0.00  0.00    +0.350 C 
ATOM     10  O   LIG    1       -1.908  -0.912   1.050  0.00  0.00    -0.510 OA
ENDROOT
BRANCH   1  12
ATOM     11  C   LIG    1       -0.019   1.526   0.010  0.00  0.00    +0.120 C 
ATOM     12  C   LIG    1        0.002  -0.004   0.002  0.00  0.00    +0.170 C 
BRANCH  12  13
ATOM     13  N   LIG    1        0.713  -0.491   1.192  0.00  0.00    -0.620 N 
ATOM     14  H   LIG    1        0.726  -1.500   1.187  0.00  0.00    +0.440 HD
ATOM     15  H   LIG    1        0.240  -0.165   2.022  0.00  0.00    +0.440 HD
ATOM     16  H   LIG    1        1.659  -0.141   1.185  0.00  0.00    +0.450 HD
ENDBRANCH  12  13
ENDBRANCH   1  12
TORSDOF 2
ENDMDL
MODEL      140
REMARK  Name = ZINC000036162666
REMARK                            x       y       z     vdW  Elec       q    Type
REMARK                         _______ _______ _______ _____ _____    ______ ____
ROOT
ATOM      1  C   LIG    1        0.707  -0.490  -1.238  0.00  0.00    +0.510 C 
ATOM      2  N   LIG    1        0.053  -0.526  -2.415  0.00  0.00    -0.600 N 
ATOM      3  C   LIG    1       -1.342  -0.086  -2.483  0.00  0.00    +0.330 C 
ATOM      4  C   LIG    1       -1.444   1.154  -3.377  0.00  0.00    -0.340 C 
ATOM      5  S   LIG    1       -0.804   0.745  -5.028  0.00  0.00    +2.420 S 
ATOM      6  C   LIG    1        0.860   0.138  -4.628  0.00  0.00    -0.330 C 
ATOM      7  O   LIG    1       -0.684   1.946  -5.779  0.00  0.00    -0.920 OA
ATOM      8  O   LIG    1       -1.566  -0.332  -5.557  0.00  0.00    -0.920 OA
ATOM      9  C   LIG    1        0.744  -0.999  -3.616  0.00  0.00    +0.360 C 
ATOM     10  O   LIG    1        1.864  -0.849  -1.176  0.00  0.00    -0.510 OA
ENDROOT
BRANCH   1  12
ATOM     11  C   LIG    1       -0.019   1.526   0.010  0.00  0.00    +0.130 C 
ATOM     12  C   LIG    1        0.002  -0.004   0.002  0.00  0.00    +0.170 C 
BRANCH  12  13
ATOM     13  N   LIG    1        0.713  -0.491   1.192  0.00  0.00    -0.620 N 
ATOM     14  H   LIG    1        0.240  -0.165   2.022  0.00  0.00    +0.450 HD
ATOM     15  H   LIG    1        1.659  -0.141   1.185  0.00  0.00    +0.440 HD
ATOM     16  H   LIG    1        0.726  -1.500   1.187  0.00  0.00    +0.440 HD
ENDBRANCH  12  13
ENDBRANCH   1  12
TORSDOF 2
ENDMDL
MODEL      141
REMARK  Name = ZINC000253495432
REMARK                            x       y       z     vdW  Elec       q    Type
REMARK                         _______ _______ _______ _____ _____    ______ ____
ROOT
ATOM      1  N   LIG    1        1.403  -2.533  -0.165  0.00  0.00    -0.510 NA
ATOM      2  C   LIG    1        2.827  -2.205  -0.009  0.00  0.00    +0.210 C 
ATOM      3  C   LIG    1        3.566  -2.611  -1.288  0.00  0.00    +0.300 C 
ATOM      4  N   LIG    1        3.429  -4.058  -1.477  0.00  0.00    -0.510 N 
ATOM      5  C   LIG    1        2.015  -4.421  -1.651  0.00  0.00    +0.230 C 
ATOM      6  C   LIG    1        1.933  -5.965  -1.709  0.00  0.00    -0.290 C 
ATOM      7  S   LIG    1        1.711  -6.492   0.029  0.00  0.00    +2.400 S 
ATOM      8  C   LIG    1        1.634  -4.813   0.764  0.00  0.00    -0.350 C 
ATOM      9  O   LIG    1        2.887  -7.151   0.476  0.00  0.00    -0.910 OA
ATOM     10  O   LIG    1        0.447  -7.126   0.171  0.00  0.00    -0.890 OA
ATOM     11  H   LIG    1        3.797  -4.537  -0.669  0.00  0.00    +0.420 HD
ATOM     12  H   LIG    1        3.949  -4.338  -2.296  0.00  0.00    +0.440 HD
ATOM     13  C   LIG    1        1.196  -3.950  -0.442  0.00  0.00    +0.230 C 
ENDROOT
BRANCH   1  14
ATOM     14  C   LIG    1        0.633  -2.108   1.011  0.00  0.00    +0.220 C 
BRANCH  14  15
ATOM     15  C   LIG    1        0.673  -0.582   1.123  0.00  0.00    +0.180 C 
BRANCH  15  17
ATOM     16  C   LIG    1       -0.017   1.425   0.010  0.00  0.00    +0.210 C 
ATOM     17  O   LIG    1        0.002  -0.004   0.002  0.00  0.00    -0.380 OA
ENDBRANCH  15  17
ENDBRANCH  14  15
ENDBRANCH   1  14
TORSDOF 3
ENDMDL
MODEL      142
REMARK  Name = ZINC000021365283
REMARK                            x       y       z     vdW  Elec       q    Type
REMARK                         _______ _______ _______ _____ _____    ______ ____
ROOT
ATOM      1  C   LIG    1       -0.021   1.461   0.020  0.00  0.00    +0.360 C 
ATOM      2  N   LIG    1        0.001  -0.004   0.007  0.00  0.00    -0.550 N 
ATOM      3  C   LIG    1       -0.159  -0.664  -1.157  0.00  0.00    +0.540 A 
ATOM      4  C   LIG    1       -0.138  -2.067  -1.167  0.00  0.00    -0.110 A 
ATOM      5  C   LIG    1        0.046  -2.737   0.011  0.00  0.00    +0.430 A 
ATOM      6  N   LIG    1        0.204  -2.024   1.174  0.00  0.00    -0.540 N 
ATOM      7  C   LIG    1        0.402  -2.733   2.441  0.00  0.00    +0.340 C 
ATOM      8  O   LIG    1       -0.321  -0.046  -2.196  0.00  0.00    -0.500 OA
ATOM      9  C   LIG    1        0.186  -0.679   1.156  0.00  0.00    +0.700 A 
ATOM     10  O   LIG    1        0.328  -0.064   2.195  0.00  0.00    -0.520 OA
ENDROOT
BRANCH   5  11
ATOM     11  N   LIG    1        0.071  -4.108   0.030  0.00  0.00    -0.670 N 
ATOM     12  C   LIG    1       -1.172  -4.886   0.147  0.00  0.00    +0.320 C 
ATOM     13  C   LIG    1       -1.187  -5.946  -0.960  0.00  0.00    +0.270 C 
ATOM     14  N   LIG    1        0.040  -6.749  -0.883  0.00  0.00    -0.500 N 
ATOM     15  C   LIG    1        1.208  -5.905  -1.161  0.00  0.00    +0.270 C 
ATOM     16  H   LIG    1       -0.004  -7.493  -1.564  0.00  0.00    +0.440 HD
ATOM     17  H   LIG    1        0.125  -7.145   0.041  0.00  0.00    +0.430 HD
ATOM     18  C   LIG    1        1.342  -4.843  -0.071  0.00  0.00    +0.320 C 
ENDBRANCH   5  11
TORSDOF 1
ENDMDL
MODEL      143
REMARK  Name = ZINC000065454664
REMARK                            x       y       z     vdW  Elec       q    Type
REMARK                         _______ _______ _______ _____ _____    ______ ____
ROOT
ATOM      1  C   LIG    1        0.742  -2.118   1.045  0.00  0.00    +0.210 C 
ATOM      2  C   LIG    1       -0.698  -2.651   1.197  0.00  0.00    +0.090 C 
ATOM      3  C   LIG    1       -0.532  -3.825   2.197  0.00  0.00    +0.270 C 
ATOM      4  C   LIG    1        0.578  -3.285   3.133  0.00  0.00    +0.280 C 
ATOM      5  N   LIG    1        1.496  -2.539   2.240  0.00  0.00    -0.370 N 
ATOM      6  C   LIG    1        2.012  -1.355   2.939  0.00  0.00    +0.330 C 
ATOM      7  H   LIG    1        2.264  -3.135   1.968  0.00  0.00    +0.440 HD
ENDROOT
BRANCH   3   8
ATOM      8  N   LIG    1       -1.773  -4.064   2.938  0.00  0.00    -0.730 N 
ATOM      9  H   LIG    1       -1.912  -3.642   3.800  0.00  0.00    +0.410 HD
ATOM     10  C   LIG    1       -2.723  -4.868   2.420  0.00  0.00    +0.520 C 
ATOM     11  O   LIG    1       -2.549  -5.395   1.342  0.00  0.00    -0.500 OA
BRANCH  10  12
ATOM     12  C   LIG    1       -4.000  -5.113   3.182  0.00  0.00    +0.230 C 
BRANCH  12  13
ATOM     13  O   LIG    1       -4.840  -5.993   2.432  0.00  0.00    -0.550 OA
ATOM     14  H   LIG    1       -5.682  -6.195   2.863  0.00  0.00    +0.400 HD
ENDBRANCH  12  13
ENDBRANCH  10  12
ENDBRANCH   3   8
BRANCH   1  15
ATOM     15  C   LIG    1        0.725  -0.613   0.954  0.00  0.00    +0.450 C 
ATOM     16  O   LIG    1        0.305   0.043   1.878  0.00  0.00    -0.470 OA
BRANCH  15  18
ATOM     17  C   LIG    1        1.129   1.449  -0.170  0.00  0.00    +0.310 C 
ATOM     18  O   LIG    1        1.176  -0.003  -0.153  0.00  0.00    -0.340 OA
ENDBRANCH  15  18
ENDBRANCH   1  15
TORSDOF 5
ENDMDL
MODEL      144
REMARK  Name = ZINC000036286464
REMARK                            x       y       z     vdW  Elec       q    Type
REMARK                         _______ _______ _______ _____ _____    ______ ____
ROOT
ATOM      1  S   LIG    1       -2.770  -0.105   0.015  0.00  0.00    +2.740 S 
ATOM      2  O   LIG    1       -2.675   1.310   0.107  0.00  0.00    -0.930 OA
ATOM      3  O   LIG    1       -3.484  -0.899   0.954  0.00  0.00    -0.930 OA
ENDROOT
BRANCH   1   6
ATOM      4  C   LIG    1       -0.018   1.503   0.010  0.00  0.00    +0.190 C 
ATOM      5  C   LIG    1        0.002  -0.004   0.002  0.00  0.00    +0.290 A 
ATOM      6  C   LIG    1       -1.117  -0.715   0.004  0.00  0.00    -0.840 A 
ATOM      7  S   LIG    1       -0.596  -2.409  -0.009  0.00  0.00    +0.090 S 
ATOM      8  C   LIG    1        1.087  -2.043  -0.015  0.00  0.00    +0.480 A 
ATOM      9  O   LIG    1        2.011  -2.837  -0.025  0.00  0.00    -0.440 OA
ATOM     10  N   LIG    1        1.172  -0.703  -0.013  0.00  0.00    -0.640 N 
ATOM     11  H   LIG    1        2.030  -0.252  -0.017  0.00  0.00    +0.430 HD
ENDBRANCH   1   6
BRANCH   1  12
ATOM     12  N   LIG    1       -3.425  -0.435  -1.470  0.00  0.00    -1.110 NA
ATOM     13  H   LIG    1       -3.675   0.291  -2.061  0.00  0.00    +0.430 HD
BRANCH  12  14
ATOM     14  C   LIG    1       -3.625  -1.825  -1.889  0.00  0.00    +0.280 C 
BRANCH  14  15
ATOM     15  C   LIG    1       -4.562  -1.862  -3.098  0.00  0.00    +0.280 C 
BRANCH  15  16
ATOM     16  N   LIG    1       -4.763  -3.255  -3.519  0.00  0.00    -0.640 N 
ATOM     17  H   LIG    1       -5.171  -3.780  -2.760  0.00  0.00    +0.440 HD
ATOM     18  H   LIG    1       -3.875  -3.662  -3.770  0.00  0.00    +0.440 HD
ATOM     19  H   LIG    1       -5.382  -3.279  -4.316  0.00  0.00    +0.450 HD
ENDBRANCH  15  16
ENDBRANCH  14  15
ENDBRANCH  12  14
ENDBRANCH   1  12
TORSDOF 5
ENDMDL
MODEL      145
REMARK  Name = ZINC000001882405
REMARK                            x       y       z     vdW  Elec       q    Type
REMARK                         _______ _______ _______ _____ _____    ______ ____
ROOT
ATOM      1  C   LIG    1       -1.184  -0.710   0.009  0.00  0.00    +0.690 A 
ATOM      2  N   LIG    1       -2.344  -0.061   0.019  0.00  0.00    -0.600 NA
ATOM      3  C   LIG    1       -3.486  -0.742   0.026  0.00  0.00    +0.670 A 
ATOM      4  N   LIG    1       -3.468  -2.071   0.024  0.00  0.00    -0.600 NA
ATOM      5  C   LIG    1       -2.308  -2.720   0.015  0.00  0.00    +0.690 A 
ATOM      6  N   LIG    1       -1.166  -2.039   0.002  0.00  0.00    -0.640 N 
ATOM      7  H   LIG    1       -0.319  -2.513  -0.004  0.00  0.00    +0.440 HD
ENDROOT
BRANCH   3   8
ATOM      8  N   LIG    1       -4.690  -0.068   0.035  0.00  0.00    -0.530 N 
ATOM      9  C   LIG    1       -4.736   1.403   0.031  0.00  0.00    +0.290 C 
ATOM     10  C   LIG    1       -5.685   1.854  -1.085  0.00  0.00    +0.230 C 
ATOM     11  O   LIG    1       -6.937   1.181  -0.938  0.00  0.00    -0.370 OA
ATOM     12  C   LIG    1       -6.856  -0.240  -1.068  0.00  0.00    +0.230 C 
ATOM     13  C   LIG    1       -5.967  -0.799   0.043  0.00  0.00    +0.290 C 
ENDBRANCH   3   8
BRANCH   1  14
ATOM     14  N   LIG    1        0.002  -0.004   0.002  0.00  0.00    -0.500 N 
ATOM     15  H   LIG    1        0.849  -0.478  -0.009  0.00  0.00    +0.430 HD
BRANCH  14  16
ATOM     16  N   LIG    1       -0.016   1.362   0.009  0.00  0.00    -0.580 NA
ATOM     17  H   LIG    1       -0.555   1.720  -0.765  0.00  0.00    +0.370 HD
ATOM     18  H   LIG    1        0.920   1.736   0.003  0.00  0.00    +0.380 HD
ENDBRANCH  14  16
ENDBRANCH   1  14
BRANCH   5  19
ATOM     19  N   LIG    1       -2.289  -4.100   0.012  0.00  0.00    -0.500 N 
ATOM     20  H   LIG    1       -1.442  -4.573   0.006  0.00  0.00    +0.430 HD
BRANCH  19  21
ATOM     21  N   LIG    1       -3.462  -4.799   0.019  0.00  0.00    -0.580 NA
ATOM     22  H   LIG    1       -3.291  -5.793   0.017  0.00  0.00    +0.380 HD
ATOM     23  H   LIG    1       -4.048  -4.531  -0.758  0.00  0.00    +0.370 HD
ENDBRANCH  19  21
ENDBRANCH   5  19
TORSDOF 5
ENDMDL
MODEL      146
REMARK  Name = ZINC000004218576
REMARK                            x       y       z     vdW  Elec       q    Type
REMARK                         _______ _______ _______ _____ _____    ______ ____
ROOT
ATOM      1  C   LIG    1       -0.033   1.431   0.406  0.00  0.00    +0.340 C 
ATOM      2  N   LIG    1       -0.005  -0.019   0.194  0.00  0.00    -0.560 N 
ATOM      3  C   LIG    1       -1.157  -0.718   0.215  0.00  0.00    +0.560 A 
ATOM      4  C   LIG    1       -1.128  -2.110   0.011  0.00  0.00    -0.140 A 
ATOM      5  C   LIG    1        0.076  -2.724  -0.205  0.00  0.00    +0.480 A 
ATOM      6  N   LIG    1        1.226  -1.968  -0.217  0.00  0.00    -0.540 N 
ATOM      7  C   LIG    1        2.520  -2.615  -0.447  0.00  0.00    +0.360 C 
ATOM      8  O   LIG    1       -2.218  -0.149   0.408  0.00  0.00    -0.530 OA
ATOM      9  C   LIG    1        1.169  -0.638  -0.024  0.00  0.00    +0.700 A 
ATOM     10  O   LIG    1        2.195   0.014  -0.038  0.00  0.00    -0.520 OA
ENDROOT
BRANCH   4  11
ATOM     11  N   LIG    1       -2.325  -2.862   0.028  0.00  0.00    -0.630 N 
ATOM     12  C   LIG    1       -2.563  -3.881   1.062  0.00  0.00    +0.300 C 
ATOM     13  C   LIG    1       -3.943  -3.633   1.679  0.00  0.00    +0.250 C 
ATOM     14  N   LIG    1       -4.955  -3.601   0.616  0.00  0.00    -0.500 N 
ATOM     15  C   LIG    1       -4.710  -2.459  -0.274  0.00  0.00    +0.260 C 
ATOM     16  H   LIG    1       -5.872  -3.512   1.028  0.00  0.00    +0.430 HD
ATOM     17  H   LIG    1       -4.910  -4.457   0.083  0.00  0.00    +0.420 HD
ATOM     18  C   LIG    1       -3.370  -2.645  -0.985  0.00  0.00    +0.310 C 
ENDBRANCH   4  11
BRANCH   5  19
ATOM     19  N   LIG    1        0.136  -4.083  -0.408  0.00  0.00    -0.830 N 
ATOM     20  H   LIG    1        0.996  -4.527  -0.474  0.00  0.00    +0.410 HD
ATOM     21  H   LIG    1       -0.683  -4.599  -0.486  0.00  0.00    +0.420 HD
ENDBRANCH   5  19
TORSDOF 2
ENDMDL
MODEL      147
REMARK  Name = ZINC000089938934
REMARK                            x       y       z     vdW  Elec       q    Type
REMARK                         _______ _______ _______ _____ _____    ______ ____
ROOT
ATOM      1  C   LIG    1        0.087   0.009   2.423  0.00  0.00    +0.240 C 
ENDROOT
BRANCH   1  10
ATOM      2  C   LIG    1        0.412   1.685   0.139  0.00  0.00    +0.080 C 
ATOM      3  C   LIG    1        0.168   0.180   0.008  0.00  0.00    +0.130 C 
ATOM      4  C   LIG    1        0.874  -0.345  -1.244  0.00  0.00    +0.280 C 
ATOM      5  N   LIG    1        0.657  -1.793  -1.359  0.00  0.00    -0.390 N 
ATOM      6  C   LIG    1        1.217  -2.468  -0.180  0.00  0.00    +0.280 C 
ATOM      7  C   LIG    1        0.514  -1.961   1.081  0.00  0.00    +0.210 C 
ATOM      8  C   LIG    1       -0.784  -2.067  -1.440  0.00  0.00    +0.320 C 
ATOM      9  H   LIG    1        1.112  -2.136  -2.191  0.00  0.00    +0.430 HD
ATOM     10  N   LIG    1        0.701  -0.508   1.192  0.00  0.00    -0.520 NA
ENDBRANCH   1  10
BRANCH   1  11
ATOM     11  C   LIG    1        0.824  -0.536   3.619  0.00  0.00    +0.520 C 
ATOM     12  N   LIG    1        0.365  -0.291   4.862  0.00  0.00    -0.690 N 
ATOM     13  H   LIG    1       -0.440   0.235   4.987  0.00  0.00    +0.410 HD
ATOM     14  C   LIG    1        1.024  -0.779   5.932  0.00  0.00    +0.700 C 
ATOM     15  O   LIG    1        2.032  -1.439   5.776  0.00  0.00    -0.530 OA
ATOM     16  N   LIG    1        0.564  -0.534   7.175  0.00  0.00    -0.850 N 
ATOM     17  H   LIG    1        1.039  -0.885   7.945  0.00  0.00    +0.430 HD
ATOM     18  H   LIG    1       -0.240  -0.008   7.300  0.00  0.00    +0.400 HD
ATOM     19  O   LIG    1        1.830  -1.194   3.463  0.00  0.00    -0.450 OA
ENDBRANCH   1  11
TORSDOF 2
ENDMDL
MODEL      148
REMARK  Name = ZINC000004694355
REMARK                            x       y       z     vdW  Elec       q    Type
REMARK                         _______ _______ _______ _____ _____    ______ ____
ROOT
ATOM      1  C   LIG    1       -2.472  -4.341  -1.134  0.00  0.00    +0.510 C 
ATOM      2  N   LIG    1       -2.751  -5.658  -1.069  0.00  0.00    -0.710 N 
ATOM      3  H   LIG    1       -2.032  -6.302  -0.971  0.00  0.00    +0.420 HD
ATOM      4  O   LIG    1       -3.371  -3.536  -1.256  0.00  0.00    -0.510 OA
ENDROOT
BRANCH   1   7
ATOM      5  N   LIG    1       -0.776  -2.556  -1.119  0.00  0.00    -0.690 N 
ATOM      6  H   LIG    1       -1.495  -1.912  -1.217  0.00  0.00    +0.420 HD
ATOM      7  C   LIG    1       -1.055  -3.873  -1.054  0.00  0.00    +0.510 C 
ATOM      8  O   LIG    1       -0.156  -4.678  -0.932  0.00  0.00    -0.520 OA
BRANCH   5   9
ATOM      9  C   LIG    1        0.613  -2.097  -1.041  0.00  0.00    +0.300 C 
BRANCH   9  10
ATOM     10  C   LIG    1        0.652  -0.570  -1.138  0.00  0.00    +0.180 C 
BRANCH  10  12
ATOM     11  C   LIG    1       -0.017   1.425   0.010  0.00  0.00    +0.210 C 
ATOM     12  O   LIG    1        0.002  -0.004   0.002  0.00  0.00    -0.390 OA
ENDBRANCH  10  12
ENDBRANCH   9  10
ENDBRANCH   5   9
ENDBRANCH   1   7
BRANCH   2  13
ATOM     13  C   LIG    1       -4.140  -6.117  -1.147  0.00  0.00    +0.280 C 
BRANCH  13  14
ATOM     14  C   LIG    1       -4.179  -7.644  -1.050  0.00  0.00    +0.030 C 
BRANCH  14  15
ATOM     15  C   LIG    1       -5.629  -8.123  -1.131  0.00  0.00    +0.270 C 
BRANCH  15  16
ATOM     16  N   LIG    1       -5.666  -9.589  -1.038  0.00  0.00    -0.390 N 
ATOM     17  C   LIG    1       -7.045 -10.057  -1.236  0.00  0.00    +0.320 C 
ATOM     18  C   LIG    1       -5.192 -10.008   0.287  0.00  0.00    +0.320 C 
ATOM     19  H   LIG    1       -5.071  -9.986  -1.750  0.00  0.00    +0.430 HD
ENDBRANCH  15  16
ENDBRANCH  14  15
ENDBRANCH  13  14
ENDBRANCH   2  13
TORSDOF 8
ENDMDL
MODEL      149
REMARK  Name = ZINC000004705213
REMARK                            x       y       z     vdW  Elec       q    Type
REMARK                         _______ _______ _______ _____ _____    ______ ____
ROOT
ATOM      1  C   LIG    1       -2.472  -4.341  -1.134  0.00  0.00    +0.520 C 
ATOM      2  N   LIG    1       -2.751  -5.658  -1.069  0.00  0.00    -0.710 N 
ATOM      3  H   LIG    1       -2.032  -6.302  -0.971  0.00  0.00    +0.420 HD
ATOM      4  O   LIG    1       -3.371  -3.536  -1.256  0.00  0.00    -0.500 OA
ENDROOT
BRANCH   1   7
ATOM      5  N   LIG    1       -0.776  -2.556  -1.119  0.00  0.00    -0.690 N 
ATOM      6  H   LIG    1       -1.495  -1.912  -1.217  0.00  0.00    +0.420 HD
ATOM      7  C   LIG    1       -1.055  -3.873  -1.054  0.00  0.00    +0.510 C 
ATOM      8  O   LIG    1       -0.156  -4.678  -0.932  0.00  0.00    -0.520 OA
BRANCH   5   9
ATOM      9  C   LIG    1        0.613  -2.097  -1.041  0.00  0.00    +0.300 C 
BRANCH   9  10
ATOM     10  C   LIG    1        0.652  -0.570  -1.138  0.00  0.00    +0.180 C 
BRANCH  10  12
ATOM     11  C   LIG    1       -0.017   1.425   0.010  0.00  0.00    +0.210 C 
ATOM     12  O   LIG    1        0.002  -0.004   0.002  0.00  0.00    -0.390 OA
ENDBRANCH  10  12
ENDBRANCH   9  10
ENDBRANCH   5   9
ENDBRANCH   1   7
BRANCH   2  13
ATOM     13  C   LIG    1       -4.140  -6.117  -1.147  0.00  0.00    +0.290 C 
BRANCH  13  14
ATOM     14  C   LIG    1       -4.179  -7.644  -1.050  0.00  0.00    +0.260 C 
BRANCH  14  15
ATOM     15  N   LIG    1       -5.571  -8.104  -1.128  0.00  0.00    -0.380 N 
ATOM     16  C   LIG    1       -5.620  -9.557  -0.916  0.00  0.00    +0.330 C 
ATOM     17  C   LIG    1       -6.119  -7.785  -2.453  0.00  0.00    +0.330 C 
ATOM     18  H   LIG    1       -6.119  -7.642  -0.418  0.00  0.00    +0.430 HD
ENDBRANCH  14  15
ENDBRANCH  13  14
ENDBRANCH   2  13
TORSDOF 7
ENDMDL
MODEL      150
REMARK  Name = ZINC000126769798
REMARK                            x       y       z     vdW  Elec       q    Type
REMARK                         _______ _______ _______ _____ _____    ______ ____
ROOT
ATOM      1  N   LIG    1        1.398  -2.528   2.296  0.00  0.00    -0.690 N 
ATOM      2  H   LIG    1        1.747  -1.858   2.905  0.00  0.00    +0.420 HD
ATOM      3  C   LIG    1        1.576  -3.837   2.560  0.00  0.00    +0.520 C 
ATOM      4  O   LIG    1        1.141  -4.674   1.798  0.00  0.00    -0.520 OA
ENDROOT
BRANCH   3   5
ATOM      5  C   LIG    1        2.316  -4.261   3.803  0.00  0.00    +0.190 C 
ATOM      6  C   LIG    1        1.586  -3.726   5.039  0.00  0.00    +0.150 C 
ATOM      7  S   LIG    1        2.546  -4.179   6.516  0.00  0.00    -0.160 S 
ATOM      8  C   LIG    1        2.804  -5.962   6.261  0.00  0.00    +0.140 C 
ATOM      9  C   LIG    1        3.358  -6.174   4.848  0.00  0.00    +0.300 C 
ATOM     10  N   LIG    1        2.378  -5.723   3.857  0.00  0.00    -0.500 N 
ATOM     11  H   LIG    1        2.640  -6.075   2.948  0.00  0.00    +0.450 HD
ATOM     12  H   LIG    1        1.469  -6.086   4.102  0.00  0.00    +0.430 HD
ENDBRANCH   3   5
BRANCH   1  13
ATOM     13  C   LIG    1        0.679  -2.115   1.088  0.00  0.00    +0.380 C 
BRANCH  13  14
ATOM     14  C   LIG    1        0.618  -0.611   1.029  0.00  0.00    +0.460 C 
ATOM     15  O   LIG    1        1.124   0.049   1.905  0.00  0.00    -0.500 OA
BRANCH  14  17
ATOM     16  C   LIG    1       -0.018   1.448   0.010  0.00  0.00    +0.290 C 
ATOM     17  O   LIG    1        0.002  -0.004   0.002  0.00  0.00    -0.350 OA
ENDBRANCH  14  17
ENDBRANCH  13  14
ENDBRANCH   1  13
TORSDOF 4
ENDMDL
MODEL      151
REMARK  Name = ZINC000019702179
REMARK                            x       y       z     vdW  Elec       q    Type
REMARK                         _______ _______ _______ _____ _____    ______ ____
ROOT
ATOM      1  C   LIG    1       -2.484  -4.345  -1.134  0.00  0.00    +0.240 C 
ENDROOT
BRANCH   1   2
ATOM      2  N   LIG    1       -2.513  -5.814  -1.162  0.00  0.00    -0.520 NA
ATOM      3  C   LIG    1       -3.868  -6.308  -1.446  0.00  0.00    +0.210 C 
ATOM      4  C   LIG    1       -3.844  -7.836  -1.526  0.00  0.00    +0.280 C 
ATOM      5  N   LIG    1       -3.361  -8.385  -0.251  0.00  0.00    -0.510 N 
ATOM      6  C   LIG    1       -1.998  -7.902   0.007  0.00  0.00    +0.280 C 
ATOM      7  H   LIG    1       -3.357  -9.393  -0.299  0.00  0.00    +0.430 HD
ATOM      8  H   LIG    1       -3.971  -8.087   0.495  0.00  0.00    +0.430 HD
ATOM      9  C   LIG    1       -2.007  -6.374   0.099  0.00  0.00    +0.210 C 
ENDBRANCH   1   2
BRANCH   1  12
ATOM     10  N   LIG    1       -0.782  -2.562  -0.931  0.00  0.00    -0.720 N 
ATOM     11  H   LIG    1       -1.507  -1.923  -0.848  0.00  0.00    +0.410 HD
ATOM     12  C   LIG    1       -1.054  -3.872  -1.088  0.00  0.00    +0.510 C 
ATOM     13  O   LIG    1       -0.147  -4.671  -1.192  0.00  0.00    -0.530 OA
BRANCH  10  14
ATOM     14  C   LIG    1        0.608  -2.102  -0.886  0.00  0.00    +0.290 C 
BRANCH  14  15
ATOM     15  C   LIG    1        0.637  -0.583  -0.702  0.00  0.00    +0.170 C 
BRANCH  15  17
ATOM     16  C   LIG    1        0.067   1.155   0.847  0.00  0.00    +0.210 C 
ATOM     17  O   LIG    1        0.087  -0.247   0.573  0.00  0.00    -0.390 OA
ENDBRANCH  15  17
ENDBRANCH  14  15
ENDBRANCH  10  14
ENDBRANCH   1  12
TORSDOF 5
ENDMDL
MODEL      152
REMARK  Name = ZINC000071746498
REMARK                            x       y       z     vdW  Elec       q    Type
REMARK                         _______ _______ _______ _____ _____    ______ ____
ROOT
ATOM      1  C   LIG    1        0.733  -1.998   1.184  0.00  0.00    +0.500 C 
ATOM      2  N   LIG    1        1.335  -2.669   2.185  0.00  0.00    -0.600 N 
ATOM      3  C   LIG    1        1.977  -1.960   3.305  0.00  0.00    +0.290 C 
ATOM      4  C   LIG    1        1.263  -2.362   4.597  0.00  0.00    +0.270 C 
ATOM      5  N   LIG    1        1.082  -3.806   4.660  0.00  0.00    -0.720 N 
ATOM      6  H   LIG    1        0.949  -4.206   5.533  0.00  0.00    +0.410 HD
ATOM      7  C   LIG    1        1.088  -4.617   3.601  0.00  0.00    +0.520 C 
ATOM      8  O   LIG    1        0.848  -5.793   3.771  0.00  0.00    -0.520 OA
ATOM      9  C   LIG    1        1.373  -4.139   2.207  0.00  0.00    +0.300 C 
ATOM     10  O   LIG    1        0.207  -2.606   0.276  0.00  0.00    -0.480 OA
ENDROOT
BRANCH   1  11
ATOM     11  C   LIG    1        0.713  -0.491   1.192  0.00  0.00    +0.290 C 
BRANCH  11  13
ATOM     12  C   LIG    1       -0.018   1.465   0.010  0.00  0.00    +0.340 C 
ATOM     13  N   LIG    1        0.002  -0.004   0.002  0.00  0.00    -0.500 N 
ATOM     14  H   LIG    1        0.474  -0.330  -0.828  0.00  0.00    +0.440 HD
ATOM     15  H   LIG    1       -0.945  -0.353   0.009  0.00  0.00    +0.440 HD
ENDBRANCH  11  13
ENDBRANCH   1  11
BRANCH   9  16
ATOM     16  C   LIG    1        2.762  -4.614   1.776  0.00  0.00    +0.130 C 
BRANCH  16  17
ATOM     17  C   LIG    1        2.997  -4.239   0.336  0.00  0.00    +0.460 C 
ATOM     18  O   LIG    1        2.141  -3.652  -0.283  0.00  0.00    -0.490 OA
BRANCH  17  19
ATOM     19  O   LIG    1        4.156  -4.558  -0.260  0.00  0.00    -0.350 OA
ATOM     20  C   LIG    1        4.313  -4.166  -1.649  0.00  0.00    +0.280 C 
ENDBRANCH  17  19
ENDBRANCH  16  17
ENDBRANCH   9  16
TORSDOF 5
ENDMDL
MODEL      153
REMARK  Name = ZINC000071746499
REMARK                            x       y       z     vdW  Elec       q    Type
REMARK                         _______ _______ _______ _____ _____    ______ ____
ROOT
ATOM      1  C   LIG    1        0.798  -2.023   1.071  0.00  0.00    +0.520 C 
ATOM      2  N   LIG    1        1.374  -2.663   2.108  0.00  0.00    -0.580 N 
ATOM      3  C   LIG    1        2.116  -1.926   3.146  0.00  0.00    +0.290 C 
ATOM      4  C   LIG    1        1.415  -2.155   4.487  0.00  0.00    +0.280 C 
ATOM      5  N   LIG    1        1.110  -3.567   4.676  0.00  0.00    -0.710 N 
ATOM      6  H   LIG    1        0.973  -3.881   5.583  0.00  0.00    +0.410 HD
ATOM      7  C   LIG    1        1.007  -4.458   3.689  0.00  0.00    +0.520 C 
ATOM      8  O   LIG    1        0.670  -5.590   3.965  0.00  0.00    -0.530 OA
ATOM      9  C   LIG    1        1.283  -4.123   2.253  0.00  0.00    +0.290 C 
ATOM     10  O   LIG    1        0.278  -2.660   0.179  0.00  0.00    -0.530 OA
ENDROOT
BRANCH   1  11
ATOM     11  C   LIG    1        0.801  -0.517   1.019  0.00  0.00    +0.290 C 
BRANCH  11  13
ATOM     12  C   LIG    1        0.119   1.400  -0.252  0.00  0.00    +0.340 C 
ATOM     13  N   LIG    1        0.117  -0.068  -0.201  0.00  0.00    -0.500 N 
ATOM     14  H   LIG    1        0.597  -0.433  -1.010  0.00  0.00    +0.440 HD
ATOM     15  H   LIG    1       -0.835  -0.403  -0.196  0.00  0.00    +0.440 HD
ENDBRANCH  11  13
ENDBRANCH   1  11
BRANCH   9  16
ATOM     16  C   LIG    1        0.153  -4.663   1.374  0.00  0.00    +0.160 C 
BRANCH  16  17
ATOM     17  C   LIG    1       -1.143  -3.993   1.755  0.00  0.00    +0.480 C 
ATOM     18  O   LIG    1       -1.147  -3.114   2.584  0.00  0.00    -0.530 OA
BRANCH  17  19
ATOM     19  O   LIG    1       -2.291  -4.373   1.173  0.00  0.00    -0.350 OA
ATOM     20  C   LIG    1       -3.500  -3.684   1.588  0.00  0.00    +0.280 C 
ENDBRANCH  17  19
ENDBRANCH  16  17
ENDBRANCH   9  16
TORSDOF 5
ENDMDL
MODEL      154
REMARK  Name = ZINC000035609633
REMARK                            x       y       z     vdW  Elec       q    Type
REMARK                         _______ _______ _______ _____ _____    ______ ____
ROOT
ATOM      1  C   LIG    1        0.733  -1.998   1.184  0.00  0.00    +0.261 C 
ATOM      2  N   LIG    1        1.335  -2.669   2.185  0.00  0.00    -0.295 N 
ATOM      3  C   LIG    1        1.973  -1.950   3.299  0.00  0.00    +0.123 C 
ATOM      4  C   LIG    1        1.446  -2.529   4.617  0.00  0.00    +0.103 C 
ATOM      5  N   LIG    1        1.643  -3.984   4.623  0.00  0.00    -0.297 NA
ATOM      6  C   LIG    1        0.869  -4.631   3.555  0.00  0.00    +0.103 C 
ATOM      7  C   LIG    1        1.367  -4.139   2.197  0.00  0.00    +0.123 C 
ATOM      8  O   LIG    1        0.207  -2.606   0.276  0.00  0.00    -0.270 OA
ENDROOT
BRANCH   1   9
ATOM      9  C   LIG    1        0.713  -0.491   1.192  0.00  0.00    +0.227 C 
BRANCH   9  11
ATOM     10  C   LIG    1       -0.018   1.465   0.010  0.00  0.00    +0.189 C 
ATOM     11  N   LIG    1        0.002  -0.004   0.002  0.00  0.00    +0.231 N 
ATOM     12  H   LIG    1        0.474  -0.330  -0.828  0.00  0.00    +0.202 HD
ATOM     13  H   LIG    1       -0.945  -0.353   0.009  0.00  0.00    +0.202 HD
ENDBRANCH   9  11
ENDBRANCH   1   9
BRANCH   5  14
ATOM     14  C   LIG    1        1.310  -4.555   5.934  0.00  0.00    +0.112 C 
BRANCH  14  15
ATOM     15  C   LIG    1        1.759  -6.017   5.983  0.00  0.00    +0.171 C 
BRANCH  15  16
ATOM     16  O   LIG    1        3.183  -6.081   5.894  0.00  0.00    -0.394 OA
ATOM     17  H   LIG    1        3.539  -6.980   5.919  0.00  0.00    +0.209 HD
ENDBRANCH  15  16
ENDBRANCH  14  15
ENDBRANCH   5  14
TORSDOF 5
ENDMDL
MODEL      155
REMARK  Name = ZINC000000094845
REMARK                            x       y       z     vdW  Elec       q    Type
REMARK                         _______ _______ _______ _____ _____    ______ ____
ROOT
ATOM      1  C   LIG    1       -0.018   1.461   0.010  0.00  0.00    +0.360 C 
ATOM      2  N   LIG    1        0.002  -0.004   0.002  0.00  0.00    -0.510 N 
ATOM      3  C   LIG    1       -1.189  -0.712   0.004  0.00  0.00    +0.340 A 
ATOM      4  C   LIG    1       -1.144  -2.100  -0.004  0.00  0.00    -0.170 A 
ATOM      5  N   LIG    1       -2.456  -2.530   0.000  0.00  0.00    -0.430 N 
ATOM      6  C   LIG    1       -3.231  -1.427   0.010  0.00  0.00    +0.530 A 
ATOM      7  C   LIG    1        0.111  -2.748  -0.013  0.00  0.00    +0.600 A 
ATOM      8  N   LIG    1        1.236  -2.003  -0.015  0.00  0.00    -0.650 N 
ATOM      9  H   LIG    1        2.100  -2.444  -0.021  0.00  0.00    +0.450 HD
ATOM     10  O   LIG    1        0.176  -3.964  -0.021  0.00  0.00    -0.530 OA
ATOM     11  N   LIG    1       -2.477  -0.358   0.012  0.00  0.00    -0.480 NA
ATOM     12  C   LIG    1        1.178  -0.660  -0.013  0.00  0.00    +0.710 A 
ATOM     13  O   LIG    1        2.213  -0.022  -0.014  0.00  0.00    -0.510 OA
ENDROOT
BRANCH   5  14
ATOM     14  C   LIG    1       -2.918  -3.920  -0.005  0.00  0.00    +0.340 C 
BRANCH  14  15
ATOM     15  C   LIG    1       -2.953  -4.450   1.430  0.00  0.00    +0.250 C 
BRANCH  15  16
ATOM     16  N   LIG    1       -3.416  -5.845   1.425  0.00  0.00    -0.380 N 
ATOM     17  C   LIG    1       -4.808  -5.896   0.958  0.00  0.00    +0.320 C 
ATOM     18  C   LIG    1       -3.336  -6.392   2.786  0.00  0.00    +0.330 C 
ATOM     19  H   LIG    1       -2.834  -6.391   0.809  0.00  0.00    +0.430 HD
ENDBRANCH  15  16
ENDBRANCH  14  15
ENDBRANCH   5  14
TORSDOF 3
ENDMDL
MODEL      156
REMARK  Name = ZINC000092510173
REMARK                            x       y       z     vdW  Elec       q    Type
REMARK                         _______ _______ _______ _____ _____    ______ ____
ROOT
ATOM      1  C   LIG    1        0.447  -4.516   2.376  0.00  0.00    +0.510 C 
ATOM      2  N   LIG    1        0.609  -5.823   2.664  0.00  0.00    -0.590 N 
ATOM      3  C   LIG    1        0.165  -6.874   1.733  0.00  0.00    +0.290 C 
ATOM      4  C   LIG    1        1.391  -7.683   1.306  0.00  0.00    +0.260 C 
ATOM      5  N   LIG    1        2.206  -8.034   2.461  0.00  0.00    -0.720 N 
ATOM      6  H   LIG    1        2.805  -8.792   2.376  0.00  0.00    +0.410 HD
ATOM      7  C   LIG    1        2.186  -7.386   3.627  0.00  0.00    +0.520 C 
ATOM      8  O   LIG    1        2.969  -7.723   4.489  0.00  0.00    -0.520 OA
ATOM      9  C   LIG    1        1.242  -6.257   3.918  0.00  0.00    +0.160 C 
ATOM     10  C   LIG    1        0.159  -6.731   4.889  0.00  0.00    +0.090 C 
ATOM     11  C   LIG    1        2.014  -5.091   4.538  0.00  0.00    +0.100 C 
ATOM     12  O   LIG    1        0.734  -3.673   3.199  0.00  0.00    -0.510 OA
ENDROOT
BRANCH   1  13
ATOM     13  C   LIG    1       -0.092  -4.102   1.031  0.00  0.00    +0.290 C 
BRANCH  13  14
ATOM     14  N   LIG    1       -0.174  -2.637   0.966  0.00  0.00    -0.500 N 
ATOM     15  H   LIG    1       -0.789  -2.302   1.692  0.00  0.00    +0.430 HD
ATOM     16  H   LIG    1        0.746  -2.243   1.095  0.00  0.00    +0.440 HD
BRANCH  14  17
ATOM     17  C   LIG    1       -0.699  -2.234  -0.346  0.00  0.00    +0.290 C 
BRANCH  17  18
ATOM     18  C   LIG    1       -0.784  -0.708  -0.414  0.00  0.00    +0.210 C 
BRANCH  18  20
ATOM     19  C   LIG    1        0.565   1.274  -0.403  0.00  0.00    +0.240 C 
ATOM     20  O   LIG    1        0.531  -0.154  -0.347  0.00  0.00    -0.400 OA
ENDBRANCH  18  20
ENDBRANCH  17  18
ENDBRANCH  14  17
ENDBRANCH  13  14
ENDBRANCH   1  13
TORSDOF 5
ENDMDL
MODEL      157
REMARK  Name = ZINC000019423978
REMARK                            x       y       z     vdW  Elec       q    Type
REMARK                         _______ _______ _______ _____ _____    ______ ____
ROOT
ATOM      1  C   LIG    1        0.710  -1.985  -1.215  0.00  0.00    +0.500 C 
ATOM      2  N   LIG    1        1.293  -2.645  -2.235  0.00  0.00    -0.690 N 
ATOM      3  H   LIG    1        1.700  -2.151  -2.964  0.00  0.00    +0.420 HD
ATOM      4  O   LIG    1        0.202  -2.603  -0.304  0.00  0.00    -0.520 OA
ENDROOT
BRANCH   2   5
ATOM      5  C   LIG    1        1.313  -4.110  -2.243  0.00  0.00    +0.270 C 
ATOM      6  C   LIG    1        2.541  -4.625  -1.472  0.00  0.00    +0.060 C 
ATOM      7  C   LIG    1        2.726  -6.124  -1.780  0.00  0.00    -0.290 C 
ATOM      8  S   LIG    1        2.015  -6.358  -3.449  0.00  0.00    +2.400 S 
ATOM      9  O   LIG    1        0.886  -7.217  -3.364  0.00  0.00    -0.920 OA
ATOM     10  O   LIG    1        3.059  -6.649  -4.369  0.00  0.00    -0.920 OA
ATOM     11  C   LIG    1        1.450  -4.631  -3.697  0.00  0.00    -0.320 C 
ENDBRANCH   2   5
BRANCH   1  12
ATOM     12  C   LIG    1        0.690  -0.478  -1.207  0.00  0.00    +0.290 C 
BRANCH  12  14
ATOM     13  C   LIG    1       -0.018   1.465   0.010  0.00  0.00    +0.340 C 
ATOM     14  N   LIG    1        0.002  -0.004   0.002  0.00  0.00    -0.500 N 
ATOM     15  H   LIG    1       -0.945  -0.353   0.009  0.00  0.00    +0.440 HD
ATOM     16  H   LIG    1        0.490  -0.338   0.820  0.00  0.00    +0.440 HD
ENDBRANCH  12  14
ENDBRANCH   1  12
TORSDOF 3
ENDMDL
MODEL      158
REMARK  Name = ZINC000019423979
REMARK                            x       y       z     vdW  Elec       q    Type
REMARK                         _______ _______ _______ _____ _____    ______ ____
ROOT
ATOM      1  C   LIG    1        0.710  -1.985  -1.215  0.00  0.00    +0.500 C 
ATOM      2  N   LIG    1        1.293  -2.645  -2.235  0.00  0.00    -0.700 N 
ATOM      3  H   LIG    1        1.700  -2.151  -2.964  0.00  0.00    +0.420 HD
ATOM      4  O   LIG    1        0.202  -2.603  -0.304  0.00  0.00    -0.520 OA
ENDROOT
BRANCH   2   5
ATOM      5  C   LIG    1        1.313  -4.110  -2.243  0.00  0.00    +0.270 C 
ATOM      6  C   LIG    1        0.013  -4.641  -2.872  0.00  0.00    +0.070 C 
ATOM      7  C   LIG    1        0.240  -6.150  -3.151  0.00  0.00    -0.290 C 
ATOM      8  S   LIG    1        1.942  -6.178  -3.829  0.00  0.00    +2.400 S 
ATOM      9  O   LIG    1        1.888  -6.037  -5.242  0.00  0.00    -0.920 OA
ATOM     10  O   LIG    1        2.661  -7.260  -3.253  0.00  0.00    -0.920 OA
ATOM     11  C   LIG    1        2.505  -4.607  -3.084  0.00  0.00    -0.320 C 
ENDBRANCH   2   5
BRANCH   1  12
ATOM     12  C   LIG    1        0.690  -0.478  -1.207  0.00  0.00    +0.290 C 
BRANCH  12  14
ATOM     13  C   LIG    1       -0.018   1.465   0.010  0.00  0.00    +0.340 C 
ATOM     14  N   LIG    1        0.002  -0.004   0.002  0.00  0.00    -0.500 N 
ATOM     15  H   LIG    1       -0.945  -0.353   0.009  0.00  0.00    +0.440 HD
ATOM     16  H   LIG    1        0.490  -0.338   0.820  0.00  0.00    +0.440 HD
ENDBRANCH  12  14
ENDBRANCH   1  12
TORSDOF 3
ENDMDL
MODEL      159
REMARK  Name = ZINC000019789704
REMARK                            x       y       z     vdW  Elec       q    Type
REMARK                         _______ _______ _______ _____ _____    ______ ____
ROOT
ATOM      1  C   LIG    1       -0.378  -4.029   1.239  0.00  0.00    +0.220 C 
ATOM      2  C   LIG    1       -1.784  -4.662   1.233  0.00  0.00    -0.310 C 
ATOM      3  S   LIG    1       -1.550  -6.188   2.232  0.00  0.00    +2.410 S 
ATOM      4  C   LIG    1       -0.332  -5.418   3.373  0.00  0.00    -0.310 C 
ATOM      5  O   LIG    1       -0.912  -7.185   1.445  0.00  0.00    -0.890 OA
ATOM      6  O   LIG    1       -2.747  -6.490   2.937  0.00  0.00    -0.890 OA
ATOM      7  C   LIG    1        0.441  -4.457   2.451  0.00  0.00    +0.210 C 
ENDROOT
BRANCH   1   8
ATOM      8  N   LIG    1       -0.514  -2.567   1.248  0.00  0.00    -0.490 N 
ATOM      9  H   LIG    1       -1.081  -2.286   2.035  0.00  0.00    +0.430 HD
ATOM     10  H   LIG    1        0.400  -2.144   1.325  0.00  0.00    +0.450 HD
BRANCH   8  11
ATOM     11  C   LIG    1       -1.154  -2.126   0.002  0.00  0.00    +0.280 C 
BRANCH  11  12
ATOM     12  C   LIG    1       -1.295  -0.603   0.011  0.00  0.00    +0.210 C 
BRANCH  12  14
ATOM     13  C   LIG    1       -0.017   1.425   0.010  0.00  0.00    +0.240 C 
ATOM     14  O   LIG    1        0.002  -0.004   0.002  0.00  0.00    -0.400 OA
ENDBRANCH  12  14
ENDBRANCH  11  12
ENDBRANCH   8  11
ENDBRANCH   1   8
BRANCH   7  15
ATOM     15  O   LIG    1        0.805  -3.293   3.196  0.00  0.00    -0.570 OA
ATOM     16  H   LIG    1        1.385  -3.474   3.949  0.00  0.00    +0.420 HD
ENDBRANCH   7  15
TORSDOF 5
ENDMDL
MODEL      160
REMARK  Name = ZINC000019789707
REMARK                            x       y       z     vdW  Elec       q    Type
REMARK                         _______ _______ _______ _____ _____    ______ ____
ROOT
ATOM      1  C   LIG    1       -0.378  -4.029   1.239  0.00  0.00    +0.220 C 
ATOM      2  C   LIG    1       -1.784  -4.662   1.233  0.00  0.00    -0.300 C 
ATOM      3  S   LIG    1       -1.550  -6.188   2.232  0.00  0.00    +2.410 S 
ATOM      4  C   LIG    1       -0.332  -5.418   3.373  0.00  0.00    -0.300 C 
ATOM      5  O   LIG    1       -0.912  -7.185   1.445  0.00  0.00    -0.890 OA
ATOM      6  O   LIG    1       -2.747  -6.490   2.937  0.00  0.00    -0.900 OA
ATOM      7  C   LIG    1        0.441  -4.457   2.451  0.00  0.00    +0.190 C 
ENDROOT
BRANCH   1   8
ATOM      8  N   LIG    1       -0.514  -2.567   1.248  0.00  0.00    -0.500 N 
ATOM      9  H   LIG    1       -1.081  -2.286   2.035  0.00  0.00    +0.430 HD
ATOM     10  H   LIG    1        0.400  -2.144   1.325  0.00  0.00    +0.440 HD
BRANCH   8  11
ATOM     11  C   LIG    1       -1.154  -2.126   0.002  0.00  0.00    +0.290 C 
BRANCH  11  12
ATOM     12  C   LIG    1       -1.295  -0.603   0.011  0.00  0.00    +0.210 C 
BRANCH  12  14
ATOM     13  C   LIG    1       -0.017   1.425   0.010  0.00  0.00    +0.240 C 
ATOM     14  O   LIG    1        0.002  -0.004   0.002  0.00  0.00    -0.400 OA
ENDBRANCH  12  14
ENDBRANCH  11  12
ENDBRANCH   8  11
ENDBRANCH   1   8
BRANCH   7  15
ATOM     15  O   LIG    1        1.628  -5.108   1.994  0.00  0.00    -0.540 OA
ATOM     16  H   LIG    1        2.238  -5.355   2.702  0.00  0.00    +0.410 HD
ENDBRANCH   7  15
TORSDOF 5
ENDMDL
MODEL      161
REMARK  Name = ZINC000019789706
REMARK                            x       y       z     vdW  Elec       q    Type
REMARK                         _______ _______ _______ _____ _____    ______ ____
ROOT
ATOM      1  C   LIG    1       -0.378  -4.029   1.239  0.00  0.00    +0.200 C 
ATOM      2  C   LIG    1        0.617  -4.454   0.128  0.00  0.00    -0.290 C 
ATOM      3  S   LIG    1        1.049  -6.157   0.667  0.00  0.00    +2.420 S 
ATOM      4  C   LIG    1        1.005  -5.784   2.461  0.00  0.00    -0.300 C 
ATOM      5  O   LIG    1        2.380  -6.459   0.272  0.00  0.00    -0.890 OA
ATOM      6  O   LIG    1       -0.010  -7.045   0.339  0.00  0.00    -0.890 OA
ATOM      7  C   LIG    1        0.167  -4.504   2.588  0.00  0.00    +0.200 C 
ENDROOT
BRANCH   1   8
ATOM      8  N   LIG    1       -0.514  -2.567   1.248  0.00  0.00    -0.500 N 
ATOM      9  H   LIG    1       -1.081  -2.286   2.035  0.00  0.00    +0.440 HD
ATOM     10  H   LIG    1        0.400  -2.144   1.325  0.00  0.00    +0.440 HD
BRANCH   8  11
ATOM     11  C   LIG    1       -1.154  -2.126   0.002  0.00  0.00    +0.280 C 
BRANCH  11  12
ATOM     12  C   LIG    1       -1.295  -0.603   0.011  0.00  0.00    +0.210 C 
BRANCH  12  14
ATOM     13  C   LIG    1       -0.017   1.425   0.010  0.00  0.00    +0.240 C 
ATOM     14  O   LIG    1        0.002  -0.004   0.002  0.00  0.00    -0.410 OA
ENDBRANCH  12  14
ENDBRANCH  11  12
ENDBRANCH   8  11
ENDBRANCH   1   8
BRANCH   7  15
ATOM     15  O   LIG    1       -0.934  -4.755   3.463  0.00  0.00    -0.550 OA
ATOM     16  H   LIG    1       -0.675  -5.000   4.361  0.00  0.00    +0.410 HD
ENDBRANCH   7  15
TORSDOF 5
ENDMDL
MODEL      162
REMARK  Name = ZINC000019789708
REMARK                            x       y       z     vdW  Elec       q    Type
REMARK                         _______ _______ _______ _____ _____    ______ ____
ROOT
ATOM      1  C   LIG    1       -0.378  -4.029   1.239  0.00  0.00    +0.210 C 
ATOM      2  C   LIG    1        0.617  -4.454   0.128  0.00  0.00    -0.290 C 
ATOM      3  S   LIG    1        1.049  -6.157   0.667  0.00  0.00    +2.410 S 
ATOM      4  C   LIG    1        1.005  -5.784   2.461  0.00  0.00    -0.300 C 
ATOM      5  O   LIG    1        2.380  -6.459   0.272  0.00  0.00    -0.900 OA
ATOM      6  O   LIG    1       -0.010  -7.045   0.339  0.00  0.00    -0.900 OA
ATOM      7  C   LIG    1        0.167  -4.504   2.588  0.00  0.00    +0.210 C 
ENDROOT
BRANCH   1   8
ATOM      8  N   LIG    1       -0.514  -2.567   1.248  0.00  0.00    -0.490 N 
ATOM      9  H   LIG    1       -1.081  -2.286   2.035  0.00  0.00    +0.430 HD
ATOM     10  H   LIG    1        0.400  -2.144   1.325  0.00  0.00    +0.450 HD
BRANCH   8  11
ATOM     11  C   LIG    1       -1.154  -2.126   0.002  0.00  0.00    +0.280 C 
BRANCH  11  12
ATOM     12  C   LIG    1       -1.295  -0.603   0.011  0.00  0.00    +0.210 C 
BRANCH  12  14
ATOM     13  C   LIG    1       -0.017   1.425   0.010  0.00  0.00    +0.240 C 
ATOM     14  O   LIG    1        0.002  -0.004   0.002  0.00  0.00    -0.400 OA
ENDBRANCH  12  14
ENDBRANCH  11  12
ENDBRANCH   8  11
ENDBRANCH   1   8
BRANCH   7  15
ATOM     15  O   LIG    1        0.981  -3.471   3.148  0.00  0.00    -0.570 OA
ATOM     16  H   LIG    1        1.311  -3.669   4.035  0.00  0.00    +0.420 HD
ENDBRANCH   7  15
TORSDOF 5
ENDMDL
MODEL      163
REMARK  Name = ZINC000020254492
REMARK                            x       y       z     vdW  Elec       q    Type
REMARK                         _______ _______ _______ _____ _____    ______ ____
ROOT
ATOM      1  C   LIG    1       -0.699   1.479   1.216  0.00  0.00    +0.180 C 
ATOM      2  C   LIG    1       -2.135   0.950   1.226  0.00  0.00    +0.030 C 
ATOM      3  C   LIG    1       -2.860   1.474   2.470  0.00  0.00    +0.320 C 
ATOM      4  N   LIG    1       -2.076   1.115   3.660  0.00  0.00    -1.010 NA
ATOM      5  C   LIG    1       -0.658   1.496   3.714  0.00  0.00    +0.320 C 
ATOM      6  C   LIG    1        0.041   0.972   2.456  0.00  0.00    +0.030 C 
ENDROOT
BRANCH   1   7
ATOM      7  N   LIG    1       -0.012   1.005   0.008  0.00  0.00    -0.640 N 
ATOM      8  H   LIG    1       -0.500   1.339  -0.810  0.00  0.00    +0.440 HD
ATOM      9  H   LIG    1        0.935   1.354   0.000  0.00  0.00    +0.440 HD
ATOM     10  H   LIG    1        0.002  -0.004   0.002  0.00  0.00    +0.430 HD
ENDBRANCH   1   7
BRANCH   4  11
ATOM     11  S   LIG    1       -2.778   0.296   4.916  0.00  0.00    +2.780 S 
ATOM     12  O   LIG    1       -4.172   0.559   4.838  0.00  0.00    -0.960 OA
ATOM     13  O   LIG    1       -1.996   0.581   6.068  0.00  0.00    -0.960 OA
BRANCH  11  14
ATOM     14  N   LIG    1       -2.591  -1.321   4.612  0.00  0.00    -1.010 NA
ATOM     15  C   LIG    1       -3.600  -2.071   3.848  0.00  0.00    +0.270 C 
ATOM     16  C   LIG    1       -2.886  -2.845   2.734  0.00  0.00    +0.210 C 
ATOM     17  O   LIG    1       -1.821  -3.612   3.301  0.00  0.00    -0.370 OA
ATOM     18  C   LIG    1       -0.802  -2.827   3.924  0.00  0.00    +0.200 C 
ATOM     19  C   LIG    1       -1.406  -2.050   5.094  0.00  0.00    +0.270 C 
ENDBRANCH  11  14
ENDBRANCH   4  11
TORSDOF 3
ENDMDL
MODEL      164
REMARK  Name = ZINC000257346192
REMARK                            x       y       z     vdW  Elec       q    Type
REMARK                         _______ _______ _______ _____ _____    ______ ____
ROOT
ATOM      1  C   LIG    1       -1.432  -0.058   0.316  0.00  0.00    +0.180 C 
ATOM      2  C   LIG    1       -1.818  -1.487   0.705  0.00  0.00    +0.370 C 
ATOM      3  O   LIG    1       -1.585  -2.360  -0.402  0.00  0.00    -0.390 OA
ATOM      4  C   LIG    1       -2.350  -2.043  -1.566  0.00  0.00    +0.160 C 
ATOM      5  C   LIG    1       -1.986  -0.636  -2.047  0.00  0.00    +0.100 C 
ATOM      6  C   LIG    1       -2.241   0.365  -0.914  0.00  0.00    +0.200 C 
ENDROOT
BRANCH   1   8
ATOM      7  C   LIG    1        0.340   1.327  -0.520  0.00  0.00    +0.320 C 
ATOM      8  N   LIG    1        0.002  -0.004   0.002  0.00  0.00    -0.380 N 
ATOM      9  C   LIG    1        0.780  -0.264   1.221  0.00  0.00    +0.340 C 
ATOM     10  H   LIG    1        0.221  -0.703  -0.692  0.00  0.00    +0.420 HD
ENDBRANCH   1   8
BRANCH   5  11
ATOM     11  O   LIG    1       -2.791  -0.294  -3.177  0.00  0.00    -0.540 OA
ATOM     12  H   LIG    1       -2.683  -0.890  -3.932  0.00  0.00    +0.400 HD
ENDBRANCH   5  11
BRANCH   2  13
ATOM     13  O   LIG    1       -1.026  -1.908   1.818  0.00  0.00    -0.540 OA
ATOM     14  H   LIG    1       -1.218  -2.806   2.120  0.00  0.00    +0.410 HD
ENDBRANCH   2  13
BRANCH   6  15
ATOM     15  O   LIG    1       -3.633   0.378  -0.592  0.00  0.00    -0.540 OA
ATOM     16  H   LIG    1       -4.206   0.631  -1.329  0.00  0.00    +0.410 HD
ENDBRANCH   6  15
BRANCH   4  17
ATOM     17  C   LIG    1       -2.042  -3.055  -2.671  0.00  0.00    +0.210 C 
BRANCH  17  18
ATOM     18  O   LIG    1       -2.488  -4.352  -2.267  0.00  0.00    -0.560 OA
ATOM     19  H   LIG    1       -2.325  -5.045  -2.921  0.00  0.00    +0.390 HD
ENDBRANCH  17  18
ENDBRANCH   4  17
TORSDOF 6
ENDMDL
MODEL      165
REMARK  Name = ZINC000257346191
REMARK                            x       y       z     vdW  Elec       q    Type
REMARK                         _______ _______ _______ _____ _____    ______ ____
ROOT
ATOM      1  C   LIG    1       -1.461  -0.010   0.134  0.00  0.00    +0.180 C 
ATOM      2  C   LIG    1       -1.934  -1.414   0.522  0.00  0.00    +0.370 C 
ATOM      3  O   LIG    1       -1.590  -2.335  -0.515  0.00  0.00    -0.390 OA
ATOM      4  C   LIG    1       -2.194  -2.045  -1.777  0.00  0.00    +0.170 C 
ATOM      5  C   LIG    1       -1.731  -0.667  -2.258  0.00  0.00    +0.140 C 
ATOM      6  C   LIG    1       -2.097   0.384  -1.203  0.00  0.00    +0.210 C 
ENDROOT
BRANCH   1   8
ATOM      7  C   LIG    1        0.441   1.294  -0.529  0.00  0.00    +0.320 C 
ATOM      8  N   LIG    1        0.002  -0.004   0.002  0.00  0.00    -0.370 N 
ATOM      9  C   LIG    1        0.613  -0.226   1.319  0.00  0.00    +0.330 C 
ATOM     10  H   LIG    1        0.286  -0.739  -0.629  0.00  0.00    +0.430 HD
ENDBRANCH   1   8
BRANCH   5  11
ATOM     11  O   LIG    1       -0.315  -0.679  -2.451  0.00  0.00    -0.570 OA
ATOM     12  H   LIG    1       -0.013  -1.325  -3.103  0.00  0.00    +0.410 HD
ENDBRANCH   5  11
BRANCH   2  13
ATOM     13  O   LIG    1       -1.301  -1.809   1.741  0.00  0.00    -0.540 OA
ATOM     14  H   LIG    1       -1.555  -2.691   2.048  0.00  0.00    +0.410 HD
ENDBRANCH   2  13
BRANCH   6  15
ATOM     15  O   LIG    1       -3.517   0.443  -1.060  0.00  0.00    -0.540 OA
ATOM     16  H   LIG    1       -3.985   0.680  -1.872  0.00  0.00    +0.410 HD
ENDBRANCH   6  15
BRANCH   4  17
ATOM     17  C   LIG    1       -1.779  -3.107  -2.797  0.00  0.00    +0.210 C 
BRANCH  17  18
ATOM     18  O   LIG    1       -2.309  -4.375  -2.406  0.00  0.00    -0.560 OA
ATOM     19  H   LIG    1       -2.086  -5.098  -3.009  0.00  0.00    +0.390 HD
ENDBRANCH  17  18
ENDBRANCH   4  17
TORSDOF 6
ENDMDL
MODEL      166
REMARK  Name = ZINC000037487481
REMARK                            x       y       z     vdW  Elec       q    Type
REMARK                         _______ _______ _______ _____ _____    ______ ____
ROOT
ATOM      1  C   LIG    1        1.577  -2.460   2.364  0.00  0.00    +0.200 C 
ATOM      2  C   LIG    1        0.713  -2.207   3.627  0.00  0.00    -0.290 C 
ATOM      3  S   LIG    1        1.493  -3.359   4.829  0.00  0.00    +2.420 S 
ATOM      4  C   LIG    1        1.855  -4.668   3.599  0.00  0.00    -0.300 C 
ATOM      5  O   LIG    1        0.515  -3.821   5.750  0.00  0.00    -0.890 OA
ATOM      6  O   LIG    1        2.711  -2.800   5.304  0.00  0.00    -0.890 OA
ATOM      7  C   LIG    1        1.825  -3.964   2.236  0.00  0.00    +0.200 C 
ENDROOT
BRANCH   1   8
ATOM      8  N   LIG    1        0.867  -1.973   1.174  0.00  0.00    -0.490 N 
ATOM      9  H   LIG    1        1.384  -2.228   0.346  0.00  0.00    +0.440 HD
ATOM     10  H   LIG    1       -0.052  -2.388   1.138  0.00  0.00    +0.440 HD
BRANCH   8  11
ATOM     11  C   LIG    1        0.742  -0.511   1.242  0.00  0.00    +0.280 C 
BRANCH  11  13
ATOM     12  C   LIG    1       -0.019   1.526   0.010  0.00  0.00    +0.050 C 
ATOM     13  C   LIG    1        0.002  -0.004   0.002  0.00  0.00    +0.160 C 
BRANCH  13  14
ATOM     14  O   LIG    1       -1.339  -0.499   0.012  0.00  0.00    -0.580 OA
ATOM     15  H   LIG    1       -1.868  -0.216  -0.746  0.00  0.00    +0.410 HD
ENDBRANCH  13  14
ENDBRANCH  11  13
ENDBRANCH   8  11
ENDBRANCH   1   8
BRANCH   7  16
ATOM     16  O   LIG    1        3.079  -4.166   1.581  0.00  0.00    -0.550 OA
ATOM     17  H   LIG    1        3.284  -5.094   1.403  0.00  0.00    +0.410 HD
ENDBRANCH   7  16
TORSDOF 5
ENDMDL
MODEL      167
REMARK  Name = ZINC000037487479
REMARK                            x       y       z     vdW  Elec       q    Type
REMARK                         _______ _______ _______ _____ _____    ______ ____
ROOT
ATOM      1  C   LIG    1        1.577  -2.460   2.364  0.00  0.00    +0.220 C 
ATOM      2  C   LIG    1        3.016  -1.906   2.348  0.00  0.00    -0.310 C 
ATOM      3  S   LIG    1        3.988  -3.271   3.104  0.00  0.00    +2.410 S 
ATOM      4  C   LIG    1        2.958  -4.599   2.361  0.00  0.00    -0.310 C 
ATOM      5  O   LIG    1        3.817  -3.260   4.515  0.00  0.00    -0.890 OA
ATOM      6  O   LIG    1        5.293  -3.302   2.542  0.00  0.00    -0.890 OA
ATOM      7  C   LIG    1        1.547  -3.983   2.369  0.00  0.00    +0.210 C 
ENDROOT
BRANCH   1   8
ATOM      8  N   LIG    1        0.867  -1.973   1.174  0.00  0.00    -0.490 N 
ATOM      9  H   LIG    1        1.384  -2.228   0.346  0.00  0.00    +0.430 HD
ATOM     10  H   LIG    1       -0.052  -2.388   1.138  0.00  0.00    +0.450 HD
BRANCH   8  11
ATOM     11  C   LIG    1        0.742  -0.511   1.242  0.00  0.00    +0.280 C 
BRANCH  11  13
ATOM     12  C   LIG    1       -0.019   1.526   0.010  0.00  0.00    +0.050 C 
ATOM     13  C   LIG    1        0.002  -0.004   0.002  0.00  0.00    +0.160 C 
BRANCH  13  14
ATOM     14  O   LIG    1       -1.339  -0.499   0.012  0.00  0.00    -0.570 OA
ATOM     15  H   LIG    1       -1.868  -0.216  -0.746  0.00  0.00    +0.410 HD
ENDBRANCH  13  14
ENDBRANCH  11  13
ENDBRANCH   8  11
ENDBRANCH   1   8
BRANCH   7  16
ATOM     16  O   LIG    1        0.837  -4.434   1.214  0.00  0.00    -0.570 OA
ATOM     17  H   LIG    1        0.715  -5.393   1.177  0.00  0.00    +0.420 HD
ENDBRANCH   7  16
TORSDOF 5
ENDMDL
MODEL      168
REMARK  Name = ZINC000003994216
REMARK                            x       y       z     vdW  Elec       q    Type
REMARK                         _______ _______ _______ _____ _____    ______ ____
ROOT
ATOM      1  C   LIG    1       -1.722  -4.579  -0.006  0.00  0.00    +0.240 C 
ATOM      2  C   LIG    1       -0.957  -4.952  -1.294  0.00  0.00    +0.070 C 
ATOM      3  C   LIG    1       -1.566  -6.328  -1.673  0.00  0.00    +0.060 C 
ATOM      4  C   LIG    1       -3.043  -6.144  -1.244  0.00  0.00    +0.270 C 
ATOM      5  N   LIG    1       -2.980  -5.340  -0.006  0.00  0.00    -0.580 N 
ATOM      6  C   LIG    1       -3.920  -5.311   0.960  0.00  0.00    +0.520 C 
ATOM      7  O   LIG    1       -3.763  -4.611   1.938  0.00  0.00    -0.520 OA
ENDROOT
BRANCH   1  10
ATOM      8  N   LIG    1       -1.005  -2.212  -0.000  0.00  0.00    -0.710 N 
ATOM      9  H   LIG    1       -0.087  -2.523  -0.011  0.00  0.00    +0.420 HD
ATOM     10  C   LIG    1       -2.018  -3.102   0.005  0.00  0.00    +0.510 C 
ATOM     11  O   LIG    1       -3.167  -2.713   0.018  0.00  0.00    -0.530 OA
BRANCH   8  12
ATOM     12  C   LIG    1       -1.293  -0.775   0.010  0.00  0.00    +0.300 C 
BRANCH  12  16
ATOM     13  N   LIG    1       -0.016   1.344   0.009  0.00  0.00    -0.840 N 
ATOM     14  H   LIG    1       -0.863   1.817   0.016  0.00  0.00    +0.410 HD
ATOM     15  H   LIG    1        0.817   1.840   0.004  0.00  0.00    +0.410 HD
ATOM     16  C   LIG    1        0.002  -0.004   0.002  0.00  0.00    +0.510 C 
ATOM     17  O   LIG    1        1.060  -0.596  -0.011  0.00  0.00    -0.540 OA
ENDBRANCH  12  16
ENDBRANCH   8  12
ENDBRANCH   1  10
BRANCH   6  18
ATOM     18  C   LIG    1       -5.167  -6.146   0.824  0.00  0.00    +0.300 C 
BRANCH  18  19
ATOM     19  N   LIG    1       -6.026  -5.939   1.997  0.00  0.00    -0.620 N 
ATOM     20  H   LIG    1       -6.861  -6.498   1.906  0.00  0.00    +0.450 HD
ATOM     21  H   LIG    1       -6.279  -4.964   2.060  0.00  0.00    +0.440 HD
ATOM     22  H   LIG    1       -5.528  -6.211   2.831  0.00  0.00    +0.440 HD
ENDBRANCH  18  19
ENDBRANCH   6  18
TORSDOF 5
ENDMDL
MODEL      169
REMARK  Name = ZINC000037692542
REMARK                            x       y       z     vdW  Elec       q    Type
REMARK                         _______ _______ _______ _____ _____    ______ ____
ROOT
ATOM      1  O   LIG    1        3.274   0.298   2.984  0.00  0.00    -0.910 OA
ATOM      2  S   LIG    1        3.342   1.127   1.832  0.00  0.00    +2.390 S 
ATOM      3  C   LIG    1        1.984   0.687   0.674  0.00  0.00    -0.320 C 
ATOM      4  C   LIG    1        1.703   2.057   0.004  0.00  0.00    +0.150 C 
ATOM      5  C   LIG    1        1.738   3.144   1.080  0.00  0.00    +0.230 C 
ATOM      6  O   LIG    1        4.563   1.252   1.115  0.00  0.00    -0.920 OA
ATOM      7  C   LIG    1        2.691   2.792   2.232  0.00  0.00    -0.280 C 
ENDROOT
BRANCH   5   8
ATOM      8  N   LIG    1        2.177   4.405   0.469  0.00  0.00    -0.520 NA
ATOM      9  C   LIG    1        1.240   4.840  -0.576  0.00  0.00    +0.220 C 
ATOM     10  C   LIG    1        1.701   6.184  -1.144  0.00  0.00    +0.280 C 
ATOM     11  N   LIG    1        3.052   6.042  -1.702  0.00  0.00    -0.510 N 
ATOM     12  C   LIG    1        3.982   5.632  -0.642  0.00  0.00    +0.280 C 
ATOM     13  H   LIG    1        3.351   6.925  -2.088  0.00  0.00    +0.440 HD
ATOM     14  H   LIG    1        3.043   5.343  -2.430  0.00  0.00    +0.430 HD
ATOM     15  C   LIG    1        3.539   4.283  -0.069  0.00  0.00    +0.190 C 
ENDBRANCH   5   8
BRANCH   4  16
ATOM     16  O   LIG    1        0.414   2.036  -0.613  0.00  0.00    -0.550 OA
ATOM     17  H   LIG    1        0.324   1.375  -1.313  0.00  0.00    +0.400 HD
ENDBRANCH   4  16
TORSDOF 2
ENDMDL
MODEL      170
REMARK  Name = ZINC000037692540
REMARK                            x       y       z     vdW  Elec       q    Type
REMARK                         _______ _______ _______ _____ _____    ______ ____
ROOT
ATOM      1  O   LIG    1       -0.287  -0.201   1.303  0.00  0.00    -0.910 OA
ATOM      2  S   LIG    1        0.172   0.444   2.484  0.00  0.00    +2.390 S 
ATOM      3  C   LIG    1        1.842  -0.183   2.926  0.00  0.00    -0.320 C 
ATOM      4  C   LIG    1        2.762   0.564   1.939  0.00  0.00    +0.210 C 
ATOM      5  C   LIG    1        2.152   1.876   1.460  0.00  0.00    +0.190 C 
ATOM      6  O   LIG    1       -0.651   0.484   3.642  0.00  0.00    -0.920 OA
ATOM      7  C   LIG    1        0.764   2.136   2.080  0.00  0.00    -0.300 C 
ENDROOT
BRANCH   5   8
ATOM      8  N   LIG    1        3.049   2.980   1.826  0.00  0.00    -0.510 NA
ATOM      9  C   LIG    1        2.359   4.274   1.728  0.00  0.00    +0.200 C 
ATOM     10  C   LIG    1        3.307   5.390   2.173  0.00  0.00    +0.280 C 
ATOM     11  N   LIG    1        4.502   5.386   1.320  0.00  0.00    -0.510 N 
ATOM     12  C   LIG    1        5.194   4.097   1.448  0.00  0.00    +0.280 C 
ATOM     13  H   LIG    1        5.122   6.130   1.606  0.00  0.00    +0.430 HD
ATOM     14  H   LIG    1        4.229   5.527   0.359  0.00  0.00    +0.430 HD
ATOM     15  C   LIG    1        4.262   2.971   0.996  0.00  0.00    +0.220 C 
ENDBRANCH   5   8
BRANCH   4  16
ATOM     16  O   LIG    1        4.006   0.843   2.584  0.00  0.00    -0.540 OA
ATOM     17  H   LIG    1        4.490   0.053   2.863  0.00  0.00    +0.390 HD
ENDBRANCH   4  16
TORSDOF 2
ENDMDL
MODEL      171
REMARK  Name = ZINC000037692541
REMARK                            x       y       z     vdW  Elec       q    Type
REMARK                         _______ _______ _______ _____ _____    ______ ____
ROOT
ATOM      1  O   LIG    1        0.002  -0.004   0.002  0.00  0.00    -0.920 OA
ATOM      2  S   LIG    1       -0.017   1.417   0.010  0.00  0.00    +2.410 S 
ATOM      3  C   LIG    1       -0.460   2.009   1.687  0.00  0.00    -0.340 C 
ATOM      4  C   LIG    1        0.923   2.140   2.374  0.00  0.00    +0.210 C 
ATOM      5  C   LIG    1        1.869   2.779   1.343  0.00  0.00    +0.190 C 
ATOM      6  O   LIG    1       -0.784   2.119  -0.959  0.00  0.00    -0.920 OA
ATOM      7  C   LIG    1        1.700   2.046  -0.003  0.00  0.00    -0.290 C 
ENDROOT
BRANCH   5   8
ATOM      8  N   LIG    1        3.259   2.652   1.800  0.00  0.00    -0.530 NA
ATOM      9  C   LIG    1        3.384   3.029   3.216  0.00  0.00    +0.230 C 
ATOM     10  C   LIG    1        4.831   2.825   3.669  0.00  0.00    +0.270 C 
ATOM     11  N   LIG    1        5.723   3.651   2.844  0.00  0.00    -0.510 N 
ATOM     12  C   LIG    1        5.606   3.246   1.437  0.00  0.00    +0.280 C 
ATOM     13  H   LIG    1        6.676   3.526   3.151  0.00  0.00    +0.430 HD
ATOM     14  H   LIG    1        5.465   4.621   2.937  0.00  0.00    +0.430 HD
ATOM     15  C   LIG    1        4.165   3.453   0.965  0.00  0.00    +0.220 C 
ENDBRANCH   5   8
BRANCH   4  16
ATOM     16  O   LIG    1        0.819   2.977   3.528  0.00  0.00    -0.550 OA
ATOM     17  H   LIG    1        0.220   2.638   4.207  0.00  0.00    +0.400 HD
ENDBRANCH   4  16
TORSDOF 2
ENDMDL
MODEL      172
REMARK  Name = ZINC000037692543
REMARK                            x       y       z     vdW  Elec       q    Type
REMARK                         _______ _______ _______ _____ _____    ______ ____
ROOT
ATOM      1  O   LIG    1        0.002  -0.004   0.002  0.00  0.00    -0.920 OA
ATOM      2  S   LIG    1       -0.017   1.417   0.010  0.00  0.00    +2.400 S 
ATOM      3  C   LIG    1       -0.460   2.009   1.687  0.00  0.00    -0.290 C 
ATOM      4  C   LIG    1        0.923   2.140   2.374  0.00  0.00    +0.190 C 
ATOM      5  C   LIG    1        1.869   2.779   1.343  0.00  0.00    +0.210 C 
ATOM      6  O   LIG    1       -0.784   2.119  -0.959  0.00  0.00    -0.920 OA
ATOM      7  C   LIG    1        1.700   2.046  -0.003  0.00  0.00    -0.340 C 
ENDROOT
BRANCH   4   8
ATOM      8  N   LIG    1        0.816   3.001   3.560  0.00  0.00    -0.510 NA
ATOM      9  C   LIG    1        2.144   3.433   4.019  0.00  0.00    +0.210 C 
ATOM     10  C   LIG    1        1.985   4.373   5.216  0.00  0.00    +0.280 C 
ATOM     11  N   LIG    1        1.278   3.674   6.298  0.00  0.00    -0.510 N 
ATOM     12  C   LIG    1       -0.055   3.270   5.832  0.00  0.00    +0.280 C 
ATOM     13  H   LIG    1        1.185   4.290   7.091  0.00  0.00    +0.440 HD
ATOM     14  H   LIG    1        1.802   2.855   6.568  0.00  0.00    +0.430 HD
ATOM     15  C   LIG    1        0.086   2.321   4.640  0.00  0.00    +0.220 C 
ENDBRANCH   4   8
BRANCH   5  16
ATOM     16  O   LIG    1        1.539   4.160   1.179  0.00  0.00    -0.540 OA
ATOM     17  H   LIG    1        2.098   4.625   0.541  0.00  0.00    +0.390 HD
ENDBRANCH   5  16
TORSDOF 2
ENDMDL
MODEL      173
REMARK  Name = ZINC000002036139
REMARK                            x       y       z     vdW  Elec       q    Type
REMARK                         _______ _______ _______ _____ _____    ______ ____
ROOT
ATOM      1  C   LIG    1       -1.293  -0.775   0.010  0.00  0.00    +0.260 C 
ENDROOT
BRANCH   1   5
ATOM      2  N   LIG    1       -0.016   1.344   0.009  0.00  0.00    -0.840 N 
ATOM      3  H   LIG    1       -0.863   1.817   0.016  0.00  0.00    +0.410 HD
ATOM      4  H   LIG    1        0.817   1.840   0.004  0.00  0.00    +0.410 HD
ATOM      5  C   LIG    1        0.002  -0.004   0.002  0.00  0.00    +0.510 C 
ATOM      6  O   LIG    1        1.060  -0.596  -0.011  0.00  0.00    -0.540 OA
ENDBRANCH   1   5
BRANCH   1   7
ATOM      7  N   LIG    1       -1.005  -2.212  -0.000  0.00  0.00    -0.680 N 
ATOM      8  H   LIG    1       -0.974  -2.706   0.834  0.00  0.00    +0.410 HD
ATOM      9  C   LIG    1       -0.785  -2.846  -1.169  0.00  0.00    +0.500 C 
ATOM     10  O   LIG    1       -0.824  -2.228  -2.211  0.00  0.00    -0.530 OA
BRANCH   9  11
ATOM     11  C   LIG    1       -0.489  -4.324  -1.179  0.00  0.00    +0.310 C 
BRANCH  11  12
ATOM     12  N   LIG    1       -0.288  -4.773  -2.563  0.00  0.00    -0.620 N 
ATOM     13  H   LIG    1       -0.090  -5.763  -2.571  0.00  0.00    +0.450 HD
ATOM     14  H   LIG    1        0.488  -4.272  -2.970  0.00  0.00    +0.440 HD
ATOM     15  H   LIG    1       -1.123  -4.593  -3.100  0.00  0.00    +0.440 HD
ENDBRANCH  11  12
ENDBRANCH   9  11
ENDBRANCH   1   7
BRANCH   1  16
ATOM     16  C   LIG    1       -2.088  -0.423   1.269  0.00  0.00    +0.100 C 
BRANCH  16  17
ATOM     17  C   LIG    1       -3.434  -1.099   1.218  0.00  0.00    -0.100 A 
ATOM     18  C   LIG    1       -4.508  -0.454   0.632  0.00  0.00    +0.040 A 
ATOM     19  C   LIG    1       -5.743  -1.071   0.584  0.00  0.00    -0.010 A 
ATOM     20  C   LIG    1       -5.905  -2.339   1.124  0.00  0.00    +0.110 A 
ATOM     21  C   LIG    1       -4.826  -2.984   1.710  0.00  0.00    -0.010 A 
ATOM     22  C   LIG    1       -3.592  -2.364   1.752  0.00  0.00    +0.020 A 
BRANCH  20  23
ATOM     23  O   LIG    1       -7.119  -2.948   1.077  0.00  0.00    -0.500 OA
ATOM     24  H   LIG    1       -7.261  -3.483   0.284  0.00  0.00    +0.390 HD
ENDBRANCH  20  23
ENDBRANCH  16  17
ENDBRANCH   1  16
TORSDOF 7
ENDMDL
MODEL      174
REMARK  Name = ZINC000044609991
REMARK                            x       y       z     vdW  Elec       q    Type
REMARK                         _______ _______ _______ _____ _____    ______ ____
ROOT
ATOM      1  C   LIG    1       -0.018   1.400  -0.008  0.00  0.00    +0.350 A 
ATOM      2  N   LIG    1        1.099   2.046  -0.252  0.00  0.00    -0.380 NA
ATOM      3  C   LIG    1        2.274   1.422  -0.263  0.00  0.00    +0.170 A 
ATOM      4  C   LIG    1        2.361   0.082  -0.020  0.00  0.00    +0.380 A 
ATOM      5  N   LIG    1        1.226  -0.628   0.237  0.00  0.00    -0.320 N 
ATOM      6  N   LIG    1        0.935  -1.966   0.520  0.00  0.00    -0.130 NA
ATOM      7  N   LIG    1       -0.344  -2.048   0.675  0.00  0.00    +0.020 NA
ATOM      8  N   LIG    1       -0.899  -0.898   0.520  0.00  0.00    -0.290 NA
ATOM      9  C   LIG    1        0.017   0.018   0.248  0.00  0.00    +0.230 A 
ENDROOT
BRANCH   4  10
ATOM     10  N   LIG    1        3.591  -0.551  -0.035  0.00  0.00    -0.630 N 
ATOM     11  C   LIG    1        3.689  -2.016   0.060  0.00  0.00    +0.320 C 
ATOM     12  C   LIG    1        4.592  -2.517  -1.072  0.00  0.00    +0.270 C 
ATOM     13  N   LIG    1        5.882  -1.818  -1.014  0.00  0.00    -0.510 N 
ATOM     14  C   LIG    1        5.686  -0.385  -1.269  0.00  0.00    +0.280 C 
ATOM     15  H   LIG    1        6.502  -2.200  -1.713  0.00  0.00    +0.440 HD
ATOM     16  H   LIG    1        6.290  -1.943  -0.100  0.00  0.00    +0.430 HD
ATOM     17  C   LIG    1        4.838   0.221  -0.152  0.00  0.00    +0.350 C 
ENDBRANCH   4  10
TORSDOF 1
ENDMDL
MODEL      175
REMARK  Name = ZINC000045949823
REMARK                            x       y       z     vdW  Elec       q    Type
REMARK                         _______ _______ _______ _____ _____    ______ ____
ROOT
ATOM      1  C   LIG    1        0.025   1.461  -0.005  0.00  0.00    +0.350 C 
ATOM      2  N   LIG    1        0.024  -0.004  -0.006  0.00  0.00    -0.560 N 
ATOM      3  C   LIG    1       -0.690  -0.671  -0.934  0.00  0.00    +0.550 A 
ATOM      4  C   LIG    1       -0.689  -2.075  -0.932  0.00  0.00    -0.170 A 
ATOM      5  C   LIG    1        0.039  -2.737   0.016  0.00  0.00    +0.450 A 
ATOM      6  N   LIG    1        0.752  -2.017   0.944  0.00  0.00    -0.650 N 
ATOM      7  H   LIG    1        1.271  -2.481   1.619  0.00  0.00    +0.430 HD
ATOM      8  O   LIG    1       -1.332  -0.059  -1.771  0.00  0.00    -0.500 OA
ATOM      9  C   LIG    1        0.739  -0.672   0.917  0.00  0.00    +0.710 A 
ATOM     10  O   LIG    1        1.376  -0.050   1.746  0.00  0.00    -0.520 OA
ENDROOT
BRANCH   5  11
ATOM     11  N   LIG    1        0.059  -4.108   0.041  0.00  0.00    -0.640 N 
ATOM     12  C   LIG    1       -0.040  -4.889  -1.202  0.00  0.00    +0.340 C 
ATOM     13  C   LIG    1        1.096  -5.917  -1.221  0.00  0.00    +0.270 C 
ATOM     14  N   LIG    1        1.046  -6.722   0.006  0.00  0.00    -0.500 N 
ATOM     15  C   LIG    1        1.304  -5.871   1.174  0.00  0.00    +0.270 C 
ATOM     16  H   LIG    1        1.747  -7.447  -0.041  0.00  0.00    +0.440 HD
ATOM     17  H   LIG    1        0.134  -7.144   0.093  0.00  0.00    +0.430 HD
ATOM     18  C   LIG    1        0.184  -4.840   1.311  0.00  0.00    +0.320 C 
ENDBRANCH   5  11
TORSDOF 1
ENDMDL
MODEL      176
REMARK  Name = ZINC000019794148
REMARK                            x       y       z     vdW  Elec       q    Type
REMARK                         _______ _______ _______ _____ _____    ______ ____
ROOT
ATOM      1  C   LIG    1        0.877  -0.392  -1.539  0.00  0.00    +0.590 C 
ATOM      2  N   LIG    1        2.220   0.200  -1.504  0.00  0.00    -0.640 N 
ATOM      3  H   LIG    1        2.998  -0.352  -1.330  0.00  0.00    +0.430 HD
ATOM      4  N   LIG    1        2.358   1.581  -1.729  0.00  0.00    -0.160 NA
ATOM      5  C   LIG    1        1.500   2.182  -2.506  0.00  0.00    +0.240 C 
ATOM      6  C   LIG    1        0.398   1.421  -3.096  0.00  0.00    +0.530 C 
ATOM      7  O   LIG    1       -0.285   1.923  -3.969  0.00  0.00    -0.490 OA
ATOM      8  N   LIG    1        0.138   0.167  -2.677  0.00  0.00    -0.720 N 
ATOM      9  H   LIG    1       -0.536  -0.365  -3.127  0.00  0.00    +0.420 HD
ENDROOT
BRANCH   1  11
ATOM     10  C   LIG    1       -0.022   1.810   0.012  0.00  0.00    +0.170 C 
ATOM     11  S   LIG    1        0.002  -0.004   0.002  0.00  0.00    -0.300 S 
ENDBRANCH   1  11
BRANCH   1  12
ATOM     12  N   LIG    1        0.983  -1.849  -1.691  0.00  0.00    -0.650 NA
ATOM     13  H   LIG    1        0.071  -2.270  -1.786  0.00  0.00    +0.380 HD
BRANCH  12  14
ATOM     14  C   LIG    1        1.723  -2.442  -0.569  0.00  0.00    +0.210 C 
BRANCH  14  15
ATOM     15  C   LIG    1        1.813  -3.958  -0.762  0.00  0.00    +0.260 C 
BRANCH  15  16
ATOM     16  N   LIG    1        2.552  -4.551   0.360  0.00  0.00    -0.380 N 
ATOM     17  C   LIG    1        2.743  -5.987   0.117  0.00  0.00    +0.330 C 
ATOM     18  C   LIG    1        1.792  -4.362   1.603  0.00  0.00    +0.320 C 
ATOM     19  H   LIG    1        3.452  -4.102   0.445  0.00  0.00    +0.430 HD
ENDBRANCH  15  16
ENDBRANCH  14  15
ENDBRANCH  12  14
ENDBRANCH   1  12
TORSDOF 5
ENDMDL
MODEL      177
REMARK  Name = ZINC000019794147
REMARK                            x       y       z     vdW  Elec       q    Type
REMARK                         _______ _______ _______ _____ _____    ______ ____
ROOT
ATOM      1  C   LIG    1        0.877  -0.392  -1.539  0.00  0.00    +0.580 C 
ATOM      2  N   LIG    1        0.144   0.178  -2.677  0.00  0.00    -0.670 N 
ATOM      3  H   LIG    1       -0.399  -0.388  -3.248  0.00  0.00    +0.430 HD
ATOM      4  N   LIG    1        0.243   1.559  -2.924  0.00  0.00    -0.160 NA
ATOM      5  C   LIG    1        1.342   2.180  -2.595  0.00  0.00    +0.250 C 
ATOM      6  C   LIG    1        2.428   1.442  -1.950  0.00  0.00    +0.520 C 
ATOM      7  O   LIG    1        3.520   1.963  -1.819  0.00  0.00    -0.490 OA
ATOM      8  N   LIG    1        2.223   0.189  -1.499  0.00  0.00    -0.720 N 
ATOM      9  H   LIG    1        2.965  -0.328  -1.149  0.00  0.00    +0.420 HD
ENDROOT
BRANCH   1  11
ATOM     10  C   LIG    1       -0.022   1.810   0.012  0.00  0.00    +0.160 C 
ATOM     11  S   LIG    1        0.002  -0.004   0.002  0.00  0.00    -0.200 S 
ENDBRANCH   1  11
BRANCH   1  12
ATOM     12  N   LIG    1        0.975  -1.849  -1.696  0.00  0.00    -0.650 NA
ATOM     13  H   LIG    1        1.514  -2.090  -2.514  0.00  0.00    +0.370 HD
BRANCH  12  14
ATOM     14  C   LIG    1       -0.359  -2.464  -1.744  0.00  0.00    +0.210 C 
BRANCH  14  15
ATOM     15  C   LIG    1       -0.216  -3.979  -1.907  0.00  0.00    +0.270 C 
BRANCH  15  16
ATOM     16  N   LIG    1       -1.549  -4.594  -1.956  0.00  0.00    -0.380 N 
ATOM     17  C   LIG    1       -1.413  -6.056  -1.992  0.00  0.00    +0.330 C 
ATOM     18  C   LIG    1       -2.255  -4.138  -3.161  0.00  0.00    +0.310 C 
ATOM     19  H   LIG    1       -2.074  -4.325  -1.137  0.00  0.00    +0.430 HD
ENDBRANCH  15  16
ENDBRANCH  14  15
ENDBRANCH  12  14
ENDBRANCH   1  12
TORSDOF 5
ENDMDL
MODEL      178
REMARK  Name = ZINC000070853104
REMARK                            x       y       z     vdW  Elec       q    Type
REMARK                         _______ _______ _______ _____ _____    ______ ____
ROOT
ATOM      1  N   LIG    1        1.410  -0.193   2.982  0.00  0.00    -0.490 N 
ATOM      2  H   LIG    1        1.877   0.495   2.409  0.00  0.00    +0.430 HD
ATOM      3  H   LIG    1        1.894  -1.075   2.909  0.00  0.00    +0.450 HD
ENDROOT
BRANCH   1   4
ATOM      4  C   LIG    1        1.412   0.252   4.381  0.00  0.00    +0.190 C 
ATOM      5  C   LIG    1        2.855   0.362   4.915  0.00  0.00    +0.150 C 
ATOM      6  C   LIG    1        2.992   1.827   5.269  0.00  0.00    +0.520 C 
ATOM      7  N   LIG    1        1.842   2.455   4.995  0.00  0.00    -0.670 N 
ATOM      8  H   LIG    1        1.713   3.405   5.148  0.00  0.00    +0.440 HD
ATOM      9  O   LIG    1        3.985   2.348   5.729  0.00  0.00    -0.430 OA
ATOM     10  C   LIG    1        0.881   1.665   4.492  0.00  0.00    +0.520 C 
ATOM     11  O   LIG    1       -0.232   2.027   4.174  0.00  0.00    -0.430 OA
ENDBRANCH   1   4
BRANCH   1  12
ATOM     12  C   LIG    1        0.025  -0.354   2.521  0.00  0.00    +0.420 C 
BRANCH  12  18
ATOM     13  C   LIG    1       -0.018   1.461   0.010  0.00  0.00    +0.340 C 
ATOM     14  N   LIG    1        0.002  -0.004   0.002  0.00  0.00    -0.440 N 
ATOM     15  C   LIG    1        0.009  -0.810  -1.104  0.00  0.00    +0.190 A 
ATOM     16  C   LIG    1        0.029  -2.081  -0.660  0.00  0.00    +0.180 A 
ATOM     17  N   LIG    1        0.034  -2.052   0.681  0.00  0.00    -0.440 NA
ATOM     18  C   LIG    1        0.023  -0.811   1.085  0.00  0.00    +0.100 A 
ENDBRANCH  12  18
ENDBRANCH   1  12
TORSDOF 3
ENDMDL
MODEL      179
REMARK  Name = ZINC000004760799
REMARK                            x       y       z     vdW  Elec       q    Type
REMARK                         _______ _______ _______ _____ _____    ______ ____
ROOT
ATOM      1  C   LIG    1       -2.162  -0.034  -1.208  0.00  0.00    +0.510 C 
ATOM      2  N   LIG    1       -2.660   1.218  -1.230  0.00  0.00    -0.690 N 
ATOM      3  H   LIG    1       -2.549   1.798  -0.461  0.00  0.00    +0.420 HD
ATOM      4  O   LIG    1       -2.301  -0.759  -2.170  0.00  0.00    -0.520 OA
ENDROOT
BRANCH   1   5
ATOM      5  C   LIG    1       -1.433  -0.534   0.013  0.00  0.00    +0.180 C 
BRANCH   5   6
ATOM      6  N   LIG    1       -1.413  -2.002   0.005  0.00  0.00    -0.620 N 
ATOM      7  H   LIG    1       -2.360  -2.352   0.012  0.00  0.00    +0.440 HD
ATOM      8  H   LIG    1       -0.925  -2.337   0.822  0.00  0.00    +0.440 HD
ATOM      9  H   LIG    1       -0.941  -2.328  -0.825  0.00  0.00    +0.440 HD
ENDBRANCH   5   6
BRANCH   5  11
ATOM     10  C   LIG    1       -0.019   1.526   0.010  0.00  0.00    +0.070 C 
ATOM     11  C   LIG    1        0.002  -0.004   0.002  0.00  0.00    -0.010 C 
ATOM     12  C   LIG    1        0.742  -0.511   1.242  0.00  0.00    +0.060 C 
ENDBRANCH   5  11
ENDBRANCH   1   5
BRANCH   2  13
ATOM     13  C   LIG    1       -3.369   1.703  -2.417  0.00  0.00    +0.330 C 
BRANCH  13  14
ATOM     14  C   LIG    1       -3.821   3.122  -2.187  0.00  0.00    +0.510 C 
ATOM     15  N   LIG    1       -4.498   3.778  -3.150  0.00  0.00    -0.710 N 
ATOM     16  H   LIG    1       -4.694   3.337  -3.992  0.00  0.00    +0.420 HD
ATOM     17  O   LIG    1       -3.576   3.674  -1.135  0.00  0.00    -0.540 OA
BRANCH  15  18
ATOM     18  C   LIG    1       -4.938   5.157  -2.926  0.00  0.00    +0.320 C 
BRANCH  18  19
ATOM     19  C   LIG    1       -5.667   5.657  -4.147  0.00  0.00    +0.510 C 
ATOM     20  O   LIG    1       -5.805   4.932  -5.110  0.00  0.00    -0.540 OA
ATOM     21  N   LIG    1       -6.165   6.909  -4.170  0.00  0.00    -0.840 N 
ATOM     22  H   LIG    1       -6.634   7.230  -4.956  0.00  0.00    +0.410 HD
ATOM     23  H   LIG    1       -6.054   7.489  -3.400  0.00  0.00    +0.410 HD
ENDBRANCH  18  19
ENDBRANCH  15  18
ENDBRANCH  13  14
ENDBRANCH   2  13
TORSDOF 7
ENDMDL
MODEL      180
REMARK  Name = ZINC000004764178
REMARK                            x       y       z     vdW  Elec       q    Type
REMARK                         _______ _______ _______ _____ _____    ______ ____
ROOT
ATOM      1  C   ILE A  1       -2.829  -2.579  -0.111  0.00  0.00    +0.510 C 
ATOM      2  N   UNK A  2       -3.486  -2.723   1.058  0.00  0.00    -0.680 N 
ATOM      3  H   UNK A  2       -3.048  -2.491   1.892  0.00  0.00    +0.420 HD
ATOM      4  O   ILE A  1       -3.377  -2.869  -1.153  0.00  0.00    -0.530 OA
ENDROOT
BRANCH   1   5
ATOM      5  CA  ILE A  1       -1.416  -2.058  -0.121  0.00  0.00    +0.180 C 
BRANCH   5   6
ATOM      6  N   ILE A  1       -0.766  -2.431  -1.385  0.00  0.00    -0.620 N 
ATOM      7  H1  ILE A  1       -0.754  -3.436  -1.473  0.00  0.00    +0.440 HD
ATOM      8  H2  ILE A  1        0.181  -2.081  -1.392  0.00  0.00    +0.440 HD
ATOM      9  H3  ILE A  1       -1.278  -2.031  -2.157  0.00  0.00    +0.440 HD
ENDBRANCH   5   6
BRANCH   5  10
ATOM     10  CB  ILE A  1       -1.433  -0.534   0.013  0.00  0.00    -0.010 C 
ATOM     11  CG2 ILE A  1       -2.110  -0.145   1.329  0.00  0.00    +0.060 C 
BRANCH  10  13
ATOM     12  CD1 ILE A  1       -0.019   1.526   0.010  0.00  0.00    +0.040 C 
ATOM     13  CG1 ILE A  1        0.002  -0.004   0.002  0.00  0.00    +0.020 C 
ENDBRANCH  10  13
ENDBRANCH   5  10
ENDBRANCH   1   5
BRANCH   2  14
ATOM     14  C   UNK A  2       -4.860  -3.230   1.068  0.00  0.00    +0.260 C 
BRANCH  14  15
ATOM     15  C   UNK A  2       -5.566  -2.744   2.308  0.00  0.00    +0.530 C 
ATOM     16  O   UNK A  2       -4.978  -2.043   3.105  0.00  0.00    -0.530 OA
ATOM     17  N   UNK A  2       -6.849  -3.089   2.532  0.00  0.00    -0.840 N 
ATOM     18  H   UNK A  2       -7.303  -2.776   3.330  0.00  0.00    +0.410 HD
ATOM     19  H   UNK A  2       -7.319  -3.649   1.895  0.00  0.00    +0.410 HD
ENDBRANCH  14  15
BRANCH  14  20
ATOM     20  C   UNK A  2       -4.839  -4.760   1.060  0.00  0.00    +0.210 C 
BRANCH  20  21
ATOM     21  O   UNK A  2       -4.252  -5.235   2.273  0.00  0.00    -0.570 OA
ATOM     22  H   UNK A  2       -4.206  -6.199   2.336  0.00  0.00    +0.390 HD
ENDBRANCH  20  21
ENDBRANCH  14  20
ENDBRANCH   2  14
TORSDOF 8
ENDMDL
MODEL      181
REMARK  Name = ZINC000004764184
REMARK                            x       y       z     vdW  Elec       q    Type
REMARK                         _______ _______ _______ _____ _____    ______ ____
ROOT
ATOM      1  C   ILE A  1       -2.829  -2.568  -0.234  0.00  0.00    +0.510 C 
ATOM      2  N   UNK A  2       -3.476  -2.506  -1.415  0.00  0.00    -0.680 N 
ATOM      3  H   UNK A  2       -3.032  -2.132  -2.192  0.00  0.00    +0.420 HD
ATOM      4  O   ILE A  1       -3.384  -3.036   0.738  0.00  0.00    -0.530 OA
ENDROOT
BRANCH   1   5
ATOM      5  CA  ILE A  1       -1.416  -2.058  -0.121  0.00  0.00    +0.180 C 
BRANCH   5   6
ATOM      6  N   ILE A  1       -0.775  -2.646   1.063  0.00  0.00    -0.620 N 
ATOM      7  H1  ILE A  1        0.171  -2.304   1.138  0.00  0.00    +0.440 HD
ATOM      8  H2  ILE A  1       -0.764  -3.651   0.974  0.00  0.00    +0.440 HD
ATOM      9  H3  ILE A  1       -1.294  -2.387   1.889  0.00  0.00    +0.440 HD
ENDBRANCH   5   6
BRANCH   5  10
ATOM     10  CB  ILE A  1       -1.433  -0.534   0.013  0.00  0.00    +0.020 C 
ATOM     11  CG2 ILE A  1       -2.110  -0.145   1.329  0.00  0.00    +0.040 C 
BRANCH  10  13
ATOM     12  CD1 ILE A  1       -0.019   1.526   0.010  0.00  0.00    +0.040 C 
ATOM     13  CG1 ILE A  1        0.002  -0.004   0.002  0.00  0.00    +0.010 C 
ENDBRANCH  10  13
ENDBRANCH   5  10
ENDBRANCH   1   5
BRANCH   2  14
ATOM     14  C   UNK A  2       -4.850  -3.002  -1.524  0.00  0.00    +0.270 C 
BRANCH  14  15
ATOM     15  C   UNK A  2       -5.129  -3.396  -2.952  0.00  0.00    +0.530 C 
ATOM     16  O   UNK A  2       -4.266  -3.274  -3.795  0.00  0.00    -0.530 OA
ATOM     17  N   UNK A  2       -6.339  -3.884  -3.292  0.00  0.00    -0.840 N 
ATOM     18  H   UNK A  2       -6.519  -4.137  -4.211  0.00  0.00    +0.410 HD
ATOM     19  H   UNK A  2       -7.029  -3.982  -2.618  0.00  0.00    +0.410 HD
ENDBRANCH  14  15
BRANCH  14  20
ATOM     20  C   UNK A  2       -5.825  -1.903  -1.098  0.00  0.00    +0.210 C 
BRANCH  20  21
ATOM     21  O   UNK A  2       -5.743  -0.811  -2.017  0.00  0.00    -0.570 OA
ATOM     22  H   UNK A  2       -6.336  -0.076  -1.808  0.00  0.00    +0.390 HD
ENDBRANCH  20  21
ENDBRANCH  14  20
ENDBRANCH   2  14
TORSDOF 8
ENDMDL
MODEL      182
REMARK  Name = ZINC000015440565
REMARK                            x       y       z     vdW  Elec       q    Type
REMARK                         _______ _______ _______ _____ _____    ______ ____
ROOT
ATOM      1  C   LIG    1       -0.665   1.458   3.696  0.00  0.00    +0.221 C 
ATOM      2  N   LIG    1       -0.188   1.132   4.913  0.00  0.00    -0.299 N 
ATOM      3  C   LIG    1        1.022   0.308   5.055  0.00  0.00    +0.123 C 
ATOM      4  C   LIG    1        1.987   1.020   6.010  0.00  0.00    +0.103 C 
ATOM      5  N   LIG    1        1.291   1.323   7.267  0.00  0.00    -0.297 NA
ATOM      6  C   LIG    1        0.174   2.252   7.048  0.00  0.00    +0.103 C 
ATOM      7  C   LIG    1       -0.861   1.596   6.136  0.00  0.00    +0.123 C 
ATOM      8  O   LIG    1       -1.661   2.142   3.598  0.00  0.00    -0.275 OA
ENDROOT
BRANCH   1   9
ATOM      9  C   LIG    1        0.041   0.972   2.456  0.00  0.00    +0.146 C 
BRANCH   9  10
ATOM     10  C   LIG    1       -0.699   1.479   1.216  0.00  0.00    +0.137 C 
BRANCH  10  11
ATOM     11  N   LIG    1       -0.012   1.005   0.008  0.00  0.00    +0.219 N 
ATOM     12  H   LIG    1       -0.500   1.339  -0.810  0.00  0.00    +0.199 HD
ATOM     13  H   LIG    1        0.935   1.354   0.000  0.00  0.00    +0.199 HD
ATOM     14  H   LIG    1        0.002  -0.004   0.002  0.00  0.00    +0.199 HD
ENDBRANCH  10  11
ENDBRANCH   9  10
ENDBRANCH   1   9
BRANCH   5  15
ATOM     15  C   LIG    1        2.225   1.850   8.272  0.00  0.00    +0.112 C 
BRANCH  15  16
ATOM     16  C   LIG    1        1.526   1.918   9.631  0.00  0.00    +0.171 C 
BRANCH  16  17
ATOM     17  O   LIG    1        1.206   0.596  10.069  0.00  0.00    -0.394 OA
ATOM     18  H   LIG    1        0.760   0.563  10.927  0.00  0.00    +0.209 HD
ENDBRANCH  16  17
ENDBRANCH  15  16
ENDBRANCH   5  15
TORSDOF 6
ENDMDL
MODEL      183
REMARK  Name = ZINC000100004300
REMARK                            x       y       z     vdW  Elec       q    Type
REMARK                         _______ _______ _______ _____ _____    ______ ____
ROOT
ATOM      1  CA  HIS A  1       -2.250   5.289   3.892  0.00  0.00    +0.194 C 
ENDROOT
BRANCH   1   3
ATOM      2  C   UNK A  0       -1.425   3.494   2.465  0.00  0.00    +0.219 C 
ATOM      3  N   HIS A  1       -1.564   4.816   2.686  0.00  0.00    -0.302 N 
ATOM      4  H   HIS A  1       -1.210   5.455   2.048  0.00  0.00    +0.150 HD
ATOM      5  O   UNK A  0       -1.868   2.696   3.263  0.00  0.00    -0.276 OA
BRANCH   2   6
ATOM      6  C   UNK A  0       -0.720   3.008   1.225  0.00  0.00    +0.146 C 
BRANCH   6   7
ATOM      7  C   UNK A  0       -0.699   1.479   1.216  0.00  0.00    +0.137 C 
BRANCH   7   8
ATOM      8  N   UNK A  0       -0.012   1.005   0.008  0.00  0.00    +0.219 N 
ATOM      9  H   UNK A  0       -0.500   1.339  -0.810  0.00  0.00    +0.199 HD
ATOM     10  H   UNK A  0        0.935   1.354   0.000  0.00  0.00    +0.199 HD
ATOM     11  H   UNK A  0        0.002  -0.004   0.002  0.00  0.00    +0.199 HD
ENDBRANCH   7   8
ENDBRANCH   6   7
ENDBRANCH   2   6
ENDBRANCH   1   3
BRANCH   1  12
ATOM     12  C   HIS A  1       -3.736   5.321   3.644  0.00  0.00    +0.376 C 
ATOM     13  OXT HIS A  1       -4.494   5.687   4.527  0.00  0.00    -0.244 OA
ATOM     14  O   HIS A  1       -4.181   4.981   2.561  0.00  0.00    -0.244 OA
ENDBRANCH   1  12
BRANCH   1  15
ATOM     15  CB  HIS A  1       -1.760   6.696   4.238  0.00  0.00    +0.116 C 
BRANCH  15  16
ATOM     16  CG  HIS A  1       -0.300   6.644   4.605  0.00  0.00    +0.144 A 
ATOM     17  CD2 HIS A  1        0.201   6.354   5.821  0.00  0.00    +0.243 A 
ATOM     18  NE2 HIS A  1        1.564   6.416   5.714  0.00  0.00    -0.250 N 
ATOM     19  HE2 HIS A  1        2.205   6.256   6.424  0.00  0.00    +0.310 HD
ATOM     20  CE1 HIS A  1        1.849   6.743   4.435  0.00  0.00    +0.401 A 
ATOM     21  ND1 HIS A  1        0.730   6.872   3.777  0.00  0.00    -0.247 N 
ATOM     22  HD1 HIS A  1        0.654   7.103   2.837  0.00  0.00    +0.310 HD
ENDBRANCH  15  16
ENDBRANCH   1  15
TORSDOF 7
ENDMDL
MODEL      184
REMARK  Name = ZINC000100004298
REMARK                            x       y       z     vdW  Elec       q    Type
REMARK                         _______ _______ _______ _____ _____    ______ ____
ROOT
ATOM      1  CA  HIS A  1       -2.250   5.289   3.892  0.00  0.00    +0.194 C 
ENDROOT
BRANCH   1   3
ATOM      2  C   UNK A  0       -1.425   3.494   2.465  0.00  0.00    +0.219 C 
ATOM      3  N   HIS A  1       -1.564   4.816   2.686  0.00  0.00    -0.302 N 
ATOM      4  H   HIS A  1       -1.210   5.455   2.048  0.00  0.00    +0.150 HD
ATOM      5  O   UNK A  0       -1.868   2.696   3.263  0.00  0.00    -0.276 OA
BRANCH   2   6
ATOM      6  C   UNK A  0       -0.720   3.008   1.225  0.00  0.00    +0.146 C 
BRANCH   6   7
ATOM      7  C   UNK A  0       -0.699   1.479   1.216  0.00  0.00    +0.137 C 
BRANCH   7   8
ATOM      8  N   UNK A  0       -0.012   1.005   0.008  0.00  0.00    +0.219 N 
ATOM      9  H   UNK A  0       -0.500   1.339  -0.810  0.00  0.00    +0.199 HD
ATOM     10  H   UNK A  0        0.935   1.354   0.000  0.00  0.00    +0.199 HD
ATOM     11  H   UNK A  0        0.002  -0.004   0.002  0.00  0.00    +0.199 HD
ENDBRANCH   7   8
ENDBRANCH   6   7
ENDBRANCH   2   6
ENDBRANCH   1   3
BRANCH   1  12
ATOM     12  C   HIS A  1       -3.736   5.321   3.644  0.00  0.00    +0.376 C 
ATOM     13  OXT HIS A  1       -4.494   5.687   4.527  0.00  0.00    -0.244 OA
ATOM     14  O   HIS A  1       -4.181   4.981   2.561  0.00  0.00    -0.244 OA
ENDBRANCH   1  12
BRANCH   1  15
ATOM     15  CB  HIS A  1       -1.760   6.696   4.238  0.00  0.00    +0.116 C 
BRANCH  15  16
ATOM     16  CG  HIS A  1       -0.300   6.644   4.605  0.00  0.00    +0.144 A 
ATOM     17  CD2 HIS A  1        0.201   6.354   5.821  0.00  0.00    +0.243 A 
ATOM     18  NE2 HIS A  1        1.564   6.416   5.714  0.00  0.00    -0.250 N 
ATOM     19  HE2 HIS A  1        2.205   6.256   6.424  0.00  0.00    +0.310 HD
ATOM     20  CE1 HIS A  1        1.849   6.743   4.435  0.00  0.00    +0.401 A 
ATOM     21  ND1 HIS A  1        0.730   6.872   3.777  0.00  0.00    -0.247 N 
ATOM     22  HD1 HIS A  1        0.654   7.103   2.837  0.00  0.00    +0.310 HD
ENDBRANCH  15  16
ENDBRANCH   1  15
TORSDOF 7
ENDMDL
MODEL      185
REMARK  Name = ZINC000011755151
REMARK                            x       y       z     vdW  Elec       q    Type
REMARK                         _______ _______ _______ _____ _____    ______ ____
ROOT
ATOM      1  C   LIG    1       -1.425   3.494   2.465  0.00  0.00    +0.218 C 
ATOM      2  N   LIG    1       -1.564   4.816   2.686  0.00  0.00    -0.311 N 
ATOM      3  H   LIG    1       -1.210   5.455   2.048  0.00  0.00    +0.149 HD
ATOM      4  O   LIG    1       -1.868   2.696   3.263  0.00  0.00    -0.276 OA
ENDROOT
BRANCH   2   5
ATOM      5  C   LIG    1       -2.250   5.289   3.892  0.00  0.00    +0.095 C 
ATOM      6  C   LIG    1       -1.248   5.376   5.056  0.00  0.00    +0.046 C 
ATOM      7  C   LIG    1       -1.946   6.183   6.182  0.00  0.00    +0.168 C 
ATOM      8  S   LIG    1       -2.756   7.542   5.256  0.00  0.00    -0.029 S 
ATOM      9  O   LIG    1       -1.866   8.646   5.166  0.00  0.00    -0.174 OA
ATOM     10  O   LIG    1       -4.072   7.732   5.754  0.00  0.00    -0.174 OA
ATOM     11  C   LIG    1       -2.834   6.693   3.639  0.00  0.00    +0.188 C 
ENDBRANCH   2   5
BRANCH   1  12
ATOM     12  C   LIG    1       -0.720   3.008   1.225  0.00  0.00    +0.146 C 
BRANCH  12  13
ATOM     13  C   LIG    1       -0.699   1.479   1.216  0.00  0.00    +0.137 C 
BRANCH  13  14
ATOM     14  N   LIG    1       -0.012   1.005   0.008  0.00  0.00    +0.219 N 
ATOM     15  H   LIG    1       -0.500   1.339  -0.810  0.00  0.00    +0.199 HD
ATOM     16  H   LIG    1        0.935   1.354   0.000  0.00  0.00    +0.199 HD
ATOM     17  H   LIG    1        0.002  -0.004   0.002  0.00  0.00    +0.199 HD
ENDBRANCH  13  14
ENDBRANCH  12  13
ENDBRANCH   1  12
TORSDOF 4
ENDMDL
MODEL      186
REMARK  Name = ZINC000011755150
REMARK                            x       y       z     vdW  Elec       q    Type
REMARK                         _______ _______ _______ _____ _____    ______ ____
ROOT
ATOM      1  C   LIG    1       -1.425   3.494   2.465  0.00  0.00    +0.218 C 
ATOM      2  N   LIG    1       -1.564   4.816   2.686  0.00  0.00    -0.311 N 
ATOM      3  H   LIG    1       -1.210   5.455   2.048  0.00  0.00    +0.149 HD
ATOM      4  O   LIG    1       -1.868   2.696   3.263  0.00  0.00    -0.276 OA
ENDROOT
BRANCH   2   5
ATOM      5  C   LIG    1       -2.250   5.289   3.892  0.00  0.00    +0.095 C 
ATOM      6  C   LIG    1       -3.765   5.376   3.636  0.00  0.00    +0.046 C 
ATOM      7  C   LIG    1       -4.413   6.185   4.777  0.00  0.00    +0.168 C 
ATOM      8  S   LIG    1       -3.101   7.316   5.364  0.00  0.00    -0.029 S 
ATOM      9  O   LIG    1       -2.766   6.992   6.707  0.00  0.00    -0.174 OA
ATOM     10  O   LIG    1       -3.443   8.652   5.023  0.00  0.00    -0.174 OA
ATOM     11  C   LIG    1       -1.776   6.722   4.245  0.00  0.00    +0.188 C 
ENDBRANCH   2   5
BRANCH   1  12
ATOM     12  C   LIG    1       -0.720   3.008   1.225  0.00  0.00    +0.146 C 
BRANCH  12  13
ATOM     13  C   LIG    1       -0.699   1.479   1.216  0.00  0.00    +0.137 C 
BRANCH  13  14
ATOM     14  N   LIG    1       -0.012   1.005   0.008  0.00  0.00    +0.219 N 
ATOM     15  H   LIG    1       -0.500   1.339  -0.810  0.00  0.00    +0.199 HD
ATOM     16  H   LIG    1        0.935   1.354   0.000  0.00  0.00    +0.199 HD
ATOM     17  H   LIG    1        0.002  -0.004   0.002  0.00  0.00    +0.199 HD
ENDBRANCH  13  14
ENDBRANCH  12  13
ENDBRANCH   1  12
TORSDOF 4
ENDMDL
MODEL      187
REMARK  Name = ZINC000038083711
REMARK                            x       y       z     vdW  Elec       q    Type
REMARK                         _______ _______ _______ _____ _____    ______ ____
ROOT
ATOM      1  C   LIG    1       -1.412  -0.526   0.013  0.00  0.00    +0.500 C 
ATOM      2  N   LIG    1       -2.125  -0.563  -1.130  0.00  0.00    -0.700 N 
ATOM      3  H   LIG    1       -1.728  -0.253  -1.960  0.00  0.00    +0.410 HD
ATOM      4  O   LIG    1       -1.908  -0.912   1.050  0.00  0.00    -0.520 OA
ENDROOT
BRANCH   1   6
ATOM      5  C   LIG    1       -0.019   1.526   0.010  0.00  0.00    +0.120 C 
ATOM      6  C   LIG    1        0.002  -0.004   0.002  0.00  0.00    +0.170 C 
BRANCH   6   7
ATOM      7  N   LIG    1        0.713  -0.491   1.192  0.00  0.00    -0.620 N 
ATOM      8  H   LIG    1        0.240  -0.165   2.022  0.00  0.00    +0.440 HD
ATOM      9  H   LIG    1        1.659  -0.141   1.185  0.00  0.00    +0.440 HD
ATOM     10  H   LIG    1        0.726  -1.500   1.187  0.00  0.00    +0.440 HD
ENDBRANCH   6   7
ENDBRANCH   1   6
BRANCH   2  11
ATOM     11  C   LIG    1       -3.499  -1.070  -1.120  0.00  0.00    +0.300 C 
BRANCH  11  12
ATOM     12  C   LIG    1       -4.078  -1.004  -2.535  0.00  0.00    +0.010 C 
ATOM     13  C   LIG    1       -3.319  -1.980  -3.450  0.00  0.00    +0.070 C 
ATOM     14  C   LIG    1       -4.154  -2.108  -4.751  0.00  0.00    -0.310 C 
ATOM     15  S   LIG    1       -5.869  -2.224  -4.114  0.00  0.00    +2.400 S 
ATOM     16  O   LIG    1       -6.200  -3.589  -3.898  0.00  0.00    -0.930 OA
ATOM     17  O   LIG    1       -6.720  -1.405  -4.904  0.00  0.00    -0.930 OA
ATOM     18  C   LIG    1       -5.565  -1.411  -2.506  0.00  0.00    -0.310 C 
ENDBRANCH  11  12
ENDBRANCH   2  11
TORSDOF 4
ENDMDL
MODEL      188
REMARK  Name = ZINC000038083708
REMARK                            x       y       z     vdW  Elec       q    Type
REMARK                         _______ _______ _______ _____ _____    ______ ____
ROOT
ATOM      1  C   LIG    1        0.707  -0.490  -1.238  0.00  0.00    +0.500 C 
ATOM      2  N   LIG    1        0.053  -0.526  -2.415  0.00  0.00    -0.700 N 
ATOM      3  H   LIG    1       -0.873  -0.239  -2.465  0.00  0.00    +0.410 HD
ATOM      4  O   LIG    1        1.864  -0.849  -1.176  0.00  0.00    -0.520 OA
ENDROOT
BRANCH   1   6
ATOM      5  C   LIG    1       -0.019   1.526   0.010  0.00  0.00    +0.120 C 
ATOM      6  C   LIG    1        0.002  -0.004   0.002  0.00  0.00    +0.170 C 
BRANCH   6   7
ATOM      7  N   LIG    1        0.713  -0.491   1.192  0.00  0.00    -0.620 N 
ATOM      8  H   LIG    1        1.659  -0.141   1.185  0.00  0.00    +0.440 HD
ATOM      9  H   LIG    1        0.726  -1.500   1.187  0.00  0.00    +0.440 HD
ATOM     10  H   LIG    1        0.240  -0.165   2.022  0.00  0.00    +0.440 HD
ENDBRANCH   6   7
ENDBRANCH   1   6
BRANCH   2  11
ATOM     11  C   LIG    1        0.738  -0.999  -3.621  0.00  0.00    +0.310 C 
BRANCH  11  12
ATOM     12  C   LIG    1       -0.222  -0.939  -4.810  0.00  0.00    +0.000 C 
ATOM     13  C   LIG    1       -1.357  -1.961  -4.623  0.00  0.00    +0.070 C 
ATOM     14  C   LIG    1       -2.102  -2.123  -5.963  0.00  0.00    -0.320 C 
ATOM     15  S   LIG    1       -0.857  -1.744  -7.249  0.00  0.00    +2.390 S 
ATOM     16  O   LIG    1       -1.252  -0.577  -7.957  0.00  0.00    -0.930 OA
ATOM     17  O   LIG    1       -0.541  -2.932  -7.963  0.00  0.00    -0.930 OA
ATOM     18  C   LIG    1        0.521  -1.333  -6.113  0.00  0.00    -0.290 C 
ENDBRANCH  11  12
ENDBRANCH   2  11
TORSDOF 4
ENDMDL
MODEL      189
REMARK  Name = ZINC000038083710
REMARK                            x       y       z     vdW  Elec       q    Type
REMARK                         _______ _______ _______ _____ _____    ______ ____
ROOT
ATOM      1  C   LIG    1        0.707  -0.490  -1.238  0.00  0.00    +0.500 C 
ATOM      2  N   LIG    1        0.053  -0.526  -2.415  0.00  0.00    -0.700 N 
ATOM      3  H   LIG    1       -0.873  -0.239  -2.465  0.00  0.00    +0.410 HD
ATOM      4  O   LIG    1        1.864  -0.849  -1.176  0.00  0.00    -0.520 OA
ENDROOT
BRANCH   1   6
ATOM      5  C   LIG    1       -0.019   1.526   0.010  0.00  0.00    +0.120 C 
ATOM      6  C   LIG    1        0.002  -0.004   0.002  0.00  0.00    +0.170 C 
BRANCH   6   7
ATOM      7  N   LIG    1        0.713  -0.491   1.192  0.00  0.00    -0.620 N 
ATOM      8  H   LIG    1        1.659  -0.141   1.185  0.00  0.00    +0.440 HD
ATOM      9  H   LIG    1        0.726  -1.500   1.187  0.00  0.00    +0.440 HD
ATOM     10  H   LIG    1        0.240  -0.165   2.022  0.00  0.00    +0.440 HD
ENDBRANCH   6   7
ENDBRANCH   1   6
BRANCH   2  11
ATOM     11  C   LIG    1        0.738  -0.999  -3.621  0.00  0.00    +0.300 C 
BRANCH  11  12
ATOM     12  C   LIG    1       -0.222  -0.939  -4.810  0.00  0.00    +0.010 C 
ATOM     13  C   LIG    1       -0.570   0.527  -5.121  0.00  0.00    +0.070 C 
ATOM     14  C   LIG    1       -1.259   0.535  -6.510  0.00  0.00    -0.310 C 
ATOM     15  S   LIG    1       -0.225  -0.631  -7.474  0.00  0.00    +2.400 S 
ATOM     16  O   LIG    1        0.823   0.085  -8.112  0.00  0.00    -0.930 OA
ATOM     17  O   LIG    1       -1.066  -1.485  -8.238  0.00  0.00    -0.930 OA
ATOM     18  C   LIG    1        0.451  -1.558  -6.051  0.00  0.00    -0.310 C 
ENDBRANCH  11  12
ENDBRANCH   2  11
TORSDOF 4
ENDMDL
MODEL      190
REMARK  Name = ZINC000038083709
REMARK                            x       y       z     vdW  Elec       q    Type
REMARK                         _______ _______ _______ _____ _____    ______ ____
ROOT
ATOM      1  C   LIG    1       -1.412  -0.526   0.013  0.00  0.00    +0.500 C 
ATOM      2  N   LIG    1       -2.125  -0.563  -1.130  0.00  0.00    -0.700 N 
ATOM      3  H   LIG    1       -1.728  -0.253  -1.960  0.00  0.00    +0.410 HD
ATOM      4  O   LIG    1       -1.908  -0.912   1.050  0.00  0.00    -0.520 OA
ENDROOT
BRANCH   1   6
ATOM      5  C   LIG    1       -0.019   1.526   0.010  0.00  0.00    +0.120 C 
ATOM      6  C   LIG    1        0.002  -0.004   0.002  0.00  0.00    +0.180 C 
BRANCH   6   7
ATOM      7  N   LIG    1        0.713  -0.491   1.192  0.00  0.00    -0.620 N 
ATOM      8  H   LIG    1        0.240  -0.165   2.022  0.00  0.00    +0.440 HD
ATOM      9  H   LIG    1        1.659  -0.141   1.185  0.00  0.00    +0.440 HD
ATOM     10  H   LIG    1        0.726  -1.500   1.187  0.00  0.00    +0.440 HD
ENDBRANCH   6   7
ENDBRANCH   1   6
BRANCH   2  11
ATOM     11  C   LIG    1       -3.499  -1.070  -1.120  0.00  0.00    +0.310 C 
BRANCH  11  12
ATOM     12  C   LIG    1       -4.078  -1.004  -2.535  0.00  0.00    +0.000 C 
ATOM     13  C   LIG    1       -4.244   0.464  -2.968  0.00  0.00    +0.070 C 
ATOM     14  C   LIG    1       -5.129   0.509  -4.229  0.00  0.00    -0.320 C 
ATOM     15  S   LIG    1       -6.202  -0.968  -4.112  0.00  0.00    +2.390 S 
ATOM     16  O   LIG    1       -5.907  -1.851  -5.186  0.00  0.00    -0.930 OA
ATOM     17  O   LIG    1       -7.543  -0.559  -3.880  0.00  0.00    -0.930 OA
ATOM     18  C   LIG    1       -5.493  -1.637  -2.560  0.00  0.00    -0.290 C 
ENDBRANCH  11  12
ENDBRANCH   2  11
TORSDOF 4
ENDMDL
MODEL      191
REMARK  Name = ZINC000013719785
REMARK                            x       y       z     vdW  Elec       q    Type
REMARK                         _______ _______ _______ _____ _____    ______ ____
ROOT
ATOM      1  N   LIG    1        1.366  -2.510  -2.438  0.00  0.00    -0.370 N 
ATOM      2  C   LIG    1        0.534  -2.232  -3.615  0.00  0.00    +0.280 C 
ATOM      3  C   LIG    1        1.309  -2.583  -4.886  0.00  0.00    +0.150 C 
ATOM      4  C   LIG    1        1.677  -4.069  -4.859  0.00  0.00    +0.120 C 
ATOM      5  C   LIG    1        2.482  -4.363  -3.590  0.00  0.00    +0.210 C 
ATOM      6  C   LIG    1        1.661  -3.946  -2.367  0.00  0.00    +0.200 C 
ATOM      7  H   LIG    1        2.229  -1.993  -2.507  0.00  0.00    +0.440 HD
ENDROOT
BRANCH   5   8
ATOM      8  O   LIG    1        3.706  -3.626  -3.619  0.00  0.00    -0.540 OA
ATOM      9  H   LIG    1        4.274  -3.838  -4.372  0.00  0.00    +0.400 HD
ENDBRANCH   5   8
BRANCH   4  10
ATOM     10  O   LIG    1        2.464  -4.388  -6.009  0.00  0.00    -0.550 OA
ATOM     11  H   LIG    1        2.017  -4.220  -6.850  0.00  0.00    +0.400 HD
ENDBRANCH   4  10
BRANCH   3  12
ATOM     12  O   LIG    1        0.497  -2.312  -6.030  0.00  0.00    -0.550 OA
ATOM     13  H   LIG    1        0.926  -2.512  -6.874  0.00  0.00    +0.400 HD
ENDBRANCH   3  12
BRANCH   1  14
ATOM     14  C   LIG    1        0.647  -2.099  -1.224  0.00  0.00    +0.250 C 
BRANCH  14  15
ATOM     15  C   LIG    1        0.437  -0.584  -1.245  0.00  0.00    +0.030 C 
BRANCH  15  17
ATOM     16  C   LIG    1       -0.522   1.360  -0.001  0.00  0.00    +0.030 C 
ATOM     17  C   LIG    1       -0.311  -0.155   0.019  0.00  0.00    +0.020 C 
ENDBRANCH  15  17
ENDBRANCH  14  15
ENDBRANCH   1  14
BRANCH   6  18
ATOM     18  C   LIG    1        2.460  -4.237  -1.095  0.00  0.00    +0.220 C 
BRANCH  18  19
ATOM     19  O   LIG    1        3.714  -3.553  -1.153  0.00  0.00    -0.550 OA
ATOM     20  H   LIG    1        4.274  -3.692  -0.377  0.00  0.00    +0.400 HD
ENDBRANCH  18  19
ENDBRANCH   6  18
TORSDOF 8
ENDMDL
MODEL      192
REMARK  Name = ZINC000022205855
REMARK                            x       y       z     vdW  Elec       q    Type
REMARK                         _______ _______ _______ _____ _____    ______ ____
ROOT
ATOM      1  C   LIG    1       -0.018   1.465   0.010  0.00  0.00    +0.190 C 
ATOM      2  N   LIG    1        0.002  -0.004   0.002  0.00  0.00    -0.520 NA
ENDROOT
BRANCH   2   3
ATOM      3  C   LIG    1       -1.360  -0.549  -0.083  0.00  0.00    +0.150 C 
BRANCH   3   4
ATOM      4  C   LIG    1       -1.971  -0.185  -1.437  0.00  0.00    +0.210 C 
BRANCH   4   5
ATOM      5  O   LIG    1       -1.239  -0.834  -2.479  0.00  0.00    -0.530 OA
ATOM      6  H   LIG    1       -1.237  -1.799  -2.417  0.00  0.00    +0.370 HD
ENDBRANCH   4   5
BRANCH   4   7
ATOM      7  C   LIG    1       -3.430  -0.643  -1.478  0.00  0.00    +0.140 C 
BRANCH   7   8
ATOM      8  N   LIG    1       -4.017  -0.295  -2.778  0.00  0.00    -0.520 NA
ATOM      9  C   LIG    1       -3.689   1.089  -3.150  0.00  0.00    +0.140 C 
ATOM     10  C   LIG    1       -4.268   1.391  -4.535  0.00  0.00    +0.220 C 
ATOM     11  O   LIG    1       -5.679   1.154  -4.518  0.00  0.00    -0.380 OA
ATOM     12  C   LIG    1       -6.034  -0.184  -4.160  0.00  0.00    +0.220 C 
ATOM     13  C   LIG    1       -5.473  -0.502  -2.772  0.00  0.00    +0.150 C 
ENDBRANCH   7   8
ENDBRANCH   4   7
ENDBRANCH   3   4
ENDBRANCH   2   3
BRANCH   2  14
ATOM     14  C   LIG    1        0.706  -0.527   1.180  0.00  0.00    +0.160 C 
BRANCH  14  15
ATOM     15  C   LIG    1        2.185  -0.143   1.103  0.00  0.00    +0.200 C 
BRANCH  15  16
ATOM     16  O   LIG    1        2.760  -0.698  -0.081  0.00  0.00    -0.540 OA
ATOM     17  H   LIG    1        2.714  -1.663  -0.126  0.00  0.00    +0.390 HD
ENDBRANCH  15  16
BRANCH  15  18
ATOM     18  C   LIG    1        2.918  -0.688   2.330  0.00  0.00    +0.240 C 
BRANCH  18  19
ATOM     19  N   LIG    1        4.310  -0.219   2.318  0.00  0.00    -0.630 N 
ATOM     20  H   LIG    1        4.794  -0.578   3.127  0.00  0.00    +0.440 HD
ATOM     21  H   LIG    1        4.325   0.790   2.337  0.00  0.00    +0.440 HD
ATOM     22  H   LIG    1        4.768  -0.545   1.480  0.00  0.00    +0.440 HD
ENDBRANCH  18  19
ENDBRANCH  15  18
ENDBRANCH  14  15
ENDBRANCH   2  14
TORSDOF 10
ENDMDL
MODEL      193
REMARK  Name = ZINC000003327330
REMARK                            x       y       z     vdW  Elec       q    Type
REMARK                         _______ _______ _______ _____ _____    ______ ____
ROOT
ATOM      1  N   LIG    1        4.862   0.643   2.796  0.00  0.00    -0.500 N 
ATOM      2  H   LIG    1        4.270  -0.015   3.280  0.00  0.00    +0.430 HD
ATOM      3  H   LIG    1        4.831   1.534   3.268  0.00  0.00    +0.430 HD
ENDROOT
BRANCH   1   4
ATOM      4  C   LIG    1        4.387   0.804   1.415  0.00  0.00    +0.270 C 
BRANCH   4   5
ATOM      5  C   LIG    1        2.949   1.326   1.428  0.00  0.00    +0.010 C 
BRANCH   5   6
ATOM      6  C   LIG    1        2.454   1.494  -0.010  0.00  0.00    +0.310 C 
BRANCH   6  12
ATOM      7  O   LIG    1        0.002  -0.004   0.002  0.00  0.00    -0.520 OA
ATOM      8  C   LIG    1       -0.014   1.209   0.009  0.00  0.00    +0.520 C 
ATOM      9  C   LIG    1       -1.266   2.058   0.032  0.00  0.00    +0.060 C 
ATOM     10  C   LIG    1       -0.765   3.459   0.452  0.00  0.00    +0.050 C 
ATOM     11  C   LIG    1        0.711   3.415   0.001  0.00  0.00    +0.260 C 
ATOM     12  N   LIG    1        1.077   1.993   0.003  0.00  0.00    -0.630 N 
ENDBRANCH   6  12
ENDBRANCH   5   6
ENDBRANCH   4   5
ENDBRANCH   1   4
BRANCH   1  13
ATOM     13  C   LIG    1        6.243   0.142   2.783  0.00  0.00    +0.250 C 
BRANCH  13  14
ATOM     14  C   LIG    1        6.737  -0.026   4.221  0.00  0.00    +0.210 C 
BRANCH  14  15
ATOM     15  O   LIG    1        6.694   1.236   4.891  0.00  0.00    -0.550 OA
ATOM     16  H   LIG    1        7.242   1.919   4.479  0.00  0.00    +0.390 HD
ENDBRANCH  14  15
BRANCH  14  17
ATOM     17  C   LIG    1        8.176  -0.547   4.208  0.00  0.00    +0.180 C 
BRANCH  17  18
ATOM     18  O   LIG    1        8.598  -0.815   5.547  0.00  0.00    -0.560 OA
ATOM     19  H   LIG    1        9.502  -1.149   5.615  0.00  0.00    +0.400 HD
ENDBRANCH  17  18
ENDBRANCH  14  17
ENDBRANCH  13  14
ENDBRANCH   1  13
TORSDOF 9
ENDMDL
MODEL      194
REMARK  Name = ZINC000003327332
REMARK                            x       y       z     vdW  Elec       q    Type
REMARK                         _______ _______ _______ _____ _____    ______ ____
ROOT
ATOM      1  N   LIG    1        4.862   0.643   2.796  0.00  0.00    -0.500 N 
ATOM      2  H   LIG    1        4.270  -0.015   3.280  0.00  0.00    +0.430 HD
ATOM      3  H   LIG    1        4.831   1.534   3.268  0.00  0.00    +0.430 HD
ENDROOT
BRANCH   1   4
ATOM      4  C   LIG    1        4.387   0.804   1.415  0.00  0.00    +0.280 C 
BRANCH   4   5
ATOM      5  C   LIG    1        2.949   1.326   1.428  0.00  0.00    +0.010 C 
BRANCH   5   6
ATOM      6  C   LIG    1        2.454   1.494  -0.010  0.00  0.00    +0.310 C 
BRANCH   6  12
ATOM      7  O   LIG    1        0.002  -0.004   0.002  0.00  0.00    -0.520 OA
ATOM      8  C   LIG    1       -0.014   1.209   0.009  0.00  0.00    +0.520 C 
ATOM      9  C   LIG    1       -1.266   2.058   0.032  0.00  0.00    +0.060 C 
ATOM     10  C   LIG    1       -0.765   3.459   0.452  0.00  0.00    +0.050 C 
ATOM     11  C   LIG    1        0.711   3.415   0.001  0.00  0.00    +0.260 C 
ATOM     12  N   LIG    1        1.077   1.993   0.003  0.00  0.00    -0.630 N 
ENDBRANCH   6  12
ENDBRANCH   5   6
ENDBRANCH   4   5
ENDBRANCH   1   4
BRANCH   1  13
ATOM     13  C   LIG    1        6.243   0.142   2.783  0.00  0.00    +0.250 C 
BRANCH  13  14
ATOM     14  C   LIG    1        6.737  -0.026   4.221  0.00  0.00    +0.210 C 
BRANCH  14  15
ATOM     15  O   LIG    1        5.973  -1.042   4.872  0.00  0.00    -0.550 OA
ATOM     16  H   LIG    1        6.029  -1.909   4.448  0.00  0.00    +0.390 HD
ENDBRANCH  14  15
BRANCH  14  17
ATOM     17  C   LIG    1        8.214  -0.427   4.209  0.00  0.00    +0.180 C 
BRANCH  17  18
ATOM     18  O   LIG    1        8.707  -0.471   5.550  0.00  0.00    -0.560 OA
ATOM     19  H   LIG    1        9.639  -0.719   5.619  0.00  0.00    +0.400 HD
ENDBRANCH  17  18
ENDBRANCH  14  17
ENDBRANCH  13  14
ENDBRANCH   1  13
TORSDOF 9
ENDMDL
MODEL      195
REMARK  Name = ZINC000032107339
REMARK                            x       y       z     vdW  Elec       q    Type
REMARK                         _______ _______ _______ _____ _____    ______ ____
ROOT
ATOM      1  C   LIG    1       -2.841  -2.598   0.016  0.00  0.00    +0.190 C 
ENDROOT
BRANCH   1   2
ATOM      2  O   LIG    1       -3.642  -2.050   1.064  0.00  0.00    -0.540 OA
ATOM      3  H   LIG    1       -3.327  -2.264   1.953  0.00  0.00    +0.380 HD
ENDBRANCH   1   2
BRANCH   1   4
ATOM      4  C   LIG    1       -1.413  -2.059   0.130  0.00  0.00    +0.180 C 
BRANCH   4   5
ATOM      5  O   LIG    1       -0.612  -2.607  -0.918  0.00  0.00    -0.540 OA
ATOM      6  H   LIG    1       -0.927  -2.393  -1.807  0.00  0.00    +0.380 HD
ENDBRANCH   4   5
BRANCH   4   7
ATOM      7  C   LIG    1       -1.433  -0.534   0.013  0.00  0.00    +0.200 C 
BRANCH   7   8
ATOM      8  O   LIG    1       -2.089  -0.158  -1.200  0.00  0.00    -0.540 OA
ATOM      9  H   LIG    1       -1.665  -0.500  -1.999  0.00  0.00    +0.370 HD
ENDBRANCH   7   8
BRANCH   7  10
ATOM     10  C   LIG    1        0.002  -0.004   0.002  0.00  0.00    +0.170 C 
BRANCH  10  11
ATOM     11  O   LIG    1       -0.017   1.425   0.010  0.00  0.00    -0.560 OA
ATOM     12  H   LIG    1        0.861   1.830   0.004  0.00  0.00    +0.390 HD
ENDBRANCH  10  11
ENDBRANCH   7  10
ENDBRANCH   4   7
ENDBRANCH   1   4
BRANCH   1  13
ATOM     13  C   LIG    1       -2.821  -4.123   0.133  0.00  0.00    +0.220 C 
BRANCH  13  14
ATOM     14  C   LIG    1       -4.256  -4.653   0.144  0.00  0.00    +0.180 C 
ATOM     15  N   LIG    1       -4.263  -6.121   0.337  0.00  0.00    -0.510 N 
ATOM     16  C   LIG    1       -5.408  -6.738  -0.361  0.00  0.00    +0.300 C 
ATOM     17  C   LIG    1       -5.430  -6.169  -1.806  0.00  0.00    +0.180 C 
ATOM     18  H   LIG    1       -4.329  -6.326   1.323  0.00  0.00    +0.440 HD
ATOM     19  H   LIG    1       -3.406  -6.508  -0.027  0.00  0.00    +0.440 HD
ATOM     20  S   LIG    1       -5.045  -4.396  -1.490  0.00  0.00    -0.140 S 
ENDBRANCH  13  14
BRANCH  13  21
ATOM     21  O   LIG    1       -2.165  -4.499   1.346  0.00  0.00    -0.540 OA
ATOM     22  H   LIG    1       -2.589  -4.157   2.145  0.00  0.00    +0.390 HD
ENDBRANCH  13  21
ENDBRANCH   1  13
TORSDOF 10
ENDMDL
MODEL      196
REMARK  Name = ZINC000032107341
REMARK                            x       y       z     vdW  Elec       q    Type
REMARK                         _______ _______ _______ _____ _____    ______ ____
ROOT
ATOM      1  C   LIG    1       -2.841  -2.598   0.016  0.00  0.00    +0.180 C 
ENDROOT
BRANCH   1   2
ATOM      2  O   LIG    1       -3.642  -2.050   1.064  0.00  0.00    -0.520 OA
ATOM      3  H   LIG    1       -3.327  -2.264   1.953  0.00  0.00    +0.380 HD
ENDBRANCH   1   2
BRANCH   1   4
ATOM      4  C   LIG    1       -1.413  -2.059   0.130  0.00  0.00    +0.180 C 
BRANCH   4   5
ATOM      5  O   LIG    1       -0.612  -2.607  -0.918  0.00  0.00    -0.540 OA
ATOM      6  H   LIG    1       -0.927  -2.393  -1.807  0.00  0.00    +0.380 HD
ENDBRANCH   4   5
BRANCH   4   7
ATOM      7  C   LIG    1       -1.433  -0.534   0.013  0.00  0.00    +0.200 C 
BRANCH   7   8
ATOM      8  O   LIG    1       -2.089  -0.158  -1.200  0.00  0.00    -0.540 OA
ATOM      9  H   LIG    1       -1.665  -0.500  -1.999  0.00  0.00    +0.370 HD
ENDBRANCH   7   8
BRANCH   7  10
ATOM     10  C   LIG    1        0.002  -0.004   0.002  0.00  0.00    +0.170 C 
BRANCH  10  11
ATOM     11  O   LIG    1       -0.017   1.425   0.010  0.00  0.00    -0.560 OA
ATOM     12  H   LIG    1        0.861   1.830   0.004  0.00  0.00    +0.390 HD
ENDBRANCH  10  11
ENDBRANCH   7  10
ENDBRANCH   4   7
ENDBRANCH   1   4
BRANCH   1  13
ATOM     13  C   LIG    1       -2.821  -4.123   0.133  0.00  0.00    +0.220 C 
BRANCH  13  14
ATOM     14  C   LIG    1       -4.256  -4.653   0.144  0.00  0.00    +0.180 C 
ATOM     15  N   LIG    1       -4.275  -6.132   0.326  0.00  0.00    -0.510 N 
ATOM     16  C   LIG    1       -5.622  -6.536   0.771  0.00  0.00    +0.290 C 
ATOM     17  C   LIG    1       -6.065  -5.633   1.945  0.00  0.00    +0.130 C 
ATOM     18  H   LIG    1       -3.596  -6.396   1.024  0.00  0.00    +0.440 HD
ATOM     19  H   LIG    1       -4.056  -6.584  -0.549  0.00  0.00    +0.440 HD
ATOM     20  S   LIG    1       -5.159  -4.064   1.630  0.00  0.00    -0.110 S 
ENDBRANCH  13  14
BRANCH  13  21
ATOM     21  O   LIG    1       -2.165  -4.499   1.346  0.00  0.00    -0.540 OA
ATOM     22  H   LIG    1       -2.589  -4.157   2.145  0.00  0.00    +0.390 HD
ENDBRANCH  13  21
ENDBRANCH   1  13
TORSDOF 10
ENDMDL
MODEL      197
REMARK  Name = ZINC000033961778
REMARK                            x       y       z     vdW  Elec       q    Type
REMARK                         _______ _______ _______ _____ _____    ______ ____
ROOT
ATOM      1  N   LIG    1       -2.147  -0.043  -1.095  0.00  0.00    -0.370 N 
ATOM      2  C   LIG    1       -2.168   1.424  -1.087  0.00  0.00    +0.300 C 
ATOM      3  C   LIG    1       -2.761   1.937  -2.402  0.00  0.00    +0.140 C 
ATOM      4  C   LIG    1       -4.189   1.406  -2.553  0.00  0.00    +0.110 C 
ATOM      5  C   LIG    1       -4.164  -0.124  -2.485  0.00  0.00    +0.220 C 
ATOM      6  C   LIG    1       -3.520  -0.559  -1.167  0.00  0.00    +0.190 C 
ATOM      7  H   LIG    1       -1.625  -0.367  -1.896  0.00  0.00    +0.420 HD
ENDROOT
BRANCH   5   8
ATOM      8  O   LIG    1       -5.500  -0.627  -2.553  0.00  0.00    -0.530 OA
ATOM      9  H   LIG    1       -5.970  -0.385  -3.362  0.00  0.00    +0.400 HD
ENDBRANCH   5   8
BRANCH   4  10
ATOM     10  O   LIG    1       -5.004   1.919  -1.497  0.00  0.00    -0.540 OA
ATOM     11  H   LIG    1       -5.060   2.884  -1.477  0.00  0.00    +0.400 HD
ENDBRANCH   4  10
BRANCH   3  12
ATOM     12  O   LIG    1       -2.781   3.366  -2.391  0.00  0.00    -0.540 OA
ATOM     13  H   LIG    1       -3.145   3.760  -3.195  0.00  0.00    +0.400 HD
ENDBRANCH   3  12
BRANCH   1  14
ATOM     14  C   LIG    1       -1.507  -0.529   0.134  0.00  0.00    +0.280 C 
BRANCH  14  15
ATOM     15  C   LIG    1       -0.027  -0.139   0.127  0.00  0.00    +0.220 C 
BRANCH  15  16
ATOM     16  O   LIG    1        0.093   1.275   0.299  0.00  0.00    -0.570 OA
ATOM     17  H   LIG    1        1.005   1.595   0.304  0.00  0.00    +0.410 HD
ENDBRANCH  15  16
ENDBRANCH  14  15
ENDBRANCH   1  14
BRANCH   6  18
ATOM     18  C   LIG    1       -3.491  -2.087  -1.094  0.00  0.00    +0.220 C 
BRANCH  18  19
ATOM     19  O   LIG    1       -2.798  -2.606  -2.231  0.00  0.00    -0.580 OA
ATOM     20  H   LIG    1       -2.741  -3.571  -2.250  0.00  0.00    +0.410 HD
ENDBRANCH  18  19
ENDBRANCH   6  18
TORSDOF 8
ENDMDL
MODEL      198
REMARK  Name = ZINC000043760855
REMARK                            x       y       z     vdW  Elec       q    Type
REMARK                         _______ _______ _______ _____ _____    ______ ____
ROOT
ATOM      1  C   ILE A  1       -2.829  -2.568  -0.234  0.00  0.00    +0.510 C 
ATOM      2  N   UNK A  2       -3.476  -2.506  -1.415  0.00  0.00    -0.680 N 
ATOM      3  H   UNK A  2       -3.032  -2.132  -2.192  0.00  0.00    +0.420 HD
ATOM      4  O   ILE A  1       -3.384  -3.036   0.738  0.00  0.00    -0.530 OA
ENDROOT
BRANCH   1   5
ATOM      5  CA  ILE A  1       -1.416  -2.058  -0.121  0.00  0.00    +0.180 C 
BRANCH   5   6
ATOM      6  N   ILE A  1       -0.775  -2.646   1.063  0.00  0.00    -0.620 N 
ATOM      7  H1  ILE A  1        0.171  -2.304   1.138  0.00  0.00    +0.440 HD
ATOM      8  H2  ILE A  1       -0.764  -3.651   0.974  0.00  0.00    +0.440 HD
ATOM      9  H3  ILE A  1       -1.294  -2.387   1.889  0.00  0.00    +0.440 HD
ENDBRANCH   5   6
BRANCH   5  10
ATOM     10  CB  ILE A  1       -1.433  -0.534   0.013  0.00  0.00    +0.020 C 
ATOM     11  CG2 ILE A  1       -2.110  -0.145   1.329  0.00  0.00    +0.050 C 
BRANCH  10  13
ATOM     12  CD1 ILE A  1       -0.019   1.526   0.010  0.00  0.00    +0.040 C 
ATOM     13  CG1 ILE A  1        0.002  -0.004   0.002  0.00  0.00    +0.010 C 
ENDBRANCH  10  13
ENDBRANCH   5  10
ENDBRANCH   1   5
BRANCH   2  14
ATOM     14  C   UNK A  2       -4.850  -3.002  -1.524  0.00  0.00    +0.260 C 
BRANCH  14  15
ATOM     15  C   UNK A  2       -5.546  -2.307  -2.666  0.00  0.00    +0.530 C 
ATOM     16  O   UNK A  2       -4.953  -1.478  -3.323  0.00  0.00    -0.530 OA
ATOM     17  N   UNK A  2       -6.827  -2.606  -2.956  0.00  0.00    -0.840 N 
ATOM     18  H   UNK A  2       -7.276  -2.158  -3.691  0.00  0.00    +0.410 HD
ATOM     19  H   UNK A  2       -7.302  -3.268  -2.430  0.00  0.00    +0.410 HD
ENDBRANCH  14  15
BRANCH  14  20
ATOM     20  C   UNK A  2       -4.828  -4.510  -1.783  0.00  0.00    +0.210 C 
BRANCH  20  21
ATOM     21  O   UNK A  2       -4.231  -4.766  -3.056  0.00  0.00    -0.570 OA
ATOM     22  H   UNK A  2       -4.184  -5.704  -3.286  0.00  0.00    +0.390 HD
ENDBRANCH  20  21
ENDBRANCH  14  20
ENDBRANCH   2  14
TORSDOF 8
ENDMDL
MODEL      199
REMARK  Name = ZINC000037819373
REMARK                            x       y       z     vdW  Elec       q    Type
REMARK                         _______ _______ _______ _____ _____    ______ ____
ROOT
ATOM      1  C   LIG    1        0.138   1.428   0.041  0.00  0.00    +0.310 C 
ATOM      2  N   LIG    1        0.293  -0.027  -0.025  0.00  0.00    -0.630 N 
ATOM      3  C   LIG    1        0.011  -0.684  -1.168  0.00  0.00    +0.710 C 
ATOM      4  N   LIG    1       -0.090  -2.028  -1.166  0.00  0.00    -0.640 N 
ATOM      5  C   LIG    1       -0.305  -2.760   0.090  0.00  0.00    +0.280 C 
ATOM      6  C   LIG    1       -1.558  -3.631  -0.059  0.00  0.00    +0.290 C 
ATOM      7  N   LIG    1       -1.455  -4.391  -1.313  0.00  0.00    -0.590 N 
ATOM      8  C   LIG    1       -1.240  -3.659  -2.569  0.00  0.00    +0.280 C 
ATOM      9  C   LIG    1       -1.557  -5.735  -1.311  0.00  0.00    +0.500 C 
ATOM     10  O   LIG    1       -1.735  -6.328  -0.268  0.00  0.00    -0.530 OA
ATOM     11  C   LIG    1        0.008  -2.787  -2.421  0.00  0.00    +0.300 C 
ATOM     12  O   LIG    1       -0.153  -0.064  -2.201  0.00  0.00    -0.570 OA
ATOM     13  C   LIG    1        0.755  -0.769   1.150  0.00  0.00    +0.300 C 
ENDROOT
BRANCH   9  14
ATOM     14  C   LIG    1       -1.449  -6.501  -2.605  0.00  0.00    +0.290 C 
BRANCH  14  15
ATOM     15  N   LIG    1       -1.592  -7.938  -2.336  0.00  0.00    -0.620 N 
ATOM     16  H   LIG    1       -0.862  -8.236  -1.707  0.00  0.00    +0.440 HD
ATOM     17  H   LIG    1       -1.520  -8.451  -3.202  0.00  0.00    +0.450 HD
ATOM     18  H   LIG    1       -2.492  -8.114  -1.915  0.00  0.00    +0.440 HD
ENDBRANCH  14  15
ENDBRANCH   9  14
TORSDOF 2
ENDMDL
MODEL      200
REMARK  Name = ZINC000048547245
REMARK                            x       y       z     vdW  Elec       q    Type
REMARK                         _______ _______ _______ _____ _____    ______ ____
ROOT
ATOM      1  C   LIG    1        1.493  -3.996   2.415  0.00  0.00    +0.370 C 
ATOM      2  O   LIG    1        0.159  -4.492   2.543  0.00  0.00    -0.350 OA
ATOM      3  C   LIG    1        0.061  -5.917   2.521  0.00  0.00    +0.160 C 
ATOM      4  C   LIG    1        0.849  -6.500   3.697  0.00  0.00    +0.140 C 
ATOM      5  C   LIG    1        2.305  -6.033   3.608  0.00  0.00    +0.180 C 
ATOM      6  C   LIG    1        2.339  -4.502   3.587  0.00  0.00    +0.180 C 
ENDROOT
BRANCH   1   7
ATOM      7  N   LIG    1        1.473  -2.527   2.423  0.00  0.00    -0.500 N 
ATOM      8  H   LIG    1        1.001  -2.202   3.253  0.00  0.00    +0.440 HD
ATOM      9  H   LIG    1        2.420  -2.178   2.416  0.00  0.00    +0.440 HD
BRANCH   7  10
ATOM     10  C   LIG    1        0.763  -2.041   1.233  0.00  0.00    +0.260 C 
BRANCH  10  11
ATOM     11  C   LIG    1        0.742  -0.511   1.242  0.00  0.00    +0.030 C 
BRANCH  11  13
ATOM     12  C   LIG    1       -0.019   1.526   0.010  0.00  0.00    +0.030 C 
ATOM     13  C   LIG    1        0.002  -0.004   0.002  0.00  0.00    +0.020 C 
ENDBRANCH  11  13
ENDBRANCH  10  11
ENDBRANCH   7  10
ENDBRANCH   1   7
BRANCH   5  14
ATOM     14  O   LIG    1        3.032  -6.514   4.740  0.00  0.00    -0.550 OA
ATOM     15  H   LIG    1        3.046  -7.478   4.818  0.00  0.00    +0.410 HD
ENDBRANCH   5  14
BRANCH   4  16
ATOM     16  O   LIG    1        0.800  -7.927   3.644  0.00  0.00    -0.550 OA
ATOM     17  H   LIG    1       -0.095  -8.292   3.692  0.00  0.00    +0.390 HD
ENDBRANCH   4  16
BRANCH   6  18
ATOM     18  O   LIG    1        1.808  -3.996   4.814  0.00  0.00    -0.560 OA
ATOM     19  H   LIG    1        2.293  -4.281   5.600  0.00  0.00    +0.420 HD
ENDBRANCH   6  18
BRANCH   3  20
ATOM     20  C   LIG    1       -1.408  -6.330   2.635  0.00  0.00    +0.230 C 
BRANCH  20  21
ATOM     21  O   LIG    1       -2.119  -5.884   1.479  0.00  0.00    -0.570 OA
ATOM     22  H   LIG    1       -3.059  -6.111   1.484  0.00  0.00    +0.400 HD
ENDBRANCH  20  21
ENDBRANCH   3  20
TORSDOF 9
ENDMDL
MODEL      201
REMARK  Name = ZINC000096026543
REMARK                            x       y       z     vdW  Elec       q    Type
REMARK                         _______ _______ _______ _____ _____    ______ ____
ROOT
ATOM      1  C   UNK    1       -5.017   1.245   3.498  0.00  0.00    +0.460 C 
ATOM      2  O   UNK    1       -4.432   1.943   4.291  0.00  0.00    -0.490 OA
ENDROOT
BRANCH   1   3
ATOM      3  C   UNK    1       -4.312   0.759   2.258  0.00  0.00    +0.380 C 
BRANCH   3   5
ATOM      4  C   UNK    1       -2.113   0.957   1.227  0.00  0.00    +0.500 C 
ATOM      5  N   UNK    1       -2.938   1.266   2.247  0.00  0.00    -0.700 N 
ATOM      6  H   UNK    1       -2.621   1.824   2.975  0.00  0.00    +0.420 HD
ATOM      7  O   UNK    1       -2.509   0.259   0.317  0.00  0.00    -0.520 OA
BRANCH   4   8
ATOM      8  C   UNK    1       -0.699   1.479   1.216  0.00  0.00    +0.320 C 
BRANCH   8   9
ATOM      9  N   UNK    1       -0.012   1.005   0.008  0.00  0.00    -0.620 N 
ATOM     10  H   UNK    1       -0.500   1.339  -0.810  0.00  0.00    +0.440 HD
ATOM     11  H   UNK    1        0.935   1.354   0.000  0.00  0.00    +0.450 HD
ATOM     12  H   UNK    1        0.002  -0.004   0.002  0.00  0.00    +0.440 HD
ENDBRANCH   8   9
ENDBRANCH   4   8
ENDBRANCH   3   5
ENDBRANCH   1   3
BRANCH   1  13
ATOM     13  O   UNK    1       -6.296   0.902   3.720  0.00  0.00    -0.370 OA
BRANCH  13  14
ATOM     14  C   UNK    1       -6.912   1.406   4.935  0.00  0.00    +0.280 C 
BRANCH  14  15
ATOM     15  C   UNK    1       -8.358   0.914   5.015  0.00  0.00    +0.110 C 
BRANCH  15  16
ATOM     16  N   UNK    1       -9.136   1.498   3.914  0.00  0.00    -0.610 N 
ATOM     17  H   UNK    1       -8.733   1.217   3.033  0.00  0.00    +0.420 HD
ATOM     18  H   UNK    1       -9.118   2.504   3.986  0.00  0.00    +0.430 HD
ATOM     19  H   UNK    1      -10.090   1.174   3.967  0.00  0.00    +0.440 HD
ENDBRANCH  15  16
BRANCH  15  20
ATOM     20  C   UNK    1       -8.959   1.334   6.332  0.00  0.00    +0.490 C 
ATOM     21  O   UNK    1       -8.871   0.602   7.303  0.00  0.00    -0.620 OA
ATOM     22  O   UNK    1       -9.533   2.406   6.427  0.00  0.00    -0.650 OA
ENDBRANCH  15  20
ENDBRANCH  14  15
ENDBRANCH  13  14
ENDBRANCH   1  13
TORSDOF 9
ENDMDL
MODEL      202
REMARK  Name = ZINC000096026544
REMARK                            x       y       z     vdW  Elec       q    Type
REMARK                         _______ _______ _______ _____ _____    ______ ____
ROOT
ATOM      1  C   UNK    1       -5.017   1.245   3.498  0.00  0.00    +0.460 C 
ATOM      2  O   UNK    1       -4.432   1.943   4.291  0.00  0.00    -0.490 OA
ENDROOT
BRANCH   1   3
ATOM      3  C   UNK    1       -4.312   0.759   2.258  0.00  0.00    +0.380 C 
BRANCH   3   5
ATOM      4  C   UNK    1       -2.113   0.957   1.227  0.00  0.00    +0.500 C 
ATOM      5  N   UNK    1       -2.938   1.266   2.247  0.00  0.00    -0.700 N 
ATOM      6  H   UNK    1       -2.621   1.824   2.975  0.00  0.00    +0.420 HD
ATOM      7  O   UNK    1       -2.509   0.259   0.317  0.00  0.00    -0.520 OA
BRANCH   4   8
ATOM      8  C   UNK    1       -0.699   1.479   1.216  0.00  0.00    +0.320 C 
BRANCH   8   9
ATOM      9  N   UNK    1       -0.012   1.005   0.008  0.00  0.00    -0.620 N 
ATOM     10  H   UNK    1       -0.500   1.339  -0.810  0.00  0.00    +0.440 HD
ATOM     11  H   UNK    1        0.935   1.354   0.000  0.00  0.00    +0.450 HD
ATOM     12  H   UNK    1        0.002  -0.004   0.002  0.00  0.00    +0.440 HD
ENDBRANCH   8   9
ENDBRANCH   4   8
ENDBRANCH   3   5
ENDBRANCH   1   3
BRANCH   1  13
ATOM     13  O   UNK    1       -6.296   0.902   3.720  0.00  0.00    -0.370 OA
BRANCH  13  14
ATOM     14  C   UNK    1       -6.912   1.406   4.935  0.00  0.00    +0.280 C 
BRANCH  14  15
ATOM     15  C   UNK    1       -8.358   0.914   5.015  0.00  0.00    +0.110 C 
BRANCH  15  16
ATOM     16  N   UNK    1       -8.371  -0.548   5.151  0.00  0.00    -0.610 N 
ATOM     17  H   UNK    1       -9.325  -0.873   5.204  0.00  0.00    +0.440 HD
ATOM     18  H   UNK    1       -7.879  -0.812   5.992  0.00  0.00    +0.430 HD
ATOM     19  H   UNK    1       -7.919  -0.965   4.351  0.00  0.00    +0.420 HD
ENDBRANCH  15  16
BRANCH  15  20
ATOM     20  C   UNK    1       -9.034   1.536   6.210  0.00  0.00    +0.490 C 
ATOM     21  O   UNK    1       -9.322   0.848   7.175  0.00  0.00    -0.660 OA
ATOM     22  O   UNK    1       -9.294   2.727   6.213  0.00  0.00    -0.620 OA
ENDBRANCH  15  20
ENDBRANCH  14  15
ENDBRANCH  13  14
ENDBRANCH   1  13
TORSDOF 9
ENDMDL
MODEL      203
REMARK  Name = ZINC000084248216
REMARK                            x       y       z     vdW  Elec       q    Type
REMARK                         _______ _______ _______ _____ _____    ______ ____
ROOT
ATOM      1  C   LIG    1        0.628  -2.104  -1.133  0.00  0.00    -0.100 C 
ATOM      2  C   LIG    1       -0.763  -2.770  -1.094  0.00  0.00    +0.270 C 
ATOM      3  N   LIG    1       -0.628  -3.978  -1.946  0.00  0.00    -0.640 NA
ATOM      4  H   LIG    1       -0.178  -4.728  -1.442  0.00  0.00    +0.330 HD
ATOM      5  C   LIG    1        0.209  -3.528  -3.087  0.00  0.00    +0.290 C 
ATOM      6  C   LIG    1        1.509  -2.696  -0.013  0.00  0.00    +0.330 C 
ATOM      7  N   LIG    1        2.131  -3.903  -0.628  0.00  0.00    -0.520 N 
ATOM      8  H   LIG    1        2.965  -4.163  -0.123  0.00  0.00    +0.450 HD
ATOM      9  H   LIG    1        1.479  -4.673  -0.653  0.00  0.00    +0.430 HD
ATOM     10  C   LIG    1        2.473  -3.466  -2.006  0.00  0.00    +0.320 C 
ATOM     11  C   LIG    1        1.273  -2.607  -2.453  0.00  0.00    -0.100 C 
ENDROOT
BRANCH   1  12
ATOM     12  C   LIG    1        0.547  -0.601  -1.067  0.00  0.00    +0.480 C 
ATOM     13  O   LIG    1        1.193   0.003  -0.243  0.00  0.00    -0.470 OA
BRANCH  12  15
ATOM     14  C   LIG    1       -0.271   1.514  -1.800  0.00  0.00    +0.300 C 
ATOM     15  O   LIG    1       -0.242   0.067  -1.922  0.00  0.00    -0.340 OA
ENDBRANCH  12  15
ENDBRANCH   1  12
BRANCH  11  16
ATOM     16  C   LIG    1        1.671  -1.477  -3.368  0.00  0.00    +0.470 C 
ATOM     17  O   LIG    1        1.086  -1.309  -4.411  0.00  0.00    -0.450 OA
BRANCH  16  18
ATOM     18  O   LIG    1        2.676  -0.657  -3.022  0.00  0.00    -0.360 OA
ATOM     19  C   LIG    1        3.005   0.410  -3.951  0.00  0.00    +0.290 C 
ENDBRANCH  16  18
ENDBRANCH  11  16
TORSDOF 4
ENDMDL
MODEL      204
REMARK  Name = ZINC000101135355
REMARK                            x       y       z     vdW  Elec       q    Type
REMARK                         _______ _______ _______ _____ _____    ______ ____
ROOT
ATOM      1  C   ILE A  1       -2.829  -2.579  -0.111  0.00  0.00    +0.510 C 
ATOM      2  N   UNK A  2       -3.486  -2.723   1.058  0.00  0.00    -0.680 N 
ATOM      3  H   UNK A  2       -3.048  -2.491   1.892  0.00  0.00    +0.420 HD
ATOM      4  O   ILE A  1       -3.377  -2.869  -1.153  0.00  0.00    -0.530 OA
ENDROOT
BRANCH   1   5
ATOM      5  CA  ILE A  1       -1.416  -2.058  -0.121  0.00  0.00    +0.180 C 
BRANCH   5   6
ATOM      6  N   ILE A  1       -0.766  -2.431  -1.385  0.00  0.00    -0.620 N 
ATOM      7  H1  ILE A  1       -0.754  -3.436  -1.473  0.00  0.00    +0.440 HD
ATOM      8  H2  ILE A  1        0.181  -2.081  -1.392  0.00  0.00    +0.440 HD
ATOM      9  H3  ILE A  1       -1.278  -2.031  -2.157  0.00  0.00    +0.440 HD
ENDBRANCH   5   6
BRANCH   5  10
ATOM     10  CB  ILE A  1       -1.433  -0.534   0.013  0.00  0.00    -0.010 C 
ATOM     11  CG2 ILE A  1       -2.110  -0.145   1.329  0.00  0.00    +0.070 C 
BRANCH  10  13
ATOM     12  CD1 ILE A  1       -0.019   1.526   0.010  0.00  0.00    +0.040 C 
ATOM     13  CG1 ILE A  1        0.002  -0.004   0.002  0.00  0.00    +0.020 C 
ENDBRANCH  10  13
ENDBRANCH   5  10
ENDBRANCH   1   5
BRANCH   2  14
ATOM     14  C   UNK A  2       -4.860  -3.230   1.068  0.00  0.00    +0.260 C 
BRANCH  14  15
ATOM     15  C   UNK A  2       -5.151  -3.867   2.403  0.00  0.00    +0.530 C 
ATOM     16  O   UNK A  2       -4.294  -3.895   3.261  0.00  0.00    -0.530 OA
ATOM     17  N   UNK A  2       -6.362  -4.406   2.643  0.00  0.00    -0.840 N 
ATOM     18  H   UNK A  2       -6.549  -4.816   3.502  0.00  0.00    +0.410 HD
ATOM     19  H   UNK A  2       -7.048  -4.384   1.957  0.00  0.00    +0.410 HD
ENDBRANCH  14  15
BRANCH  14  20
ATOM     20  C   UNK A  2       -5.833  -2.073   0.833  0.00  0.00    +0.210 C 
BRANCH  20  21
ATOM     21  O   UNK A  2       -5.759  -1.159   1.929  0.00  0.00    -0.570 OA
ATOM     22  H   UNK A  2       -6.350  -0.398   1.847  0.00  0.00    +0.390 HD
ENDBRANCH  20  21
ENDBRANCH  14  20
ENDBRANCH   2  14
TORSDOF 8
ENDMDL
MODEL      205
REMARK  Name = ZINC000019429847
REMARK                            x       y       z     vdW  Elec       q    Type
REMARK                         _______ _______ _______ _____ _____    ______ ____
ROOT
ATOM      1  C   LIG    1        0.021  -2.178  -1.177  0.00  0.00    +0.190 C 
ENDROOT
BRANCH   1   4
ATOM      2  C   LIG    1       -0.018   1.461   0.010  0.00  0.00    +0.320 C 
ATOM      3  N   LIG    1        0.002  -0.004   0.002  0.00  0.00    -0.590 N 
ATOM      4  C   LIG    1        0.000  -0.672  -1.169  0.00  0.00    +0.500 C 
ATOM      5  O   LIG    1       -0.018  -0.060  -2.216  0.00  0.00    -0.520 OA
ATOM      6  C   LIG    1        0.024  -0.743   1.267  0.00  0.00    +0.300 C 
ENDBRANCH   1   4
BRANCH   1   7
ATOM      7  N   LIG    1       -0.459  -2.667  -2.477  0.00  0.00    -0.620 N 
ATOM      8  H   LIG    1       -0.445  -3.676  -2.482  0.00  0.00    +0.440 HD
ATOM      9  H   LIG    1        0.141  -2.319  -3.209  0.00  0.00    +0.450 HD
ATOM     10  H   LIG    1       -1.402  -2.343  -2.631  0.00  0.00    +0.440 HD
ENDBRANCH   1   7
BRANCH   1  11
ATOM     11  C   LIG    1        1.450  -2.670  -0.943  0.00  0.00    +0.110 C 
BRANCH  11  12
ATOM     12  C   LIG    1        1.452  -4.196  -0.827  0.00  0.00    -0.380 C 
BRANCH  12  13
ATOM     13  S   LIG    1        3.147  -4.779  -0.549  0.00  0.00    +2.430 S 
ATOM     14  O   LIG    1        3.587  -4.306   0.716  0.00  0.00    -0.920 OA
ATOM     15  O   LIG    1        3.921  -4.490  -1.706  0.00  0.00    -0.920 OA
ATOM     16  C   LIG    1        2.913  -6.575  -0.445  0.00  0.00    -0.250 C 
ENDBRANCH  12  13
ENDBRANCH  11  12
ENDBRANCH   1  11
TORSDOF 5
ENDMDL
MODEL      206
REMARK  Name = ZINC000095495932
REMARK                            x       y       z     vdW  Elec       q    Type
REMARK                         _______ _______ _______ _____ _____    ______ ____
ROOT
ATOM      1  C   LIG    1       -4.952   1.353   3.636  0.00  0.00    +0.300 C 
ATOM      2  O   LIG    1       -4.384   0.780   4.816  0.00  0.00    -0.380 OA
ATOM      3  C   LIG    1       -5.056   1.144   6.023  0.00  0.00    +0.200 C 
ATOM      4  C   LIG    1       -6.506   0.656   5.965  0.00  0.00    +0.180 C 
ATOM      5  C   LIG    1       -7.191   1.259   4.734  0.00  0.00    +0.160 C 
ATOM      6  C   LIG    1       -6.397   0.874   3.482  0.00  0.00    +0.150 C 
ENDROOT
BRANCH   5   7
ATOM      7  O   LIG    1       -8.523   0.752   4.633  0.00  0.00    -0.550 OA
ATOM      8  H   LIG    1       -9.017   1.093   3.874  0.00  0.00    +0.400 HD
ENDBRANCH   5   7
BRANCH   4   9
ATOM      9  O   LIG    1       -6.527  -0.770   5.874  0.00  0.00    -0.550 OA
ATOM     10  H   LIG    1       -7.416  -1.149   5.833  0.00  0.00    +0.390 HD
ENDBRANCH   4   9
BRANCH   6  11
ATOM     11  O   LIG    1       -6.987   1.489   2.335  0.00  0.00    -0.560 OA
ATOM     12  H   LIG    1       -6.534   1.288   1.505  0.00  0.00    +0.390 HD
ENDBRANCH   6  11
BRANCH   1  13
ATOM     13  O   LIG    1       -4.191   0.948   2.496  0.00  0.00    -0.360 OA
BRANCH  13  14
ATOM     14  C   LIG    1       -2.851   1.442   2.486  0.00  0.00    +0.200 C 
BRANCH  14  15
ATOM     15  C   LIG    1       -2.135   0.949   1.227  0.00  0.00    +0.050 C 
BRANCH  15  16
ATOM     16  C   LIG    1       -0.699   1.479   1.216  0.00  0.00    +0.280 C 
BRANCH  16  17
ATOM     17  N   LIG    1       -0.012   1.005   0.008  0.00  0.00    -0.640 N 
ATOM     18  H   LIG    1       -0.500   1.339  -0.810  0.00  0.00    +0.440 HD
ATOM     19  H   LIG    1        0.935   1.354   0.000  0.00  0.00    +0.440 HD
ATOM     20  H   LIG    1        0.002  -0.004   0.002  0.00  0.00    +0.440 HD
ENDBRANCH  16  17
ENDBRANCH  15  16
ENDBRANCH  14  15
ENDBRANCH  13  14
ENDBRANCH   1  13
BRANCH   3  21
ATOM     21  C   LIG    1       -4.348   0.499   7.216  0.00  0.00    +0.230 C 
BRANCH  21  22
ATOM     22  O   LIG    1       -3.031   1.041   7.338  0.00  0.00    -0.570 OA
ATOM     23  H   LIG    1       -2.523   0.677   8.076  0.00  0.00    +0.390 HD
ENDBRANCH  21  22
ENDBRANCH   3  21
TORSDOF 10
ENDMDL
MODEL      207
REMARK  Name = ZINC000019429848
REMARK                            x       y       z     vdW  Elec       q    Type
REMARK                         _______ _______ _______ _____ _____    ______ ____
ROOT
ATOM      1  C   LIG    1        0.021  -2.178  -1.177  0.00  0.00    +0.190 C 
ENDROOT
BRANCH   1   4
ATOM      2  C   LIG    1       -0.018   1.461   0.010  0.00  0.00    +0.320 C 
ATOM      3  N   LIG    1        0.002  -0.004   0.002  0.00  0.00    -0.590 N 
ATOM      4  C   LIG    1        0.000  -0.672  -1.169  0.00  0.00    +0.500 C 
ATOM      5  O   LIG    1       -0.018  -0.060  -2.216  0.00  0.00    -0.520 OA
ATOM      6  C   LIG    1        0.024  -0.743   1.267  0.00  0.00    +0.300 C 
ENDBRANCH   1   4
BRANCH   1   7
ATOM      7  N   LIG    1        0.488  -2.655  -2.486  0.00  0.00    -0.620 N 
ATOM      8  H   LIG    1        1.419  -2.305  -2.658  0.00  0.00    +0.440 HD
ATOM      9  H   LIG    1       -0.135  -2.323  -3.207  0.00  0.00    +0.450 HD
ATOM     10  H   LIG    1        0.502  -3.663  -2.491  0.00  0.00    +0.440 HD
ENDBRANCH   1   7
BRANCH   1  11
ATOM     11  C   LIG    1       -1.391  -2.709  -0.916  0.00  0.00    +0.110 C 
BRANCH  11  12
ATOM     12  C   LIG    1       -1.349  -4.234  -0.800  0.00  0.00    -0.380 C 
BRANCH  12  13
ATOM     13  S   LIG    1       -3.022  -4.863  -0.491  0.00  0.00    +2.430 S 
ATOM     14  O   LIG    1       -3.825  -4.595  -1.632  0.00  0.00    -0.920 OA
ATOM     15  O   LIG    1       -3.450  -4.402   0.783  0.00  0.00    -0.920 OA
ATOM     16  C   LIG    1       -2.737  -6.652  -0.392  0.00  0.00    -0.250 C 
ENDBRANCH  12  13
ENDBRANCH  11  12
ENDBRANCH   1  11
TORSDOF 5
ENDMDL
MODEL      208
REMARK  Name = ZINC000000485643
REMARK                            x       y       z     vdW  Elec       q    Type
REMARK                         _______ _______ _______ _____ _____    ______ ____
ROOT
ATOM      1  C   LIG    1       -0.018   1.461   0.010  0.00  0.00    +0.380 C 
ATOM      2  N   LIG    1        0.002  -0.004   0.002  0.00  0.00    -0.400 N 
ATOM      3  C   LIG    1        0.009  -0.800  -1.085  0.00  0.00    +0.510 A 
ATOM      4  N   LIG    1        0.028  -2.054  -0.714  0.00  0.00    -0.500 NA
ATOM      5  C   LIG    1        0.034  -2.132   0.619  0.00  0.00    +0.290 A 
ATOM      6  N   LIG    1        0.053  -3.184   1.520  0.00  0.00    -0.510 N 
ATOM      7  C   LIG    1        0.052  -2.939   2.844  0.00  0.00    +0.720 A 
ATOM      8  O   LIG    1        0.064  -3.876   3.620  0.00  0.00    -0.530 OA
ATOM      9  N   LIG    1        0.042  -1.686   3.330  0.00  0.00    -0.650 N 
ATOM     10  H   LIG    1        0.045  -1.546   4.290  0.00  0.00    +0.450 HD
ATOM     11  C   LIG    1        0.028  -0.620   2.503  0.00  0.00    +0.590 A 
ATOM     12  O   LIG    1        0.019   0.510   2.955  0.00  0.00    -0.490 OA
ATOM     13  C   LIG    1        0.024  -0.831   1.107  0.00  0.00    -0.140 A 
ENDROOT
BRANCH   6  14
ATOM     14  C   LIG    1        0.063  -4.565   1.032  0.00  0.00    +0.340 C 
BRANCH  14  15
ATOM     15  C   LIG    1       -1.375  -5.058   0.863  0.00  0.00    +0.250 C 
BRANCH  15  16
ATOM     16  N   LIG    1       -1.365  -6.442   0.373  0.00  0.00    -0.380 N 
ATOM     17  C   LIG    1       -0.780  -6.481  -0.974  0.00  0.00    +0.330 C 
ATOM     18  C   LIG    1       -2.740  -6.955   0.325  0.00  0.00    +0.320 C 
ATOM     19  H   LIG    1       -0.814  -7.015   0.995  0.00  0.00    +0.430 HD
ENDBRANCH  15  16
ENDBRANCH  14  15
ENDBRANCH   6  14
TORSDOF 3
ENDMDL
MODEL      209
REMARK  Name = ZINC000141935332
REMARK                            x       y       z     vdW  Elec       q    Type
REMARK                         _______ _______ _______ _____ _____    ______ ____
ROOT
ATOM      1  N   LIG    1       -2.147  -0.044  -1.108  0.00  0.00    -0.370 N 
ATOM      2  C   LIG    1       -2.167   1.424  -1.100  0.00  0.00    +0.290 C 
ATOM      3  C   LIG    1       -2.771   1.937  -2.409  0.00  0.00    +0.150 C 
ATOM      4  C   LIG    1       -4.200   1.406  -2.547  0.00  0.00    +0.120 C 
ATOM      5  C   LIG    1       -4.175  -0.124  -2.479  0.00  0.00    +0.220 C 
ATOM      6  C   LIG    1       -3.520  -0.559  -1.167  0.00  0.00    +0.200 C 
ATOM      7  H   LIG    1       -1.632  -0.368  -1.913  0.00  0.00    +0.430 HD
ENDROOT
BRANCH   5   8
ATOM      8  O   LIG    1       -3.427  -0.638  -3.583  0.00  0.00    -0.540 OA
ATOM      9  H   LIG    1       -3.785  -0.397  -4.448  0.00  0.00    +0.400 HD
ENDBRANCH   5   8
BRANCH   4  10
ATOM     10  O   LIG    1       -5.006   1.919  -1.484  0.00  0.00    -0.550 OA
ATOM     11  H   LIG    1       -5.061   2.885  -1.464  0.00  0.00    +0.400 HD
ENDBRANCH   4  10
BRANCH   3  12
ATOM     12  O   LIG    1       -2.790   3.365  -2.398  0.00  0.00    -0.550 OA
ATOM     13  H   LIG    1       -3.161   3.760  -3.199  0.00  0.00    +0.400 HD
ENDBRANCH   3  12
BRANCH   1  14
ATOM     14  C   LIG    1       -1.495  -0.530   0.116  0.00  0.00    +0.280 C 
BRANCH  14  15
ATOM     15  C   LIG    1       -0.016  -0.140   0.096  0.00  0.00    +0.220 C 
BRANCH  15  16
ATOM     16  O   LIG    1        0.107   1.274   0.266  0.00  0.00    -0.570 OA
ATOM     17  H   LIG    1        1.020   1.592   0.263  0.00  0.00    +0.410 HD
ENDBRANCH  15  16
ENDBRANCH  14  15
ENDBRANCH   1  14
BRANCH   6  18
ATOM     18  C   LIG    1       -3.491  -2.087  -1.094  0.00  0.00    +0.210 C 
BRANCH  18  19
ATOM     19  O   LIG    1       -2.798  -2.606  -2.231  0.00  0.00    -0.550 OA
ATOM     20  H   LIG    1       -2.741  -3.571  -2.250  0.00  0.00    +0.400 HD
ENDBRANCH  18  19
ENDBRANCH   6  18
TORSDOF 8
ENDMDL
MODEL      210
REMARK  Name = ZINC000003852580
REMARK                            x       y       z     vdW  Elec       q    Type
REMARK                         _______ _______ _______ _____ _____    ______ ____
ROOT
ATOM      1  C   LIG    1        0.002  -0.004   0.002  0.00  0.00    +0.510 A 
ATOM      2  C   LIG    1       -1.195  -0.739   0.004  0.00  0.00    -0.110 A 
ATOM      3  N   LIG    1       -2.511  -0.417   0.012  0.00  0.00    -0.460 NA
ATOM      4  C   LIG    1       -3.224  -1.506   0.010  0.00  0.00    +0.470 A 
ATOM      5  N   LIG    1       -2.407  -2.597  -0.001  0.00  0.00    -0.480 N 
ATOM      6  C   LIG    1       -1.113  -2.142  -0.005  0.00  0.00    +0.300 A 
ATOM      7  N   LIG    1        0.085  -2.718  -0.015  0.00  0.00    -0.570 NA
ATOM      8  C   LIG    1        1.181  -1.989  -0.016  0.00  0.00    +0.580 A 
ATOM      9  N   LIG    1        1.153  -0.668  -0.013  0.00  0.00    -0.590 NA
ENDROOT
BRANCH   1  10
ATOM     10  N   LIG    1       -0.017   1.380   0.010  0.00  0.00    -0.810 N 
ATOM     11  H   LIG    1       -0.863   1.853   0.016  0.00  0.00    +0.420 HD
ATOM     12  H   LIG    1        0.817   1.876   0.004  0.00  0.00    +0.410 HD
ENDBRANCH   1  10
BRANCH   5  13
ATOM     13  C   LIG    1       -2.833  -3.999  -0.007  0.00  0.00    +0.350 C 
BRANCH  13  14
ATOM     14  C   LIG    1       -2.853  -4.532   1.427  0.00  0.00    +0.060 C 
BRANCH  14  15
ATOM     15  C   LIG    1       -3.291  -5.974   1.420  0.00  0.00    +0.530 C 
ATOM     16  N   LIG    1       -3.384  -6.655   2.579  0.00  0.00    -0.740 N 
ATOM     17  H   LIG    1       -3.168  -6.218   3.418  0.00  0.00    +0.410 HD
ATOM     18  O   LIG    1       -3.561  -6.521   0.372  0.00  0.00    -0.520 OA
BRANCH  16  19
ATOM     19  C   LIG    1       -3.810  -8.057   2.573  0.00  0.00    +0.270 C 
BRANCH  19  20
ATOM     20  C   LIG    1       -3.830  -8.591   4.007  0.00  0.00    +0.260 C 
BRANCH  20  21
ATOM     21  N   LIG    1       -4.257  -9.996   4.001  0.00  0.00    -0.630 N 
ATOM     22  H   LIG    1       -3.612 -10.541   3.448  0.00  0.00    +0.440 HD
ATOM     23  H   LIG    1       -5.182 -10.065   3.603  0.00  0.00    +0.440 HD
ATOM     24  H   LIG    1       -4.271 -10.348   4.947  0.00  0.00    +0.450 HD
ENDBRANCH  20  21
ENDBRANCH  19  20
ENDBRANCH  16  19
ENDBRANCH  14  15
ENDBRANCH  13  14
ENDBRANCH   5  13
TORSDOF 7
ENDMDL
MODEL      211
REMARK  Name = ZINC000037243141
REMARK                            x       y       z     vdW  Elec       q    Type
REMARK                         _______ _______ _______ _____ _____    ______ ____
ROOT
ATOM      1  C   LIG    1       -2.244   5.285   3.881  0.00  0.00    +0.510 C 
ATOM      2  N   LIG    1       -2.383   6.607   4.103  0.00  0.00    -0.690 N 
ATOM      3  H   LIG    1       -2.029   7.246   3.465  0.00  0.00    +0.420 HD
ATOM      4  O   LIG    1       -2.687   4.486   4.680  0.00  0.00    -0.510 OA
ENDROOT
BRANCH   1   7
ATOM      5  N   LIG    1       -1.406   3.481   2.430  0.00  0.00    -0.710 N 
ATOM      6  H   LIG    1       -1.760   2.842   3.068  0.00  0.00    +0.420 HD
ATOM      7  C   LIG    1       -1.545   4.803   2.652  0.00  0.00    +0.520 C 
ATOM      8  O   LIG    1       -1.102   5.602   1.853  0.00  0.00    -0.500 OA
BRANCH   5   9
ATOM      9  C   LIG    1       -0.720   3.008   1.225  0.00  0.00    +0.290 C 
BRANCH   9  10
ATOM     10  C   LIG    1       -0.699   1.479   1.216  0.00  0.00    +0.260 C 
BRANCH  10  11
ATOM     11  N   LIG    1       -0.012   1.005   0.008  0.00  0.00    -0.630 N 
ATOM     12  H   LIG    1       -0.500   1.339  -0.810  0.00  0.00    +0.440 HD
ATOM     13  H   LIG    1        0.935   1.354   0.000  0.00  0.00    +0.440 HD
ATOM     14  H   LIG    1        0.002  -0.004   0.002  0.00  0.00    +0.450 HD
ENDBRANCH  10  11
ENDBRANCH   9  10
ENDBRANCH   5   9
ENDBRANCH   1   7
BRANCH   2  15
ATOM     15  C   LIG    1       -3.069   7.080   5.308  0.00  0.00    +0.370 C 
BRANCH  15  16
ATOM     16  C   LIG    1       -3.089   8.586   5.317  0.00  0.00    +0.090 A 
ATOM     17  C   LIG    1       -4.194   9.257   4.828  0.00  0.00    -0.010 A 
ATOM     18  C   LIG    1       -4.204  10.644   4.841  0.00  0.00    +0.070 A 
ATOM     19  C   LIG    1       -3.096  11.306   5.346  0.00  0.00    -0.020 A 
ATOM     20  C   LIG    1       -2.026  10.568   5.818  0.00  0.00    +0.260 A 
ATOM     21  N   LIG    1       -2.055   9.250   5.795  0.00  0.00    -0.470 NA
ENDBRANCH  15  16
ENDBRANCH   2  15
TORSDOF 6
ENDMDL
MODEL      212
REMARK  Name = ZINC000004761049
REMARK                            x       y       z     vdW  Elec       q    Type
REMARK                         _______ _______ _______ _____ _____    ______ ____
ROOT
ATOM      1  C   LIG    1       -2.829  -2.579  -0.111  0.00  0.00    +0.510 C 
ATOM      2  N   LIG    1       -3.486  -2.723   1.058  0.00  0.00    -0.690 N 
ATOM      3  H   LIG    1       -3.048  -2.491   1.892  0.00  0.00    +0.420 HD
ATOM      4  O   LIG    1       -3.377  -2.869  -1.153  0.00  0.00    -0.520 OA
ENDROOT
BRANCH   1   5
ATOM      5  C   LIG    1       -1.416  -2.058  -0.121  0.00  0.00    +0.180 C 
BRANCH   5   6
ATOM      6  N   LIG    1       -0.766  -2.431  -1.385  0.00  0.00    -0.620 N 
ATOM      7  H   LIG    1       -0.754  -3.436  -1.473  0.00  0.00    +0.440 HD
ATOM      8  H   LIG    1        0.181  -2.081  -1.392  0.00  0.00    +0.440 HD
ATOM      9  H   LIG    1       -1.278  -2.031  -2.157  0.00  0.00    +0.440 HD
ENDBRANCH   5   6
BRANCH   5  10
ATOM     10  C   LIG    1       -1.433  -0.534   0.013  0.00  0.00    +0.000 C 
ATOM     11  C   LIG    1       -2.110  -0.145   1.329  0.00  0.00    +0.070 C 
BRANCH  10  13
ATOM     12  C   LIG    1       -0.019   1.526   0.010  0.00  0.00    +0.040 C 
ATOM     13  C   LIG    1        0.002  -0.004   0.002  0.00  0.00    +0.020 C 
ENDBRANCH  10  13
ENDBRANCH   5  10
ENDBRANCH   1   5
BRANCH   2  14
ATOM     14  C   LIG    1       -4.860  -3.230   1.068  0.00  0.00    +0.330 C 
BRANCH  14  15
ATOM     15  C   LIG    1       -5.361  -3.296   2.488  0.00  0.00    +0.510 C 
ATOM     16  N   LIG    1       -6.609  -3.736   2.743  0.00  0.00    -0.710 N 
ATOM     17  H   LIG    1       -7.185  -4.010   2.013  0.00  0.00    +0.420 HD
ATOM     18  O   LIG    1       -4.640  -2.953   3.401  0.00  0.00    -0.540 OA
BRANCH  16  19
ATOM     19  C   LIG    1       -7.096  -3.799   4.123  0.00  0.00    +0.320 C 
BRANCH  19  20
ATOM     20  C   LIG    1       -8.509  -4.321   4.134  0.00  0.00    +0.510 C 
ATOM     21  O   LIG    1       -9.057  -4.611   3.091  0.00  0.00    -0.540 OA
ATOM     22  N   LIG    1       -9.166  -4.465   5.302  0.00  0.00    -0.840 N 
ATOM     23  H   LIG    1      -10.076  -4.801   5.309  0.00  0.00    +0.410 HD
ATOM     24  H   LIG    1       -8.728  -4.233   6.136  0.00  0.00    +0.410 HD
ENDBRANCH  19  20
ENDBRANCH  16  19
ENDBRANCH  14  15
ENDBRANCH   2  14
TORSDOF 8
ENDMDL
MODEL      213
REMARK  Name = ZINC000238686803
REMARK                            x       y       z     vdW  Elec       q    Type
REMARK                         _______ _______ _______ _____ _____    ______ ____
ROOT
ATOM      1  C   LIG    1       -0.898   1.290   4.714  0.00  0.00    +0.280 C 
ENDROOT
BRANCH   1   2
ATOM      2  C   LIG    1        0.488   1.027   5.244  0.00  0.00    +0.200 A 
ATOM      3  C   LIG    1        1.341   2.053   5.451  0.00  0.00    -0.120 A 
ATOM      4  C   LIG    1        2.638   1.781   5.949  0.00  0.00    +0.550 A 
ATOM      5  N   LIG    1        2.994   0.506   6.206  0.00  0.00    -0.660 N 
ATOM      6  H   LIG    1        3.881   0.311   6.547  0.00  0.00    +0.440 HD
ATOM      7  C   LIG    1        2.124  -0.498   5.990  0.00  0.00    +0.700 A 
ATOM      8  O   LIG    1        2.458  -1.643   6.226  0.00  0.00    -0.530 OA
ATOM      9  O   LIG    1        3.425   2.690   6.145  0.00  0.00    -0.500 OA
ATOM     10  N   LIG    1        0.886  -0.252   5.522  0.00  0.00    -0.630 N 
ATOM     11  H   LIG    1        0.274  -0.989   5.373  0.00  0.00    +0.440 HD
ENDBRANCH   1   2
BRANCH   1  15
ATOM     12  C   LIG    1       -0.692   1.749   1.242  0.00  0.00    +0.150 C 
ATOM     13  C   LIG    1       -2.094   1.085   1.274  0.00  0.00    +0.060 C 
ATOM     14  C   LIG    1       -2.359   0.989   2.797  0.00  0.00    +0.220 C 
ATOM     15  N   LIG    1       -1.043   0.670   3.390  0.00  0.00    -0.520 NA
ATOM     16  C   LIG    1        0.014   1.140   2.471  0.00  0.00    +0.210 C 
BRANCH  12  17
ATOM     17  N   LIG    1        0.021   1.397   0.006  0.00  0.00    -0.630 N 
ATOM     18  H   LIG    1       -0.477   1.770  -0.788  0.00  0.00    +0.440 HD
ATOM     19  H   LIG    1        0.952   1.786   0.033  0.00  0.00    +0.440 HD
ATOM     20  H   LIG    1        0.078   0.393  -0.074  0.00  0.00    +0.440 HD
ENDBRANCH  12  17
ENDBRANCH   1  15
TORSDOF 3
ENDMDL
MODEL      214
REMARK  Name = ZINC000203488208
REMARK                            x       y       z     vdW  Elec       q    Type
REMARK                         _______ _______ _______ _____ _____    ______ ____
ROOT
ATOM      1  C   LIG    1       -1.407  -0.245   0.338  0.00  0.00    +0.190 C 
ATOM      2  C   LIG    1       -1.612  -1.730   0.651  0.00  0.00    +0.360 C 
ATOM      3  O   LIG    1       -1.305  -2.507  -0.508  0.00  0.00    -0.380 OA
ATOM      4  C   LIG    1       -2.131  -2.220  -1.638  0.00  0.00    +0.160 C 
ATOM      5  C   LIG    1       -1.947  -0.755  -2.044  0.00  0.00    +0.110 C 
ATOM      6  C   LIG    1       -2.291   0.145  -0.851  0.00  0.00    +0.220 C 
ENDROOT
BRANCH   1   8
ATOM      7  C   LIG    1        0.201   1.424  -0.279  0.00  0.00    +0.330 C 
ATOM      8  N   LIG    1        0.002  -0.004   0.002  0.00  0.00    -0.380 N 
ATOM      9  C   LIG    1        0.850  -0.404   1.133  0.00  0.00    +0.330 C 
ATOM     10  H   LIG    1        0.251  -0.545  -0.813  0.00  0.00    +0.420 HD
ENDBRANCH   1   8
BRANCH   5  11
ATOM     11  O   LIG    1       -2.814  -0.451  -3.138  0.00  0.00    -0.540 OA
ATOM     12  H   LIG    1       -2.655  -0.987  -3.927  0.00  0.00    +0.400 HD
ENDBRANCH   5  11
BRANCH   2  13
ATOM     13  O   LIG    1       -0.749  -2.113   1.724  0.00  0.00    -0.540 OA
ATOM     14  H   LIG    1       -0.826  -3.044   1.977  0.00  0.00    +0.410 HD
ENDBRANCH   2  13
BRANCH   6  15
ATOM     15  O   LIG    1       -2.054   1.510  -1.199  0.00  0.00    -0.550 OA
ATOM     16  H   LIG    1       -2.577   1.821  -1.951  0.00  0.00    +0.410 HD
ENDBRANCH   6  15
BRANCH   4  17
ATOM     17  C   LIG    1       -1.732  -3.127  -2.805  0.00  0.00    +0.210 C 
BRANCH  17  18
ATOM     18  O   LIG    1       -2.012  -4.487  -2.468  0.00  0.00    -0.560 OA
ATOM     19  H   LIG    1       -1.784  -5.119  -3.163  0.00  0.00    +0.400 HD
ENDBRANCH  17  18
ENDBRANCH   4  17
TORSDOF 6
ENDMDL
MODEL      215
REMARK  Name = ZINC000242688552
REMARK                            x       y       z     vdW  Elec       q    Type
REMARK                         _______ _______ _______ _____ _____    ______ ____
ROOT
ATOM      1  C   LIG    1        0.582  -1.928  -1.115  0.00  0.00    +0.180 C 
ATOM      2  C   LIG    1        1.317  -2.553  -2.304  0.00  0.00    +0.370 C 
ATOM      3  O   LIG    1        0.702  -2.125  -3.521  0.00  0.00    -0.370 OA
ATOM      4  C   LIG    1       -0.668  -2.512  -3.650  0.00  0.00    +0.170 C 
ATOM      5  C   LIG    1       -1.483  -1.886  -2.515  0.00  0.00    +0.130 C 
ATOM      6  C   LIG    1       -0.896  -2.328  -1.169  0.00  0.00    +0.210 C 
ENDROOT
BRANCH   1   7
ATOM      7  N   LIG    1        0.697  -0.465  -1.180  0.00  0.00    -0.360 N 
ATOM      8  H   LIG    1        1.593  -0.182  -0.813  0.00  0.00    +0.420 HD
BRANCH   7  10
ATOM      9  C   LIG    1        1.974   0.232  -3.150  0.00  0.00    +0.040 C 
ATOM     10  C   LIG    1        0.579  -0.026  -2.577  0.00  0.00    +0.270 C 
ENDBRANCH   7  10
BRANCH   7  11
ATOM     11  C   LIG    1       -0.374   0.146  -0.382  0.00  0.00    +0.260 C 
ATOM     12  C   LIG    1       -0.166  -0.192   1.095  0.00  0.00    +0.070 C 
ENDBRANCH   7  11
ENDBRANCH   1   7
BRANCH   5  13
ATOM     13  O   LIG    1       -1.427  -0.462  -2.616  0.00  0.00    -0.550 OA
ATOM     14  H   LIG    1       -1.852  -0.106  -3.409  0.00  0.00    +0.400 HD
ENDBRANCH   5  13
BRANCH   2  15
ATOM     15  O   LIG    1        2.684  -2.138  -2.290  0.00  0.00    -0.530 OA
ATOM     16  H   LIG    1        3.193  -2.436  -3.056  0.00  0.00    +0.420 HD
ENDBRANCH   2  15
BRANCH   6  17
ATOM     17  O   LIG    1       -1.014  -3.747  -1.040  0.00  0.00    -0.540 OA
ATOM     18  H   LIG    1       -1.925  -4.070  -1.073  0.00  0.00    +0.410 HD
ENDBRANCH   6  17
BRANCH   4  19
ATOM     19  C   LIG    1       -1.211  -2.027  -4.995  0.00  0.00    +0.220 C 
BRANCH  19  20
ATOM     20  O   LIG    1       -0.527  -2.699  -6.055  0.00  0.00    -0.560 OA
ATOM     21  H   LIG    1       -0.820  -2.440  -6.939  0.00  0.00    +0.400 HD
ENDBRANCH  19  20
ENDBRANCH   4  19
TORSDOF 8
ENDMDL
MODEL      216
REMARK  Name = ZINC000242688550
REMARK                            x       y       z     vdW  Elec       q    Type
REMARK                         _______ _______ _______ _____ _____    ______ ____
ROOT
ATOM      1  C   LIG    1        1.034  -1.828  -1.160  0.00  0.00    +0.190 C 
ATOM      2  C   LIG    1        1.830  -2.237  -2.402  0.00  0.00    +0.360 C 
ATOM      3  O   LIG    1        1.048  -1.985  -3.571  0.00  0.00    -0.360 OA
ATOM      4  C   LIG    1       -0.177  -2.718  -3.623  0.00  0.00    +0.150 C 
ATOM      5  C   LIG    1       -1.054  -2.329  -2.430  0.00  0.00    +0.120 C 
ATOM      6  C   LIG    1       -0.288  -2.602  -1.131  0.00  0.00    +0.220 C 
ENDROOT
BRANCH   1   7
ATOM      7  N   LIG    1        0.757  -0.386  -1.206  0.00  0.00    -0.360 N 
ATOM      8  H   LIG    1        1.628   0.123  -1.210  0.00  0.00    +0.430 HD
BRANCH   7  10
ATOM      9  C   LIG    1        0.381   1.327  -2.916  0.00  0.00    +0.070 C 
ATOM     10  C   LIG    1        0.000  -0.072  -2.426  0.00  0.00    +0.210 C 
ENDBRANCH   7  10
BRANCH   7  11
ATOM     11  C   LIG    1       -0.031  -0.001  -0.028  0.00  0.00    +0.260 C 
ATOM     12  C   LIG    1        0.693  -0.454   1.241  0.00  0.00    +0.070 C 
ENDBRANCH   7  11
ENDBRANCH   1   7
BRANCH   5  13
ATOM     13  O   LIG    1       -2.256  -3.102  -2.449  0.00  0.00    -0.540 OA
ATOM     14  H   LIG    1       -2.789  -2.980  -3.246  0.00  0.00    +0.400 HD
ENDBRANCH   5  13
BRANCH   2  15
ATOM     15  O   LIG    1        3.039  -1.478  -2.464  0.00  0.00    -0.540 OA
ATOM     16  H   LIG    1        3.561  -1.634  -3.262  0.00  0.00    +0.420 HD
ENDBRANCH   2  15
BRANCH   6  17
ATOM     17  O   LIG    1       -1.072  -2.175  -0.015  0.00  0.00    -0.540 OA
ATOM     18  H   LIG    1       -1.926  -2.622   0.059  0.00  0.00    +0.410 HD
ENDBRANCH   6  17
BRANCH   4  19
ATOM     19  C   LIG    1       -0.912  -2.392  -4.925  0.00  0.00    +0.220 C 
BRANCH  19  20
ATOM     20  O   LIG    1       -0.144  -2.860  -6.036  0.00  0.00    -0.560 OA
ATOM     21  H   LIG    1       -0.550  -2.687  -6.896  0.00  0.00    +0.400 HD
ENDBRANCH  19  20
ENDBRANCH   4  19
TORSDOF 8
ENDMDL
MODEL      217
REMARK  Name = ZINC000242688551
REMARK                            x       y       z     vdW  Elec       q    Type
REMARK                         _______ _______ _______ _____ _____    ______ ____
ROOT
ATOM      1  C   LIG    1        0.762  -1.943  -1.224  0.00  0.00    +0.180 C 
ATOM      2  C   LIG    1        1.547  -2.395  -2.458  0.00  0.00    +0.380 C 
ATOM      3  O   LIG    1        0.859  -1.976  -3.639  0.00  0.00    -0.370 OA
ATOM      4  C   LIG    1       -0.453  -2.527  -3.776  0.00  0.00    +0.170 C 
ATOM      5  C   LIG    1       -1.318  -2.080  -2.595  0.00  0.00    +0.100 C 
ATOM      6  C   LIG    1       -0.654  -2.525  -1.287  0.00  0.00    +0.200 C 
ENDROOT
BRANCH   1   7
ATOM      7  N   LIG    1        0.689  -0.476  -1.199  0.00  0.00    -0.370 N 
ATOM      8  H   LIG    1        1.621  -0.094  -1.143  0.00  0.00    +0.440 HD
BRANCH   7  10
ATOM      9  C   LIG    1        0.624   1.359  -2.819  0.00  0.00    +0.070 C 
ATOM     10  C   LIG    1        0.035   0.003  -2.424  0.00  0.00    +0.220 C 
ENDBRANCH   7  10
BRANCH   7  11
ATOM     11  C   LIG    1       -0.088  -0.045  -0.029  0.00  0.00    +0.240 C 
ATOM     12  C   LIG    1        0.645  -0.458   1.250  0.00  0.00    +0.080 C 
ENDBRANCH   7  11
ENDBRANCH   1   7
BRANCH   5  13
ATOM     13  O   LIG    1       -2.613  -2.675  -2.700  0.00  0.00    -0.540 OA
ATOM     14  H   LIG    1       -3.090  -2.439  -3.507  0.00  0.00    +0.400 HD
ENDBRANCH   5  13
BRANCH   2  15
ATOM     15  O   LIG    1        2.851  -1.811  -2.434  0.00  0.00    -0.540 OA
ATOM     16  H   LIG    1        3.378  -1.992  -3.224  0.00  0.00    +0.420 HD
ENDBRANCH   2  15
BRANCH   6  17
ATOM     17  O   LIG    1       -0.589  -3.952  -1.245  0.00  0.00    -0.540 OA
ATOM     18  H   LIG    1       -1.451  -4.387  -1.288  0.00  0.00    +0.410 HD
ENDBRANCH   6  17
BRANCH   4  19
ATOM     19  C   LIG    1       -1.079  -2.034  -5.082  0.00  0.00    +0.210 C 
BRANCH  19  20
ATOM     20  O   LIG    1       -0.336  -2.547  -6.190  0.00  0.00    -0.560 OA
ATOM     21  H   LIG    1       -0.677  -2.275  -7.053  0.00  0.00    +0.400 HD
ENDBRANCH  19  20
ENDBRANCH   4  19
TORSDOF 8
ENDMDL
MODEL      218
REMARK  Name = ZINC000095908509
REMARK                            x       y       z     vdW  Elec       q    Type
REMARK                         _______ _______ _______ _____ _____    ______ ____
ROOT
ATOM      1  S   LIG    1        0.026  -0.329   2.771  0.00  0.00    +2.560 S 
ATOM      2  O   LIG    1       -0.567  -1.422   3.458  0.00  0.00    -0.860 OA
ATOM      3  O   LIG    1       -0.590   0.952   2.761  0.00  0.00    -0.900 OA
ENDROOT
BRANCH   1   9
ATOM      4  C   LIG    1       -0.018   1.461   0.010  0.00  0.00    +0.360 C 
ATOM      5  N   LIG    1        0.002  -0.004   0.002  0.00  0.00    -0.430 N 
ATOM      6  C   LIG    1        0.009  -0.813  -1.085  0.00  0.00    +0.450 A 
ATOM      7  N   LIG    1        0.027  -2.044  -0.652  0.00  0.00    -0.280 NA
ATOM      8  N   LIG    1        0.032  -2.051   0.634  0.00  0.00    -0.170 NA
ATOM      9  C   LIG    1        0.024  -0.825   1.080  0.00  0.00    -0.390 A 
ENDBRANCH   1   9
BRANCH   1  10
ATOM     10  C   LIG    1        1.784  -0.186   3.197  0.00  0.00    -0.470 C 
ATOM     11  C   LIG    1        2.412   1.161   2.795  0.00  0.00    +0.370 C 
ATOM     12  N   LIG    1        3.093   1.122   4.108  0.00  0.00    -0.520 N 
ATOM     13  H   LIG    1        3.127   2.023   4.561  0.00  0.00    +0.440 HD
ATOM     14  H   LIG    1        3.996   0.673   4.070  0.00  0.00    +0.450 HD
ATOM     15  C   LIG    1        2.035   0.244   4.654  0.00  0.00    +0.390 C 
ENDBRANCH   1  10
TORSDOF 2
ENDMDL
MODEL      219
REMARK  Name = ZINC000095908510
REMARK                            x       y       z     vdW  Elec       q    Type
REMARK                         _______ _______ _______ _____ _____    ______ ____
ROOT
ATOM      1  S   LIG    1       -2.775  -4.402   0.005  0.00  0.00    +2.430 S 
ATOM      2  O   LIG    1       -2.223  -4.883   1.223  0.00  0.00    -0.890 OA
ATOM      3  O   LIG    1       -2.247  -4.869  -1.228  0.00  0.00    -0.900 OA
ENDROOT
BRANCH   1   4
ATOM      4  C   LIG    1       -4.563  -4.707   0.020  0.00  0.00    -0.490 C 
ATOM      5  C   LIG    1       -5.215  -4.642  -1.373  0.00  0.00    +0.370 C 
ATOM      6  N   LIG    1       -5.988  -5.834  -0.959  0.00  0.00    -0.520 N 
ATOM      7  H   LIG    1       -6.091  -6.512  -1.698  0.00  0.00    +0.430 HD
ATOM      8  H   LIG    1       -6.867  -5.601  -0.521  0.00  0.00    +0.450 HD
ATOM      9  C   LIG    1       -4.937  -6.201   0.016  0.00  0.00    +0.370 C 
ENDBRANCH   1   4
BRANCH   1  10
ATOM     10  C   LIG    1       -2.705  -2.589   0.014  0.00  0.00    -0.300 C 
BRANCH  10  11
ATOM     11  C   LIG    1       -1.244  -2.135   0.003  0.00  0.00    +0.150 C 
BRANCH  11  12
ATOM     12  C   LIG    1       -1.185  -0.630   0.010  0.00  0.00    +0.470 C 
ATOM     13  O   LIG    1       -2.208   0.015   0.023  0.00  0.00    -0.500 OA
BRANCH  12  15
ATOM     14  C   LIG    1       -0.018   1.448   0.010  0.00  0.00    +0.280 C 
ATOM     15  O   LIG    1        0.002  -0.004   0.002  0.00  0.00    -0.350 OA
ENDBRANCH  12  15
ENDBRANCH  11  12
ENDBRANCH  10  11
ENDBRANCH   1  10
TORSDOF 5
ENDMDL
MODEL      220
REMARK  Name = ZINC000095908520
REMARK                            x       y       z     vdW  Elec       q    Type
REMARK                         _______ _______ _______ _____ _____    ______ ____
ROOT
ATOM      1  S   LIG    1        1.520  -2.598  -2.637  0.00  0.00    +2.450 S 
ATOM      2  O   LIG    1        2.873  -2.173  -2.548  0.00  0.00    -0.900 OA
ATOM      3  O   LIG    1        0.738  -2.195  -3.753  0.00  0.00    -0.880 OA
ENDROOT
BRANCH   1   4
ATOM      4  C   LIG    1        1.474  -4.408  -2.522  0.00  0.00    -0.450 C 
ATOM      5  C   LIG    1        2.148  -4.879  -1.213  0.00  0.00    +0.110 C 
ATOM      6  C   LIG    1        2.917  -6.149  -1.658  0.00  0.00    +0.310 C 
ATOM      7  N   LIG    1        3.406  -5.793  -3.014  0.00  0.00    -0.520 N 
ATOM      8  H   LIG    1        3.607  -6.629  -3.542  0.00  0.00    +0.440 HD
ATOM      9  H   LIG    1        4.231  -5.216  -2.946  0.00  0.00    +0.440 HD
ATOM     10  C   LIG    1        2.305  -5.037  -3.655  0.00  0.00    +0.330 C 
ENDBRANCH   1   4
BRANCH   1  11
ATOM     11  C   LIG    1        0.657  -2.104  -1.120  0.00  0.00    -0.280 C 
BRANCH  11  12
ATOM     12  C   LIG    1        0.598  -0.600  -1.043  0.00  0.00    +0.490 C 
ATOM     13  O   LIG    1        1.088   0.070  -1.921  0.00  0.00    -0.490 OA
BRANCH  12  15
ATOM     14  C   LIG    1       -0.018   1.448   0.010  0.00  0.00    +0.280 C 
ATOM     15  O   LIG    1        0.002  -0.004   0.002  0.00  0.00    -0.340 OA
ENDBRANCH  12  15
ENDBRANCH  11  12
ENDBRANCH   1  11
TORSDOF 4
ENDMDL
MODEL      221
REMARK  Name = ZINC000169676593
REMARK                            x       y       z     vdW  Elec       q    Type
REMARK                         _______ _______ _______ _____ _____    ______ ____
ROOT
ATOM      1  C   LIG    1       -0.018   1.461   0.010  0.00  0.00    +0.320 C 
ATOM      2  N   LIG    1        0.002  -0.004   0.002  0.00  0.00    -0.590 N 
ATOM      3  C   LIG    1       -0.093  -0.689  -1.134  0.00  0.00    +0.530 C 
ATOM      4  C   LIG    1       -0.060  -2.199  -1.006  0.00  0.00    -0.250 C 
ATOM      5  S   LIG    1        0.614  -2.443   0.685  0.00  0.00    +2.400 S 
ATOM      6  O   LIG    1        2.030  -2.545   0.633  0.00  0.00    -0.880 OA
ATOM      7  O   LIG    1       -0.151  -3.423   1.374  0.00  0.00    -0.880 OA
ATOM      8  O   LIG    1       -0.199  -0.138  -2.209  0.00  0.00    -0.470 OA
ATOM      9  C   LIG    1        0.133  -0.768   1.242  0.00  0.00    -0.320 C 
ATOM     10  C   LIG    1        1.223  -0.190   2.138  0.00  0.00    +0.120 C 
ATOM     11  C   LIG    1        0.773   1.175   2.667  0.00  0.00    +0.270 C 
ATOM     12  N   LIG    1       -0.480   1.022   3.416  0.00  0.00    -0.500 N 
ATOM     13  C   LIG    1       -1.546   0.559   2.519  0.00  0.00    +0.280 C 
ATOM     14  H   LIG    1       -0.742   1.911   3.814  0.00  0.00    +0.440 HD
ATOM     15  H   LIG    1       -0.348   0.349   4.156  0.00  0.00    +0.430 HD
ATOM     16  C   LIG    1       -1.196  -0.833   1.984  0.00  0.00    +0.110 C 
ENDROOT
TORSDOF 0
ENDMDL
MODEL      222
REMARK  Name = ZINC000101368834
REMARK                            x       y       z     vdW  Elec       q    Type
REMARK                         _______ _______ _______ _____ _____    ______ ____
ROOT
ATOM      1  C   LIG    1       -2.841  -2.598   0.015  0.00  0.00    +0.190 C 
ENDROOT
BRANCH   1   2
ATOM      2  O   LIG    1       -3.408  -2.141   1.244  0.00  0.00    -0.530 OA
ATOM      3  H   LIG    1       -2.921  -2.421   2.030  0.00  0.00    +0.380 HD
ENDBRANCH   1   2
BRANCH   1   4
ATOM      4  C   LIG    1       -1.416  -2.058  -0.121  0.00  0.00    +0.180 C 
BRANCH   4   5
ATOM      5  O   LIG    1       -0.594  -2.617   0.906  0.00  0.00    -0.550 OA
ATOM      6  H   LIG    1       -0.893  -2.413   1.803  0.00  0.00    +0.380 HD
ENDBRANCH   4   5
BRANCH   4   7
ATOM      7  C   LIG    1       -1.433  -0.534   0.013  0.00  0.00    +0.200 C 
BRANCH   7   8
ATOM      8  O   LIG    1       -2.066  -0.171   1.242  0.00  0.00    -0.530 OA
ATOM      9  H   LIG    1       -1.626  -0.521   2.029  0.00  0.00    +0.370 HD
ENDBRANCH   7   8
BRANCH   7  10
ATOM     10  C   LIG    1        0.002  -0.004   0.002  0.00  0.00    +0.170 C 
BRANCH  10  11
ATOM     11  O   LIG    1       -0.017   1.425   0.010  0.00  0.00    -0.560 OA
ATOM     12  H   LIG    1        0.861   1.830   0.004  0.00  0.00    +0.390 HD
ENDBRANCH  10  11
ENDBRANCH   7  10
ENDBRANCH   4   7
ENDBRANCH   1   4
BRANCH   1  13
ATOM     13  C   LIG    1       -2.809  -4.128   0.005  0.00  0.00    +0.240 C 
BRANCH  13  14
ATOM     14  N   LIG    1       -4.183  -4.646   0.015  0.00  0.00    -0.500 N 
ATOM     15  H   LIG    1       -4.673  -4.315  -0.802  0.00  0.00    +0.430 HD
ATOM     16  H   LIG    1       -4.658  -4.324   0.845  0.00  0.00    +0.430 HD
BRANCH  14  17
ATOM     17  C   LIG    1       -4.153  -6.115   0.006  0.00  0.00    +0.330 C 
BRANCH  17  18
ATOM     18  C   LIG    1       -5.563  -6.646   0.016  0.00  0.00    -0.170 A 
ATOM     19  C   LIG    1       -6.201  -6.892   1.218  0.00  0.00    +0.040 A 
ATOM     20  C   LIG    1       -7.494  -7.380   1.227  0.00  0.00    +0.030 A 
ATOM     21  C   LIG    1       -8.150  -7.622   0.035  0.00  0.00    +0.060 A 
ATOM     22  C   LIG    1       -7.513  -7.375  -1.167  0.00  0.00    +0.030 A 
ATOM     23  C   LIG    1       -6.221  -6.883  -1.176  0.00  0.00    +0.040 A 
ENDBRANCH  17  18
ENDBRANCH  14  17
ENDBRANCH  13  14
ENDBRANCH   1  13
TORSDOF 11
ENDMDL
MODEL      223
REMARK  Name = ZINC000101368829
REMARK                            x       y       z     vdW  Elec       q    Type
REMARK                         _______ _______ _______ _____ _____    ______ ____
ROOT
ATOM      1  C   LIG    1       -2.851  -2.587  -0.110  0.00  0.00    +0.180 C 
ENDROOT
BRANCH   1   2
ATOM      2  O   LIG    1       -3.483  -2.224   1.119  0.00  0.00    -0.530 OA
ATOM      3  H   LIG    1       -3.044  -2.575   1.906  0.00  0.00    +0.390 HD
ENDBRANCH   1   2
BRANCH   1   4
ATOM      4  C   LIG    1       -1.416  -2.058  -0.121  0.00  0.00    +0.170 C 
BRANCH   4   5
ATOM      5  O   LIG    1       -0.783  -2.420  -1.350  0.00  0.00    -0.540 OA
ATOM      6  H   LIG    1       -1.223  -2.070  -2.137  0.00  0.00    +0.390 HD
ENDBRANCH   4   5
BRANCH   4   7
ATOM      7  C   LIG    1       -1.433  -0.534   0.013  0.00  0.00    +0.190 C 
BRANCH   7   8
ATOM      8  O   LIG    1       -2.066  -0.171   1.242  0.00  0.00    -0.530 OA
ATOM      9  H   LIG    1       -1.626  -0.521   2.029  0.00  0.00    +0.370 HD
ENDBRANCH   7   8
BRANCH   7  10
ATOM     10  C   LIG    1        0.002  -0.004   0.002  0.00  0.00    +0.150 C 
BRANCH  10  11
ATOM     11  O   LIG    1       -0.017   1.425   0.010  0.00  0.00    -0.560 OA
ATOM     12  H   LIG    1        0.861   1.830   0.004  0.00  0.00    +0.390 HD
ENDBRANCH  10  11
ENDBRANCH   7  10
ENDBRANCH   4   7
ENDBRANCH   1   4
BRANCH   1  13
ATOM     13  C   LIG    1       -2.833  -4.111  -0.244  0.00  0.00    +0.250 C 
BRANCH  13  14
ATOM     14  N   LIG    1       -4.211  -4.609  -0.354  0.00  0.00    -0.500 N 
ATOM     15  H   LIG    1       -4.651  -4.205  -1.168  0.00  0.00    +0.430 HD
ATOM     16  H   LIG    1       -4.729  -4.350   0.472  0.00  0.00    +0.430 HD
BRANCH  14  17
ATOM     17  C   LIG    1       -4.194  -6.072  -0.483  0.00  0.00    +0.330 C 
BRANCH  17  18
ATOM     18  C   LIG    1       -5.607  -6.583  -0.596  0.00  0.00    -0.170 A 
ATOM     19  C   LIG    1       -6.314  -6.918   0.544  0.00  0.00    +0.040 A 
ATOM     20  C   LIG    1       -7.611  -7.386   0.441  0.00  0.00    +0.030 A 
ATOM     21  C   LIG    1       -8.200  -7.520  -0.803  0.00  0.00    +0.060 A 
ATOM     22  C   LIG    1       -7.494  -7.184  -1.942  0.00  0.00    +0.030 A 
ATOM     23  C   LIG    1       -6.199  -6.712  -1.839  0.00  0.00    +0.040 A 
ENDBRANCH  17  18
ENDBRANCH  14  17
ENDBRANCH  13  14
ENDBRANCH   1  13
TORSDOF 11
ENDMDL
MODEL      224
REMARK  Name = ZINC000041105084
REMARK                            x       y       z     vdW  Elec       q    Type
REMARK                         _______ _______ _______ _____ _____    ______ ____
ROOT
ATOM      1  C   LIG    1       -0.280   1.452   0.294  0.00  0.00    +0.350 C 
ATOM      2  N   LIG    1       -0.195  -0.008   0.213  0.00  0.00    -0.550 N 
ATOM      3  C   LIG    1       -0.203  -0.615  -0.988  0.00  0.00    +0.700 A 
ATOM      4  N   LIG    1       -0.124  -1.954  -1.086  0.00  0.00    -0.630 N 
ATOM      5  H   LIG    1       -0.132  -2.371  -1.961  0.00  0.00    +0.430 HD
ATOM      6  C   LIG    1       -0.035  -2.736   0.037  0.00  0.00    +0.090 A 
ATOM      7  C   LIG    1       -0.025  -2.152   1.253  0.00  0.00    -0.180 A 
ATOM      8  C   LIG    1        0.080  -3.200   2.339  0.00  0.00    +0.160 C 
ATOM      9  C   LIG    1       -0.299  -4.529   1.650  0.00  0.00    +0.110 C 
ATOM     10  C   LIG    1        0.063  -4.240   0.177  0.00  0.00    +0.250 C 
ATOM     11  O   LIG    1       -0.282   0.056  -1.999  0.00  0.00    -0.510 OA
ATOM     12  C   LIG    1       -0.102  -0.740   1.341  0.00  0.00    +0.550 A 
ATOM     13  O   LIG    1       -0.094  -0.192   2.429  0.00  0.00    -0.480 OA
ENDROOT
BRANCH  10  14
ATOM     14  N   LIG    1       -0.891  -4.901  -0.723  0.00  0.00    -0.510 N 
ATOM     15  H   LIG    1       -0.699  -4.629  -1.675  0.00  0.00    +0.430 HD
ATOM     16  H   LIG    1       -1.830  -4.627  -0.477  0.00  0.00    +0.430 HD
BRANCH  14  17
ATOM     17  C   LIG    1       -0.756  -6.358  -0.594  0.00  0.00    +0.280 C 
BRANCH  17  18
ATOM     18  C   LIG    1       -1.658  -7.047  -1.620  0.00  0.00    +0.210 C 
BRANCH  18  19
ATOM     19  O   LIG    1       -1.201  -6.740  -2.939  0.00  0.00    -0.580 OA
ATOM     20  H   LIG    1       -1.727  -7.144  -3.642  0.00  0.00    +0.410 HD
ENDBRANCH  18  19
ENDBRANCH  17  18
ENDBRANCH  14  17
ENDBRANCH  10  14
TORSDOF 4
ENDMDL
MODEL      225
REMARK  Name = ZINC000034214043
REMARK                            x       y       z     vdW  Elec       q    Type
REMARK                         _______ _______ _______ _____ _____    ______ ____
ROOT
ATOM      1  O   LIG    1        0.002  -0.004   0.002  0.00  0.00    -0.510 OA
ATOM      2  C   LIG    1       -0.014   1.209   0.009  0.00  0.00    +0.530 C 
ATOM      3  C   LIG    1       -1.321   1.961   0.032  0.00  0.00    +0.090 C 
ATOM      4  C   LIG    1       -1.317   2.928   1.189  0.00  0.00    +0.530 C 
ATOM      5  N   LIG    1       -1.691   2.461   2.425  0.00  0.00    -0.740 N 
ATOM      6  H   LIG    1       -1.975   1.547   2.584  0.00  0.00    +0.430 HD
ATOM      7  C   LIG    1       -1.618   3.488   3.498  0.00  0.00    +0.310 C 
ATOM      8  C   LIG    1       -0.565   3.045   4.516  0.00  0.00    +0.260 C 
ATOM      9  N   LIG    1        0.762   3.497   4.076  0.00  0.00    -0.510 N 
ATOM     10  C   LIG    1        1.753   2.447   4.350  0.00  0.00    +0.270 C 
ATOM     11  C   LIG    1        2.870   2.516   3.307  0.00  0.00    +0.200 C 
ATOM     12  N   LIG    1        2.776   1.357   2.410  0.00  0.00    -0.690 NA
ATOM     13  H   LIG    1        3.234   0.552   2.811  0.00  0.00    +0.360 HD
ATOM     14  C   LIG    1        3.325   1.669   1.084  0.00  0.00    +0.180 C 
ATOM     15  C   LIG    1        2.393   1.118   0.003  0.00  0.00    +0.300 C 
ATOM     16  H   LIG    1        1.014   4.336   4.576  0.00  0.00    +0.430 HD
ATOM     17  H   LIG    1        0.741   3.689   3.086  0.00  0.00    +0.430 HD
ATOM     18  O   LIG    1       -0.993   4.086   1.032  0.00  0.00    -0.520 OA
ATOM     19  N   LIG    1        1.150   1.922   0.001  0.00  0.00    -0.730 N 
ATOM     20  H   LIG    1        1.162   2.892  -0.009  0.00  0.00    +0.410 HD
ENDROOT
TORSDOF 0
ENDMDL
MODEL      226
REMARK  Name = ZINC000070458337
REMARK                            x       y       z     vdW  Elec       q    Type
REMARK                         _______ _______ _______ _____ _____    ______ ____
ROOT
ATOM      1  C   LIG    1       -0.018   1.461   0.010  0.00  0.00    +0.350 C 
ATOM      2  N   LIG    1        0.002  -0.004   0.002  0.00  0.00    -0.560 N 
ATOM      3  C   LIG    1        0.005  -0.666  -1.172  0.00  0.00    +0.560 A 
ATOM      4  C   LIG    1        0.025  -2.069  -1.177  0.00  0.00    -0.200 A 
ATOM      5  C   LIG    1        0.039  -2.737   0.016  0.00  0.00    +0.480 A 
ATOM      6  N   LIG    1        0.035  -2.023   1.189  0.00  0.00    -0.650 N 
ATOM      7  H   LIG    1        0.045  -2.491   2.039  0.00  0.00    +0.430 HD
ATOM      8  O   LIG    1       -0.007  -0.049  -2.224  0.00  0.00    -0.510 OA
ATOM      9  C   LIG    1        0.022  -0.677   1.167  0.00  0.00    +0.710 A 
ATOM     10  O   LIG    1        0.019  -0.061   2.215  0.00  0.00    -0.530 OA
ENDROOT
BRANCH   5  11
ATOM     11  N   LIG    1        0.059  -4.108   0.041  0.00  0.00    -0.620 N 
ATOM     12  C   LIG    1        0.072  -4.987  -1.138  0.00  0.00    +0.320 C 
ATOM     13  C   LIG    1        0.120  -6.441  -0.625  0.00  0.00    +0.080 C 
ATOM     14  C   LIG    1        0.702  -6.286   0.805  0.00  0.00    +0.180 C 
ATOM     15  C   LIG    1        0.076  -4.945   1.254  0.00  0.00    +0.280 C 
BRANCH  14  16
ATOM     16  N   LIG    1        0.269  -7.390   1.672  0.00  0.00    -0.630 N 
ATOM     17  H   LIG    1       -0.739  -7.411   1.712  0.00  0.00    +0.440 HD
ATOM     18  H   LIG    1        0.640  -7.254   2.600  0.00  0.00    +0.440 HD
ATOM     19  H   LIG    1        0.608  -8.264   1.299  0.00  0.00    +0.450 HD
ENDBRANCH  14  16
ENDBRANCH   5  11
TORSDOF 2
ENDMDL
MODEL      227
REMARK  Name = ZINC000070458338
REMARK                            x       y       z     vdW  Elec       q    Type
REMARK                         _______ _______ _______ _____ _____    ______ ____
ROOT
ATOM      1  C   LIG    1       -0.018   1.461   0.010  0.00  0.00    +0.350 C 
ATOM      2  N   LIG    1        0.002  -0.004   0.002  0.00  0.00    -0.560 N 
ATOM      3  C   LIG    1        0.005  -0.666  -1.172  0.00  0.00    +0.560 A 
ATOM      4  C   LIG    1        0.025  -2.069  -1.177  0.00  0.00    -0.200 A 
ATOM      5  C   LIG    1        0.039  -2.737   0.016  0.00  0.00    +0.480 A 
ATOM      6  N   LIG    1        0.035  -2.023   1.189  0.00  0.00    -0.650 N 
ATOM      7  H   LIG    1        0.045  -2.491   2.039  0.00  0.00    +0.430 HD
ATOM      8  O   LIG    1       -0.007  -0.049  -2.224  0.00  0.00    -0.510 OA
ATOM      9  C   LIG    1        0.022  -0.677   1.167  0.00  0.00    +0.710 A 
ATOM     10  O   LIG    1        0.019  -0.061   2.215  0.00  0.00    -0.530 OA
ENDROOT
BRANCH   5  11
ATOM     11  N   LIG    1        0.059  -4.108   0.041  0.00  0.00    -0.620 N 
ATOM     12  C   LIG    1        0.072  -4.989  -1.141  0.00  0.00    +0.330 C 
ATOM     13  C   LIG    1        0.703  -6.313  -0.642  0.00  0.00    +0.080 C 
ATOM     14  C   LIG    1        0.119  -6.415   0.791  0.00  0.00    +0.190 C 
ATOM     15  C   LIG    1        0.076  -4.943   1.251  0.00  0.00    +0.270 C 
BRANCH  14  16
ATOM     16  N   LIG    1        1.004  -7.205   1.658  0.00  0.00    -0.630 N 
ATOM     17  H   LIG    1        1.084  -8.142   1.292  0.00  0.00    +0.450 HD
ATOM     18  H   LIG    1        0.619  -7.240   2.590  0.00  0.00    +0.440 HD
ATOM     19  H   LIG    1        1.917  -6.776   1.687  0.00  0.00    +0.440 HD
ENDBRANCH  14  16
ENDBRANCH   5  11
TORSDOF 2
ENDMDL
MODEL      228
REMARK  Name = ZINC000126769548
REMARK                            x       y       z     vdW  Elec       q    Type
REMARK                         _______ _______ _______ _____ _____    ______ ____
ROOT
ATOM      1  N   LIG    1        1.398  -2.528   2.296  0.00  0.00    -0.690 N 
ATOM      2  H   LIG    1        1.747  -1.858   2.905  0.00  0.00    +0.420 HD
ATOM      3  C   LIG    1        1.576  -3.837   2.560  0.00  0.00    +0.520 C 
ATOM      4  O   LIG    1        1.141  -4.674   1.798  0.00  0.00    -0.520 OA
ENDROOT
BRANCH   3   5
ATOM      5  C   LIG    1        2.316  -4.261   3.803  0.00  0.00    +0.190 C 
ATOM      6  C   LIG    1        3.738  -3.689   3.768  0.00  0.00    +0.150 C 
ATOM      7  S   LIG    1        4.579  -4.145   5.316  0.00  0.00    -0.160 S 
ATOM      8  C   LIG    1        4.275  -5.937   5.393  0.00  0.00    +0.140 C 
ATOM      9  C   LIG    1        2.776  -6.183   5.191  0.00  0.00    +0.300 C 
ATOM     10  N   LIG    1        2.371  -5.723   3.861  0.00  0.00    -0.500 N 
ATOM     11  H   LIG    1        3.034  -6.059   3.179  0.00  0.00    +0.430 HD
ATOM     12  H   LIG    1        1.458  -6.096   3.646  0.00  0.00    +0.450 HD
ENDBRANCH   3   5
BRANCH   1  13
ATOM     13  C   LIG    1        0.679  -2.115   1.088  0.00  0.00    +0.380 C 
BRANCH  13  14
ATOM     14  C   LIG    1        0.618  -0.611   1.029  0.00  0.00    +0.460 C 
ATOM     15  O   LIG    1        1.124   0.049   1.905  0.00  0.00    -0.500 OA
BRANCH  14  17
ATOM     16  C   LIG    1       -0.018   1.448   0.010  0.00  0.00    +0.290 C 
ATOM     17  O   LIG    1        0.002  -0.004   0.002  0.00  0.00    -0.350 OA
ENDBRANCH  14  17
ENDBRANCH  13  14
ENDBRANCH   1  13
TORSDOF 4
ENDMDL
MODEL      229
REMARK  Name = ZINC000042783804
REMARK                            x       y       z     vdW  Elec       q    Type
REMARK                         _______ _______ _______ _____ _____    ______ ____
ROOT
ATOM      1  C   LIG    1        1.254   1.958  -0.017  0.00  0.00    +0.050 A 
ATOM      2  C   LIG    1        2.519   1.436   0.049  0.00  0.00    -0.240 A 
ATOM      3  C   LIG    1        2.990   0.012   0.152  0.00  0.00    +0.380 C 
ATOM      4  N   LIG    1        4.413  -0.028  -0.228  0.00  0.00    -0.500 N 
ATOM      5  C   LIG    1        5.180   0.952   0.550  0.00  0.00    +0.290 C 
ATOM      6  C   LIG    1        4.889   2.372   0.043  0.00  0.00    +0.180 C 
ATOM      7  H   LIG    1        4.503   0.186  -1.210  0.00  0.00    +0.430 HD
ATOM      8  H   LIG    1        4.779  -0.952  -0.053  0.00  0.00    +0.440 HD
ATOM      9  C   LIG    1        3.389   2.536  -0.009  0.00  0.00    +0.030 A 
ATOM     10  N   LIG    1        2.667   3.610  -0.104  0.00  0.00    -0.230 NA
ATOM     11  N   LIG    1        1.412   3.316  -0.117  0.00  0.00    -0.360 N 
ATOM     12  H   LIG    1        0.689   3.958  -0.181  0.00  0.00    +0.460 HD
ENDROOT
BRANCH   1  14
ATOM     13  O   LIG    1       -0.690   1.196   1.020  0.00  0.00    -0.490 OA
ATOM     14  C   LIG    1       -0.014   1.212   0.009  0.00  0.00    +0.580 C 
ATOM     15  N   LIG    1       -0.425   0.543  -1.087  0.00  0.00    -0.600 N 
ATOM     16  C   LIG    1       -1.738  -0.123  -1.131  0.00  0.00    +0.310 C 
ATOM     17  C   LIG    1       -2.561   0.519  -2.249  0.00  0.00    +0.270 C 
ATOM     18  N   LIG    1       -1.771   0.646  -3.466  0.00  0.00    -0.710 N 
ATOM     19  H   LIG    1       -2.247   0.726  -4.307  0.00  0.00    +0.410 HD
ATOM     20  C   LIG    1       -0.437   0.658  -3.504  0.00  0.00    +0.510 C 
ATOM     21  O   LIG    1        0.109   0.850  -4.570  0.00  0.00    -0.530 OA
ATOM     22  C   LIG    1        0.418   0.453  -2.289  0.00  0.00    +0.320 C 
ENDBRANCH   1  14
TORSDOF 1
ENDMDL
MODEL      230
REMARK  Name = ZINC000216185976
REMARK                            x       y       z     vdW  Elec       q    Type
REMARK                         _______ _______ _______ _____ _____    ______ ____
ROOT
ATOM      1  C   LIG    1       -2.794  -2.566  -0.111  0.00  0.00    +0.180 C 
ENDROOT
BRANCH   1   2
ATOM      2  O   LIG    1       -3.426  -2.203   1.118  0.00  0.00    -0.520 OA
ATOM      3  H   LIG    1       -2.987  -2.554   1.905  0.00  0.00    +0.370 HD
ENDBRANCH   1   2
BRANCH   1   4
ATOM      4  C   LIG    1       -1.358  -2.037  -0.122  0.00  0.00    +0.180 C 
BRANCH   4   5
ATOM      5  O   LIG    1       -0.726  -2.399  -1.351  0.00  0.00    -0.540 OA
ATOM      6  H   LIG    1       -1.166  -2.049  -2.138  0.00  0.00    +0.390 HD
ENDBRANCH   4   5
BRANCH   4   7
ATOM      7  C   LIG    1       -1.376  -0.512   0.012  0.00  0.00    +0.240 C 
BRANCH   7   9
ATOM      8  C   LIG    1       -0.018   1.465   0.010  0.00  0.00    +0.320 C 
ATOM      9  N   LIG    1        0.002  -0.004   0.002  0.00  0.00    -0.380 N 
ATOM     10  C   LIG    1        0.713  -0.491   1.192  0.00  0.00    +0.320 C 
ATOM     11  H   LIG    1        0.474  -0.330  -0.828  0.00  0.00    +0.430 HD
ENDBRANCH   7   9
ENDBRANCH   4   7
ENDBRANCH   1   4
BRANCH   1  12
ATOM     12  C   LIG    1       -2.776  -4.090  -0.245  0.00  0.00    +0.180 C 
BRANCH  12  13
ATOM     13  O   LIG    1       -1.955  -4.649   0.782  0.00  0.00    -0.550 OA
ATOM     14  H   LIG    1       -2.253  -4.445   1.679  0.00  0.00    +0.370 HD
ENDBRANCH  12  13
BRANCH  12  15
ATOM     15  C   LIG    1       -4.201  -4.631  -0.109  0.00  0.00    +0.200 C 
BRANCH  15  16
ATOM     16  O   LIG    1       -4.769  -4.173   1.120  0.00  0.00    -0.530 OA
ATOM     17  H   LIG    1       -4.281  -4.453   1.907  0.00  0.00    +0.360 HD
ENDBRANCH  15  16
BRANCH  15  18
ATOM     18  C   LIG    1       -4.169  -6.160  -0.118  0.00  0.00    +0.170 C 
BRANCH  18  19
ATOM     19  O   LIG    1       -5.506  -6.664  -0.109  0.00  0.00    -0.560 OA
ATOM     20  H   LIG    1       -5.563  -7.630  -0.114  0.00  0.00    +0.390 HD
ENDBRANCH  18  19
ENDBRANCH  15  18
ENDBRANCH  12  15
ENDBRANCH   1  12
TORSDOF 11
ENDMDL
MODEL      231
REMARK  Name = ZINC000618256964
REMARK                            x       y       z     vdW  Elec       q    Type
REMARK                         _______ _______ _______ _____ _____    ______ ____
ROOT
ATOM      1  N   LIG    1       -0.993  -4.664   0.109  0.00  0.00    -0.390 N 
ATOM      2  C   LIG    1       -1.429  -4.924   1.490  0.00  0.00    +0.280 C 
ATOM      3  C   LIG    1       -0.712  -6.173   2.006  0.00  0.00    +0.310 C 
ATOM      4  N   LIG    1       -0.865  -7.266   1.049  0.00  0.00    -0.720 N 
ATOM      5  H   LIG    1       -0.693  -8.173   1.347  0.00  0.00    +0.430 HD
ATOM      6  C   LIG    1       -1.234  -7.065  -0.221  0.00  0.00    +0.500 C 
ATOM      7  O   LIG    1       -1.317  -8.023  -0.961  0.00  0.00    -0.490 OA
ATOM      8  C   LIG    1       -1.547  -5.702  -0.770  0.00  0.00    +0.320 C 
ATOM      9  H   LIG    1        0.014  -4.685   0.063  0.00  0.00    +0.430 HD
ENDROOT
BRANCH   1  10
ATOM     10  C   LIG    1       -1.479  -3.346  -0.320  0.00  0.00    +0.290 C 
BRANCH  10  14
ATOM     11  C   LIG    1       -0.268   1.505   0.274  0.00  0.00    +0.320 C 
ATOM     12  N   LIG    1       -0.174   0.045   0.192  0.00  0.00    -0.620 N 
ATOM     13  C   LIG    1       -1.329  -0.858   0.133  0.00  0.00    +0.290 C 
ATOM     14  C   LIG    1       -0.780  -2.255   0.494  0.00  0.00    -0.010 C 
ATOM     15  C   LIG    1        0.706  -2.125   0.085  0.00  0.00    +0.050 C 
ATOM     16  C   LIG    1        0.983  -0.639   0.155  0.00  0.00    +0.520 C 
ATOM     17  O   LIG    1        2.087  -0.139   0.181  0.00  0.00    -0.510 OA
ENDBRANCH  10  14
ENDBRANCH   1  10
TORSDOF 2
ENDMDL
MODEL      232
REMARK  Name = ZINC000670422539
REMARK                            x       y       z     vdW  Elec       q    Type
REMARK                         _______ _______ _______ _____ _____    ______ ____
ROOT
ATOM      1  C   LIG    1        0.621  -2.153  -0.957  0.00  0.00    -0.180 A 
ATOM      2  C   LIG    1        0.085  -3.055  -0.074  0.00  0.00    +0.410 A 
ATOM      3  N   LIG    1        0.318  -4.282  -0.568  0.00  0.00    -0.280 N 
ATOM      4  N   LIG    1        0.952  -4.233  -1.681  0.00  0.00    -0.210 N 
ATOM      5  C   LIG    1        1.351  -5.405  -2.464  0.00  0.00    +0.430 C 
ATOM      6  C   LIG    1       -0.102  -5.524   0.085  0.00  0.00    +0.420 C 
ATOM      7  C   LIG    1        1.190  -2.986  -2.028  0.00  0.00    +0.170 A 
ENDROOT
BRANCH   1  11
ATOM      8  C   LIG    1        0.052   1.384   0.300  0.00  0.00    +0.310 C 
ATOM      9  N   LIG    1        0.051  -0.077   0.202  0.00  0.00    -0.720 N 
ATOM     10  H   LIG    1       -0.361  -0.610   0.900  0.00  0.00    +0.400 HD
ATOM     11  C   LIG    1        0.622  -0.682  -0.858  0.00  0.00    +0.580 C 
ATOM     12  O   LIG    1        1.138  -0.014  -1.734  0.00  0.00    -0.500 OA
ENDBRANCH   1  11
BRANCH   7  13
ATOM     13  C   LIG    1        1.893  -2.518  -3.240  0.00  0.00    +0.580 C 
ATOM     14  N   LIG    1        1.207  -2.319  -4.383  0.00  0.00    -0.700 N 
ATOM     15  H   LIG    1        0.242  -2.409  -4.391  0.00  0.00    +0.410 HD
ATOM     16  C   LIG    1        1.920  -1.967  -5.613  0.00  0.00    +0.320 C 
ATOM     17  O   LIG    1        3.091  -2.313  -3.206  0.00  0.00    -0.470 OA
ENDBRANCH   7  13
TORSDOF 2
ENDMDL
MODEL      233
REMARK  Name = ZINC000000485783
REMARK                            x       y       z     vdW  Elec       q    Type
REMARK                         _______ _______ _______ _____ _____    ______ ____
ROOT
ATOM      1  C   LIG    1       -0.018   1.461   0.010  0.00  0.00    +0.340 C 
ATOM      2  N   LIG    1        0.002  -0.004   0.002  0.00  0.00    -0.510 N 
ATOM      3  C   LIG    1       -1.185  -0.700   0.004  0.00  0.00    +0.270 A 
ATOM      4  C   LIG    1       -1.156  -2.089  -0.004  0.00  0.00    -0.100 A 
ATOM      5  C   LIG    1        0.147  -2.756  -0.014  0.00  0.00    +0.600 A 
ATOM      6  N   LIG    1        1.262  -1.993  -0.015  0.00  0.00    -0.550 N 
ATOM      7  O   LIG    1        0.225  -3.971  -0.021  0.00  0.00    -0.480 OA
ATOM      8  N   LIG    1       -2.440  -2.521   0.001  0.00  0.00    -0.410 NA
ATOM      9  C   LIG    1       -3.235  -1.491   0.010  0.00  0.00    +0.470 A 
ATOM     10  N   LIG    1       -2.497  -0.344   0.013  0.00  0.00    -0.550 N 
ATOM     11  H   LIG    1       -2.844   0.562   0.020  0.00  0.00    +0.440 HD
ATOM     12  C   LIG    1        1.180  -0.652  -0.013  0.00  0.00    +0.720 A 
ATOM     13  O   LIG    1        2.208  -0.002  -0.014  0.00  0.00    -0.530 OA
ENDROOT
BRANCH   6  14
ATOM     14  C   LIG    1        2.578  -2.637  -0.025  0.00  0.00    +0.340 C 
BRANCH  14  15
ATOM     15  C   LIG    1        3.029  -2.853  -1.471  0.00  0.00    +0.250 C 
BRANCH  15  16
ATOM     16  N   LIG    1        4.348  -3.498  -1.482  0.00  0.00    -0.380 N 
ATOM     17  C   LIG    1        4.834  -3.597  -2.864  0.00  0.00    +0.320 C 
ATOM     18  C   LIG    1        4.240  -4.844  -0.903  0.00  0.00    +0.330 C 
ATOM     19  H   LIG    1        4.995  -2.949  -0.936  0.00  0.00    +0.430 HD
ENDBRANCH  15  16
ENDBRANCH  14  15
ENDBRANCH   6  14
TORSDOF 3
ENDMDL
MODEL      234
REMARK  Name = ZINC000044021593
REMARK                            x       y       z     vdW  Elec       q    Type
REMARK                         _______ _______ _______ _____ _____    ______ ____
ROOT
ATOM      1  N   LIG    1       -2.039  -0.019  -1.380  0.00  0.00    -0.370 N 
ATOM      2  C   LIG    1       -2.166   1.431  -1.562  0.00  0.00    +0.270 C 
ATOM      3  C   LIG    1       -2.769   1.725  -2.938  0.00  0.00    +0.150 C 
ATOM      4  C   LIG    1       -4.152   1.074  -3.032  0.00  0.00    +0.120 C 
ATOM      5  C   LIG    1       -4.018  -0.428  -2.767  0.00  0.00    +0.220 C 
ATOM      6  C   LIG    1       -3.369  -0.640  -1.397  0.00  0.00    +0.180 C 
ATOM      7  H   LIG    1       -1.480  -0.404  -2.127  0.00  0.00    +0.440 HD
ENDROOT
BRANCH   5   8
ATOM      8  O   LIG    1       -3.203  -1.021  -3.780  0.00  0.00    -0.560 OA
ATOM      9  H   LIG    1       -3.554  -0.920  -4.676  0.00  0.00    +0.410 HD
ENDBRANCH   5   8
BRANCH   4  10
ATOM     10  O   LIG    1       -5.022   1.657  -2.060  0.00  0.00    -0.540 OA
ATOM     11  H   LIG    1       -5.148   2.610  -2.166  0.00  0.00    +0.390 HD
ENDBRANCH   4  10
BRANCH   3  12
ATOM     12  O   LIG    1       -2.893   3.138  -3.113  0.00  0.00    -0.550 OA
ATOM     13  H   LIG    1       -3.269   3.398  -3.965  0.00  0.00    +0.400 HD
ENDBRANCH   3  12
BRANCH   1  14
ATOM     14  C   LIG    1       -1.389  -0.294  -0.092  0.00  0.00    +0.270 C 
BRANCH  14  15
ATOM     15  C   LIG    1       -1.151  -1.799   0.049  0.00  0.00    +0.220 C 
BRANCH  15  16
ATOM     16  O   LIG    1       -0.262  -2.239  -0.979  0.00  0.00    -0.580 OA
ATOM     17  H   LIG    1       -0.066  -3.186  -0.952  0.00  0.00    +0.410 HD
ENDBRANCH  15  16
ENDBRANCH  14  15
ENDBRANCH   1  14
BRANCH   6  18
ATOM     18  C   LIG    1       -4.244  -0.005  -0.315  0.00  0.00    +0.220 C 
BRANCH  18  19
ATOM     19  O   LIG    1       -5.577  -0.506  -0.425  0.00  0.00    -0.550 OA
ATOM     20  H   LIG    1       -6.189  -0.145   0.231  0.00  0.00    +0.400 HD
ENDBRANCH  18  19
ENDBRANCH   6  18
TORSDOF 8
ENDMDL
MODEL      235
REMARK  Name = ZINC000004566610
REMARK                            x       y       z     vdW  Elec       q    Type
REMARK                         _______ _______ _______ _____ _____    ______ ____
ROOT
ATOM      1  C   LIG    1       -2.794  -2.566  -0.111  0.00  0.00    +0.170 C 
ENDROOT
BRANCH   1   2
ATOM      2  O   LIG    1       -3.426  -2.203   1.118  0.00  0.00    -0.530 OA
ATOM      3  H   LIG    1       -2.987  -2.554   1.905  0.00  0.00    +0.380 HD
ENDBRANCH   1   2
BRANCH   1   4
ATOM      4  C   LIG    1       -1.358  -2.037  -0.122  0.00  0.00    +0.180 C 
BRANCH   4   5
ATOM      5  O   LIG    1       -0.726  -2.399  -1.351  0.00  0.00    -0.530 OA
ATOM      6  H   LIG    1       -1.166  -2.049  -2.138  0.00  0.00    +0.390 HD
ENDBRANCH   4   5
BRANCH   4   7
ATOM      7  C   LIG    1       -1.376  -0.512   0.012  0.00  0.00    +0.240 C 
BRANCH   7   9
ATOM      8  C   LIG    1       -0.018   1.465   0.010  0.00  0.00    +0.320 C 
ATOM      9  N   LIG    1        0.002  -0.004   0.002  0.00  0.00    -0.380 N 
ATOM     10  C   LIG    1        0.713  -0.491   1.192  0.00  0.00    +0.320 C 
ATOM     11  H   LIG    1        0.474  -0.330  -0.828  0.00  0.00    +0.430 HD
ENDBRANCH   7   9
ENDBRANCH   4   7
ENDBRANCH   1   4
BRANCH   1  12
ATOM     12  C   LIG    1       -2.776  -4.090  -0.245  0.00  0.00    +0.160 C 
BRANCH  12  13
ATOM     13  O   LIG    1       -2.144  -4.453  -1.474  0.00  0.00    -0.530 OA
ATOM     14  H   LIG    1       -2.583  -4.102  -2.261  0.00  0.00    +0.380 HD
ENDBRANCH  12  13
BRANCH  12  15
ATOM     15  C   LIG    1       -4.212  -4.620  -0.234  0.00  0.00    +0.190 C 
BRANCH  15  16
ATOM     16  O   LIG    1       -4.844  -4.257   0.995  0.00  0.00    -0.530 OA
ATOM     17  H   LIG    1       -4.404  -4.608   1.782  0.00  0.00    +0.370 HD
ENDBRANCH  15  16
BRANCH  15  18
ATOM     18  C   LIG    1       -4.194  -6.144  -0.368  0.00  0.00    +0.150 C 
BRANCH  18  19
ATOM     19  O   LIG    1       -5.534  -6.628  -0.475  0.00  0.00    -0.560 OA
ATOM     20  H   LIG    1       -5.599  -7.589  -0.563  0.00  0.00    +0.390 HD
ENDBRANCH  18  19
ENDBRANCH  15  18
ENDBRANCH  12  15
ENDBRANCH   1  12
TORSDOF 11
ENDMDL
MODEL      236
REMARK  Name = ZINC000104776470
REMARK                            x       y       z     vdW  Elec       q    Type
REMARK                         _______ _______ _______ _____ _____    ______ ____
ROOT
ATOM      1  N   LIG    1       -1.153   4.233  -1.164  0.00  0.00    -0.490 N 
ATOM      2  H   LIG    1       -2.160   4.200  -1.220  0.00  0.00    +0.440 HD
ATOM      3  H   LIG    1       -0.756   3.804  -1.986  0.00  0.00    +0.430 HD
ENDROOT
BRANCH   1   7
ATOM      4  O   LIG    1        0.002  -0.004   0.002  0.00  0.00    -0.430 OA
ATOM      5  C   LIG    1       -0.014   1.208   0.009  0.00  0.00    +0.520 C 
ATOM      6  C   LIG    1       -1.260   2.068   0.032  0.00  0.00    +0.140 C 
ATOM      7  C   LIG    1       -0.705   3.507   0.032  0.00  0.00    +0.190 C 
ATOM      8  C   LIG    1        0.795   3.309   0.009  0.00  0.00    +0.520 C 
ATOM      9  O   LIG    1        1.620   4.197   0.002  0.00  0.00    -0.430 OA
ATOM     10  N   LIG    1        1.066   1.998   0.003  0.00  0.00    -0.670 N 
ATOM     11  H   LIG    1        1.971   1.650  -0.012  0.00  0.00    +0.440 HD
ENDBRANCH   1   7
BRANCH   1  12
ATOM     12  C   LIG    1       -0.712   5.632  -1.081  0.00  0.00    +0.260 C 
BRANCH  12  13
ATOM     13  C   LIG    1       -1.178   6.388  -2.326  0.00  0.00    +0.350 C 
BRANCH  13  14
ATOM     14  N   LIG    1       -0.739   7.784  -2.244  0.00  0.00    -0.400 N 
ATOM     15  C   LIG    1       -0.012   8.444  -3.170  0.00  0.00    +0.240 A 
ATOM     16  C   LIG    1        0.183   9.704  -2.719  0.00  0.00    -0.090 A 
ATOM     17  C   LIG    1       -0.446   9.819  -1.475  0.00  0.00    +0.260 A 
ATOM     18  N   LIG    1       -1.004   8.670  -1.192  0.00  0.00    -0.300 NA
ENDBRANCH  13  14
ENDBRANCH  12  13
ENDBRANCH   1  12
TORSDOF 4
ENDMDL
MODEL      237
REMARK  Name = ZINC000072233433
REMARK                            x       y       z     vdW  Elec       q    Type
REMARK                         _______ _______ _______ _____ _____    ______ ____
ROOT
ATOM      1  N   LIG    1        1.897  -2.385   2.078  0.00  0.00    -0.420 N 
ATOM      2  N   LIG    1        1.942  -2.111   3.451  0.00  0.00    -0.070 NA
ATOM      3  N   LIG    1        3.019  -2.616   3.942  0.00  0.00    -0.150 NA
ATOM      4  C   LIG    1        3.720  -3.227   2.969  0.00  0.00    -0.170 A 
ATOM      5  C   LIG    1        3.013  -3.091   1.780  0.00  0.00    +0.420 A 
ENDROOT
BRANCH   1  12
ATOM      6  C   LIG    1       -0.018   1.465   0.010  0.00  0.00    +0.340 C 
ATOM      7  N   LIG    1        0.002  -0.004   0.002  0.00  0.00    -0.370 N 
ATOM      8  C   LIG    1       -1.388  -0.497  -0.029  0.00  0.00    +0.260 C 
ATOM      9  C   LIG    1       -1.391  -1.903  -0.574  0.00  0.00    +0.250 C 
ATOM     10  O   LIG    1       -1.348  -2.884   0.480  0.00  0.00    -0.350 OA
ATOM     11  C   LIG    1       -0.472  -2.583   1.587  0.00  0.00    +0.250 C 
ATOM     12  C   LIG    1        0.840  -1.990   1.144  0.00  0.00    +0.250 C 
ATOM     13  C   LIG    1        0.717  -0.452   1.123  0.00  0.00    +0.260 C 
ATOM     14  H   LIG    1        0.476  -0.317  -0.832  0.00  0.00    +0.420 HD
ENDBRANCH   1  12
BRANCH   4  15
ATOM     15  C   LIG    1        5.003  -3.919   3.135  0.00  0.00    +0.620 C 
ATOM     16  O   LIG    1        5.544  -4.436   2.175  0.00  0.00    -0.550 OA
ATOM     17  N   LIG    1        5.583  -3.983   4.350  0.00  0.00    -0.830 N 
ATOM     18  H   LIG    1        6.431  -4.440   4.460  0.00  0.00    +0.410 HD
ATOM     19  H   LIG    1        5.152  -3.570   5.115  0.00  0.00    +0.410 HD
ENDBRANCH   4  15
BRANCH   5  20
ATOM     20  N   LIG    1        3.381  -3.572   0.541  0.00  0.00    -0.810 N 
ATOM     21  H   LIG    1        2.809  -3.420  -0.228  0.00  0.00    +0.400 HD
ATOM     22  H   LIG    1        4.211  -4.063   0.438  0.00  0.00    +0.440 HD
ENDBRANCH   5  20
TORSDOF 3
ENDMDL
MODEL      238
REMARK  Name = ZINC000072233434
REMARK                            x       y       z     vdW  Elec       q    Type
REMARK                         _______ _______ _______ _____ _____    ______ ____
ROOT
ATOM      1  N   LIG    1        1.536  -2.459   2.376  0.00  0.00    -0.420 N 
ATOM      2  N   LIG    1        2.901  -2.548   2.068  0.00  0.00    -0.080 NA
ATOM      3  N   LIG    1        3.525  -3.039   3.080  0.00  0.00    -0.150 NA
ATOM      4  C   LIG    1        2.653  -3.293   4.074  0.00  0.00    -0.170 A 
ATOM      5  C   LIG    1        1.387  -2.924   3.639  0.00  0.00    +0.420 A 
ENDROOT
BRANCH   1  12
ATOM      6  C   LIG    1       -0.018   1.465   0.010  0.00  0.00    +0.340 C 
ATOM      7  N   LIG    1        0.002  -0.004   0.002  0.00  0.00    -0.380 N 
ATOM      8  C   LIG    1       -1.361  -0.490  -0.024  0.00  0.00    +0.220 C 
ATOM      9  C   LIG    1       -1.415  -1.777  -0.873  0.00  0.00    +0.270 C 
ATOM     10  O   LIG    1       -0.947  -2.857  -0.187  0.00  0.00    -0.350 OA
ATOM     11  C   LIG    1        0.423  -2.804   0.254  0.00  0.00    +0.260 C 
ATOM     12  C   LIG    1        0.476  -1.954   1.501  0.00  0.00    +0.260 C 
ATOM     13  C   LIG    1        0.752  -0.479   1.187  0.00  0.00    +0.270 C 
ATOM     14  H   LIG    1        0.476  -0.319  -0.831  0.00  0.00    +0.420 HD
ENDBRANCH   1  12
BRANCH   4  15
ATOM     15  C   LIG    1        2.983  -3.857   5.388  0.00  0.00    +0.620 C 
ATOM     16  O   LIG    1        2.104  -4.042   6.209  0.00  0.00    -0.550 OA
ATOM     17  N   LIG    1        4.260  -4.170   5.686  0.00  0.00    -0.830 N 
ATOM     18  H   LIG    1        4.478  -4.543   6.555  0.00  0.00    +0.410 HD
ATOM     19  H   LIG    1        4.960  -4.022   5.032  0.00  0.00    +0.410 HD
ENDBRANCH   4  15
BRANCH   5  20
ATOM     20  N   LIG    1        0.208  -3.018   4.350  0.00  0.00    -0.810 N 
ATOM     21  H   LIG    1       -0.626  -2.729   3.948  0.00  0.00    +0.400 HD
ATOM     22  H   LIG    1        0.213  -3.374   5.253  0.00  0.00    +0.440 HD
ENDBRANCH   5  20
TORSDOF 3
ENDMDL
MODEL      239
REMARK  Name = ZINC000024987600
REMARK                            x       y       z     vdW  Elec       q    Type
REMARK                         _______ _______ _______ _____ _____    ______ ____
ROOT
ATOM      1  C   LIG    1       -3.499  -1.070  -1.120  0.00  0.00    +0.390 C 
ENDROOT
BRANCH   1   2
ATOM      2  C   LIG    1       -4.069  -1.005  -2.513  0.00  0.00    +0.160 A 
ATOM      3  C   LIG    1       -4.397  -2.140  -3.166  0.00  0.00    -0.070 A 
ATOM      4  C   LIG    1       -4.932  -2.053  -4.474  0.00  0.00    +0.540 A 
ATOM      5  N   LIG    1       -5.102  -0.842  -5.040  0.00  0.00    -0.550 N 
ATOM      6  C   LIG    1       -4.766   0.275  -4.367  0.00  0.00    +0.690 A 
ATOM      7  O   LIG    1       -4.925   1.361  -4.890  0.00  0.00    -0.520 OA
ATOM      8  C   LIG    1       -5.654  -0.739  -6.393  0.00  0.00    +0.340 C 
ATOM      9  O   LIG    1       -5.235  -3.064  -5.082  0.00  0.00    -0.500 OA
ATOM     10  N   LIG    1       -4.263   0.206  -3.121  0.00  0.00    -0.540 N 
ATOM     11  C   LIG    1       -3.907   1.438  -2.413  0.00  0.00    +0.330 C 
ENDBRANCH   1   2
BRANCH   1  13
ATOM     12  C   LIG    1       -1.412  -0.526   0.013  0.00  0.00    +0.500 C 
ATOM     13  N   LIG    1       -2.125  -0.563  -1.130  0.00  0.00    -0.710 N 
ATOM     14  H   LIG    1       -1.728  -0.253  -1.960  0.00  0.00    +0.410 HD
ATOM     15  O   LIG    1       -1.908  -0.912   1.050  0.00  0.00    -0.510 OA
BRANCH  12  17
ATOM     16  C   LIG    1       -0.019   1.526   0.010  0.00  0.00    +0.120 C 
ATOM     17  C   LIG    1        0.002  -0.004   0.002  0.00  0.00    +0.180 C 
BRANCH  17  18
ATOM     18  N   LIG    1        0.713  -0.491   1.192  0.00  0.00    -0.620 N 
ATOM     19  H   LIG    1        0.240  -0.165   2.022  0.00  0.00    +0.440 HD
ATOM     20  H   LIG    1        1.659  -0.141   1.185  0.00  0.00    +0.450 HD
ATOM     21  H   LIG    1        0.726  -1.500   1.187  0.00  0.00    +0.440 HD
ENDBRANCH  17  18
ENDBRANCH  12  17
ENDBRANCH   1  13
TORSDOF 4
ENDMDL
MODEL      240
REMARK  Name = ZINC000238853938
REMARK                            x       y       z     vdW  Elec       q    Type
REMARK                         _______ _______ _______ _____ _____    ______ ____
ROOT
ATOM      1  C   LIG    1        1.577  -2.460   2.364  0.00  0.00    +0.210 C 
ATOM      2  C   LIG    1        0.713  -2.207   3.627  0.00  0.00    -0.290 C 
ATOM      3  S   LIG    1        1.493  -3.359   4.829  0.00  0.00    +2.410 S 
ATOM      4  C   LIG    1        1.855  -4.668   3.599  0.00  0.00    -0.300 C 
ATOM      5  O   LIG    1        0.515  -3.821   5.750  0.00  0.00    -0.900 OA
ATOM      6  O   LIG    1        2.711  -2.800   5.304  0.00  0.00    -0.900 OA
ATOM      7  C   LIG    1        1.825  -3.964   2.236  0.00  0.00    +0.210 C 
ENDROOT
BRANCH   1   8
ATOM      8  N   LIG    1        0.867  -1.973   1.174  0.00  0.00    -0.490 N 
ATOM      9  H   LIG    1        1.384  -2.228   0.346  0.00  0.00    +0.430 HD
ATOM     10  H   LIG    1       -0.052  -2.388   1.138  0.00  0.00    +0.450 HD
BRANCH   8  11
ATOM     11  C   LIG    1        0.742  -0.511   1.242  0.00  0.00    +0.280 C 
BRANCH  11  13
ATOM     12  C   LIG    1       -0.019   1.526   0.010  0.00  0.00    +0.050 C 
ATOM     13  C   LIG    1        0.002  -0.004   0.002  0.00  0.00    +0.160 C 
BRANCH  13  14
ATOM     14  O   LIG    1       -1.339  -0.499   0.012  0.00  0.00    -0.570 OA
ATOM     15  H   LIG    1       -1.868  -0.216  -0.746  0.00  0.00    +0.410 HD
ENDBRANCH  13  14
ENDBRANCH  11  13
ENDBRANCH   8  11
ENDBRANCH   1   8
BRANCH   7  16
ATOM     16  O   LIG    1        0.786  -4.538   1.440  0.00  0.00    -0.570 OA
ATOM     17  H   LIG    1        0.907  -5.480   1.257  0.00  0.00    +0.420 HD
ENDBRANCH   7  16
TORSDOF 5
ENDMDL
MODEL      241
REMARK  Name = ZINC000019789696
REMARK                            x       y       z     vdW  Elec       q    Type
REMARK                         _______ _______ _______ _____ _____    ______ ____
ROOT
ATOM      1  C   LIG    1       -2.626  -4.048  -0.486  0.00  0.00    +0.210 C 
ATOM      2  C   LIG    1       -1.921  -4.758   0.700  0.00  0.00    -0.310 C 
ATOM      3  S   LIG    1       -2.475  -6.494   0.457  0.00  0.00    +2.410 S 
ATOM      4  C   LIG    1       -4.153  -6.055  -0.137  0.00  0.00    -0.300 C 
ATOM      5  O   LIG    1       -2.566  -7.146   1.716  0.00  0.00    -0.900 OA
ATOM      6  O   LIG    1       -1.735  -7.087  -0.601  0.00  0.00    -0.900 OA
ATOM      7  C   LIG    1       -4.048  -4.598  -0.606  0.00  0.00    +0.210 C 
ENDROOT
BRANCH   1   8
ATOM      8  N   LIG    1       -2.675  -2.601  -0.237  0.00  0.00    -0.490 N 
ATOM      9  H   LIG    1       -3.221  -2.154  -0.958  0.00  0.00    +0.430 HD
ATOM     10  H   LIG    1       -3.100  -2.429   0.662  0.00  0.00    +0.440 HD
BRANCH   8  11
ATOM     11  C   LIG    1       -1.311  -2.056  -0.247  0.00  0.00    +0.260 C 
BRANCH  11  12
ATOM     12  C   LIG    1       -1.362  -0.549   0.012  0.00  0.00    +0.190 C 
BRANCH  12  14
ATOM     13  C   LIG    1       -0.018   1.465   0.010  0.00  0.00    +0.220 C 
ATOM     14  N   LIG    1        0.002  -0.004   0.002  0.00  0.00    -0.540 NA
ATOM     15  C   LIG    1        0.786  -0.526   1.129  0.00  0.00    +0.210 C 
ENDBRANCH  12  14
ENDBRANCH  11  12
ENDBRANCH   8  11
ENDBRANCH   1   8
BRANCH   7  16
ATOM     16  O   LIG    1       -4.925  -3.792   0.184  0.00  0.00    -0.580 OA
ATOM     17  H   LIG    1       -5.858  -4.036   0.109  0.00  0.00    +0.420 HD
ENDBRANCH   7  16
TORSDOF 5
ENDMDL
MODEL      242
REMARK  Name = ZINC000238853939
REMARK                            x       y       z     vdW  Elec       q    Type
REMARK                         _______ _______ _______ _____ _____    ______ ____
ROOT
ATOM      1  C   LIG    1        1.577  -2.460   2.364  0.00  0.00    +0.220 C 
ATOM      2  C   LIG    1        3.016  -1.906   2.348  0.00  0.00    -0.300 C 
ATOM      3  S   LIG    1        3.988  -3.271   3.104  0.00  0.00    +2.410 S 
ATOM      4  C   LIG    1        2.958  -4.599   2.361  0.00  0.00    -0.300 C 
ATOM      5  O   LIG    1        3.817  -3.260   4.515  0.00  0.00    -0.890 OA
ATOM      6  O   LIG    1        5.293  -3.302   2.542  0.00  0.00    -0.900 OA
ATOM      7  C   LIG    1        1.547  -3.983   2.369  0.00  0.00    +0.190 C 
ENDROOT
BRANCH   1   8
ATOM      8  N   LIG    1        0.867  -1.973   1.174  0.00  0.00    -0.500 N 
ATOM      9  H   LIG    1        1.384  -2.228   0.346  0.00  0.00    +0.430 HD
ATOM     10  H   LIG    1       -0.052  -2.388   1.138  0.00  0.00    +0.440 HD
BRANCH   8  11
ATOM     11  C   LIG    1        0.742  -0.511   1.242  0.00  0.00    +0.290 C 
BRANCH  11  13
ATOM     12  C   LIG    1       -0.019   1.526   0.010  0.00  0.00    +0.050 C 
ATOM     13  C   LIG    1        0.002  -0.004   0.002  0.00  0.00    +0.160 C 
BRANCH  13  14
ATOM     14  O   LIG    1       -1.339  -0.499   0.012  0.00  0.00    -0.580 OA
ATOM     15  H   LIG    1       -1.868  -0.216  -0.746  0.00  0.00    +0.410 HD
ENDBRANCH  13  14
ENDBRANCH  11  13
ENDBRANCH   8  11
ENDBRANCH   1   8
BRANCH   7  16
ATOM     16  O   LIG    1        0.856  -4.422   3.541  0.00  0.00    -0.540 OA
ATOM     17  H   LIG    1        0.734  -5.380   3.589  0.00  0.00    +0.410 HD
ENDBRANCH   7  16
TORSDOF 5
ENDMDL
MODEL      243
REMARK  Name = ZINC000019789693
REMARK                            x       y       z     vdW  Elec       q    Type
REMARK                         _______ _______ _______ _____ _____    ______ ____
ROOT
ATOM      1  C   LIG    1       -2.626  -4.048  -0.486  0.00  0.00    +0.210 C 
ATOM      2  C   LIG    1       -1.921  -4.758   0.700  0.00  0.00    -0.310 C 
ATOM      3  S   LIG    1       -2.475  -6.494   0.457  0.00  0.00    +2.410 S 
ATOM      4  C   LIG    1       -4.153  -6.055  -0.137  0.00  0.00    -0.300 C 
ATOM      5  O   LIG    1       -2.566  -7.146   1.716  0.00  0.00    -0.890 OA
ATOM      6  O   LIG    1       -1.735  -7.087  -0.601  0.00  0.00    -0.890 OA
ATOM      7  C   LIG    1       -4.048  -4.598  -0.606  0.00  0.00    +0.200 C 
ENDROOT
BRANCH   1   8
ATOM      8  N   LIG    1       -2.675  -2.601  -0.237  0.00  0.00    -0.490 N 
ATOM      9  H   LIG    1       -3.221  -2.154  -0.958  0.00  0.00    +0.440 HD
ATOM     10  H   LIG    1       -3.100  -2.429   0.662  0.00  0.00    +0.430 HD
BRANCH   8  11
ATOM     11  C   LIG    1       -1.311  -2.056  -0.247  0.00  0.00    +0.270 C 
BRANCH  11  12
ATOM     12  C   LIG    1       -1.362  -0.549   0.012  0.00  0.00    +0.180 C 
BRANCH  12  14
ATOM     13  C   LIG    1       -0.018   1.465   0.010  0.00  0.00    +0.220 C 
ATOM     14  N   LIG    1        0.002  -0.004   0.002  0.00  0.00    -0.540 NA
ATOM     15  C   LIG    1        0.786  -0.526   1.129  0.00  0.00    +0.210 C 
ENDBRANCH  12  14
ENDBRANCH  11  12
ENDBRANCH   8  11
ENDBRANCH   1   8
BRANCH   7  16
ATOM     16  O   LIG    1       -4.453  -4.522  -1.974  0.00  0.00    -0.550 OA
ATOM     17  H   LIG    1       -5.369  -4.792  -2.130  0.00  0.00    +0.410 HD
ENDBRANCH   7  16
TORSDOF 5
ENDMDL
MODEL      244
REMARK  Name = ZINC000019789691
REMARK                            x       y       z     vdW  Elec       q    Type
REMARK                         _______ _______ _______ _____ _____    ______ ____
ROOT
ATOM      1  C   LIG    1       -2.626  -4.048  -0.486  0.00  0.00    +0.220 C 
ATOM      2  C   LIG    1       -2.078  -4.293  -1.906  0.00  0.00    -0.310 C 
ATOM      3  S   LIG    1       -2.998  -5.789  -2.448  0.00  0.00    +2.410 S 
ATOM      4  C   LIG    1       -4.545  -5.321  -1.572  0.00  0.00    -0.310 C 
ATOM      5  O   LIG    1       -2.434  -6.946  -1.845  0.00  0.00    -0.890 OA
ATOM      6  O   LIG    1       -3.208  -5.744  -3.852  0.00  0.00    -0.890 OA
ATOM      7  C   LIG    1       -4.022  -4.629  -0.300  0.00  0.00    +0.210 C 
ENDROOT
BRANCH   1   8
ATOM      8  N   LIG    1       -2.675  -2.601  -0.237  0.00  0.00    -0.490 N 
ATOM      9  H   LIG    1       -3.221  -2.154  -0.958  0.00  0.00    +0.430 HD
ATOM     10  H   LIG    1       -3.100  -2.429   0.662  0.00  0.00    +0.440 HD
BRANCH   8  11
ATOM     11  C   LIG    1       -1.311  -2.056  -0.247  0.00  0.00    +0.250 C 
BRANCH  11  12
ATOM     12  C   LIG    1       -1.362  -0.549   0.012  0.00  0.00    +0.190 C 
BRANCH  12  14
ATOM     13  C   LIG    1       -0.018   1.465   0.010  0.00  0.00    +0.220 C 
ATOM     14  N   LIG    1        0.002  -0.004   0.002  0.00  0.00    -0.540 NA
ATOM     15  C   LIG    1        0.786  -0.526   1.129  0.00  0.00    +0.210 C 
ENDBRANCH  12  14
ENDBRANCH  11  12
ENDBRANCH   8  11
ENDBRANCH   1   8
BRANCH   7  16
ATOM     16  O   LIG    1       -4.918  -3.574   0.055  0.00  0.00    -0.580 OA
ATOM     17  H   LIG    1       -5.816  -3.870   0.256  0.00  0.00    +0.420 HD
ENDBRANCH   7  16
TORSDOF 5
ENDMDL
MODEL      245
REMARK  Name = ZINC000019789694
REMARK                            x       y       z     vdW  Elec       q    Type
REMARK                         _______ _______ _______ _____ _____    ______ ____
ROOT
ATOM      1  C   LIG    1       -2.626  -4.048  -0.486  0.00  0.00    +0.220 C 
ATOM      2  C   LIG    1       -2.078  -4.293  -1.906  0.00  0.00    -0.300 C 
ATOM      3  S   LIG    1       -2.998  -5.789  -2.448  0.00  0.00    +2.410 S 
ATOM      4  C   LIG    1       -4.545  -5.321  -1.572  0.00  0.00    -0.310 C 
ATOM      5  O   LIG    1       -2.434  -6.946  -1.845  0.00  0.00    -0.890 OA
ATOM      6  O   LIG    1       -3.208  -5.744  -3.852  0.00  0.00    -0.900 OA
ATOM      7  C   LIG    1       -4.022  -4.629  -0.300  0.00  0.00    +0.190 C 
ENDROOT
BRANCH   1   8
ATOM      8  N   LIG    1       -2.675  -2.601  -0.237  0.00  0.00    -0.500 N 
ATOM      9  H   LIG    1       -3.221  -2.154  -0.958  0.00  0.00    +0.430 HD
ATOM     10  H   LIG    1       -3.100  -2.429   0.662  0.00  0.00    +0.430 HD
BRANCH   8  11
ATOM     11  C   LIG    1       -1.311  -2.056  -0.247  0.00  0.00    +0.270 C 
BRANCH  11  12
ATOM     12  C   LIG    1       -1.362  -0.549   0.012  0.00  0.00    +0.180 C 
BRANCH  12  14
ATOM     13  C   LIG    1       -0.018   1.465   0.010  0.00  0.00    +0.220 C 
ATOM     14  N   LIG    1        0.002  -0.004   0.002  0.00  0.00    -0.540 NA
ATOM     15  C   LIG    1        0.786  -0.526   1.129  0.00  0.00    +0.210 C 
ENDBRANCH  12  14
ENDBRANCH  11  12
ENDBRANCH   8  11
ENDBRANCH   1   8
BRANCH   7  16
ATOM     16  O   LIG    1       -3.983  -5.583   0.764  0.00  0.00    -0.550 OA
ATOM     17  H   LIG    1       -4.846  -5.954   0.992  0.00  0.00    +0.410 HD
ENDBRANCH   7  16
TORSDOF 5
ENDMDL
MODEL      246
REMARK  Name = ZINC000022205832
REMARK                            x       y       z     vdW  Elec       q    Type
REMARK                         _______ _______ _______ _____ _____    ______ ____
ROOT
ATOM      1  C   LIG    1       -1.067   1.881   3.979  0.00  0.00    +0.160 C 
ENDROOT
BRANCH   1   2
ATOM      2  C   LIG    1       -0.457   1.634   2.598  0.00  0.00    +0.210 C 
BRANCH   2   3
ATOM      3  O   LIG    1        0.879   2.140   2.571  0.00  0.00    -0.540 OA
ATOM      4  H   LIG    1        0.944   3.089   2.745  0.00  0.00    +0.390 HD
ENDBRANCH   2   3
BRANCH   2   5
ATOM      5  C   LIG    1       -1.294   2.347   1.535  0.00  0.00    +0.250 C 
BRANCH   5   6
ATOM      6  N   LIG    1       -0.779   2.012   0.200  0.00  0.00    -0.630 N 
ATOM      7  H   LIG    1       -1.331   2.482  -0.501  0.00  0.00    +0.440 HD
ATOM      8  H   LIG    1        0.182   2.309   0.127  0.00  0.00    +0.440 HD
ATOM      9  H   LIG    1       -0.834   1.014   0.059  0.00  0.00    +0.440 HD
ENDBRANCH   5   6
ENDBRANCH   2   5
ENDBRANCH   1   2
BRANCH   1  10
ATOM     10  O   LIG    1       -0.355   1.122   4.958  0.00  0.00    -0.370 OA
BRANCH  10  11
ATOM     11  C   LIG    1       -0.849   1.283   6.290  0.00  0.00    +0.140 C 
BRANCH  11  12
ATOM     12  C   LIG    1       -0.016   0.429   7.248  0.00  0.00    +0.250 C 
BRANCH  12  13
ATOM     13  N   LIG    1        1.361   0.939   7.289  0.00  0.00    -0.530 NA
ATOM     14  C   LIG    1        1.376   2.400   7.454  0.00  0.00    +0.150 C 
ATOM     15  C   LIG    1        2.826   2.882   7.551  0.00  0.00    +0.220 C 
ATOM     16  O   LIG    1        3.542   2.461   6.387  0.00  0.00    -0.390 OA
ATOM     17  C   LIG    1        3.548   1.044   6.195  0.00  0.00    +0.220 C 
ATOM     18  C   LIG    1        2.105   0.543   6.085  0.00  0.00    +0.160 C 
ENDBRANCH  12  13
ENDBRANCH  11  12
ENDBRANCH  10  11
ENDBRANCH   1  10
TORSDOF 8
ENDMDL
MODEL      247
REMARK  Name = ZINC000022205835
REMARK                            x       y       z     vdW  Elec       q    Type
REMARK                         _______ _______ _______ _____ _____    ______ ____
ROOT
ATOM      1  C   LIG    1       -1.019   1.995   3.941  0.00  0.00    +0.160 C 
ENDROOT
BRANCH   1   2
ATOM      2  C   LIG    1       -0.494   1.611   2.556  0.00  0.00    +0.210 C 
BRANCH   2   3
ATOM      3  O   LIG    1       -0.607   0.198   2.378  0.00  0.00    -0.540 OA
ATOM      4  H   LIG    1       -1.512  -0.135   2.443  0.00  0.00    +0.390 HD
ENDBRANCH   2   3
BRANCH   2   5
ATOM      5  C   LIG    1       -1.317   2.328   1.483  0.00  0.00    +0.250 C 
BRANCH   5   6
ATOM      6  N   LIG    1       -0.813   1.960   0.153  0.00  0.00    -0.630 N 
ATOM      7  H   LIG    1       -1.356   2.432  -0.555  0.00  0.00    +0.440 HD
ATOM      8  H   LIG    1        0.155   2.233   0.073  0.00  0.00    +0.440 HD
ATOM      9  H   LIG    1       -0.893   0.962   0.027  0.00  0.00    +0.440 HD
ENDBRANCH   5   6
ENDBRANCH   2   5
ENDBRANCH   1   2
BRANCH   1  10
ATOM     10  O   LIG    1       -0.179   1.419   4.944  0.00  0.00    -0.370 OA
BRANCH  10  11
ATOM     11  C   LIG    1       -0.584   1.718   6.282  0.00  0.00    +0.140 C 
BRANCH  11  12
ATOM     12  C   LIG    1        0.381   1.054   7.267  0.00  0.00    +0.250 C 
BRANCH  12  13
ATOM     13  N   LIG    1        1.714   1.657   7.128  0.00  0.00    -0.530 NA
ATOM     14  C   LIG    1        1.628   3.125   7.109  0.00  0.00    +0.150 C 
ATOM     15  C   LIG    1        3.039   3.712   7.024  0.00  0.00    +0.220 C 
ATOM     16  O   LIG    1        3.698   3.192   5.865  0.00  0.00    -0.390 OA
ATOM     17  C   LIG    1        3.799   1.766   5.852  0.00  0.00    +0.220 C 
ATOM     18  C   LIG    1        2.395   1.159   5.925  0.00  0.00    +0.160 C 
ENDBRANCH  12  13
ENDBRANCH  11  12
ENDBRANCH  10  11
ENDBRANCH   1  10
TORSDOF 8
ENDMDL
MODEL      248
REMARK  Name = ZINC000019793427
REMARK                            x       y       z     vdW  Elec       q    Type
REMARK                         _______ _______ _______ _____ _____    ______ ____
ROOT
ATOM      1  N   LIG    1       -2.398  -0.073   0.013  0.00  0.00    -0.690 N 
ATOM      2  H   LIG    1       -2.428   0.897   0.018  0.00  0.00    +0.430 HD
ENDROOT
BRANCH   1   5
ATOM      3  C   LIG    1       -0.018   1.503   0.010  0.00  0.00    +0.160 C 
ATOM      4  C   LIG    1        0.002  -0.004   0.002  0.00  0.00    -0.130 A 
ATOM      5  C   LIG    1       -1.191  -0.720   0.004  0.00  0.00    +0.490 A 
ATOM      6  N   LIG    1       -1.129  -2.085  -0.004  0.00  0.00    -0.620 N 
ATOM      7  H   LIG    1       -1.941  -2.616  -0.003  0.00  0.00    +0.410 HD
ATOM      8  C   LIG    1        0.083  -2.678  -0.013  0.00  0.00    +0.590 A 
ATOM      9  N   LIG    1        1.196  -1.938  -0.014  0.00  0.00    -0.330 NA
ATOM     10  O   LIG    1        0.163  -3.895  -0.020  0.00  0.00    -0.520 OA
ATOM     11  N   LIG    1        1.153  -0.653  -0.013  0.00  0.00    -0.070 NA
ENDBRANCH   1   5
BRANCH   1  12
ATOM     12  C   LIG    1       -3.643  -0.844   0.014  0.00  0.00    +0.260 C 
BRANCH  12  13
ATOM     13  C   LIG    1       -4.836   0.113   0.025  0.00  0.00    +0.220 C 
BRANCH  13  14
ATOM     14  N   LIG    1       -6.085  -0.660   0.026  0.00  0.00    -0.530 NA
ATOM     15  C   LIG    1       -6.038  -1.739  -0.971  0.00  0.00    +0.200 C 
ATOM     16  C   LIG    1       -7.330  -2.555  -0.896  0.00  0.00    +0.280 C 
ATOM     17  N   LIG    1       -8.480  -1.678  -1.153  0.00  0.00    -0.510 N 
ATOM     18  C   LIG    1       -8.527  -0.621  -0.134  0.00  0.00    +0.280 C 
ATOM     19  H   LIG    1       -9.330  -2.219  -1.115  0.00  0.00    +0.440 HD
ATOM     20  H   LIG    1       -8.387  -1.260  -2.066  0.00  0.00    +0.430 HD
ATOM     21  C   LIG    1       -7.245   0.212  -0.202  0.00  0.00    +0.220 C 
ENDBRANCH  13  14
ENDBRANCH  12  13
ENDBRANCH   1  12
TORSDOF 4
ENDMDL
MODEL      249
REMARK  Name = ZINC000026442016
REMARK                            x       y       z     vdW  Elec       q    Type
REMARK                         _______ _______ _______ _____ _____    ______ ____
ROOT
ATOM      1  C   LIG    1        1.493  -3.996   2.415  0.00  0.00    +0.410 C 
ATOM      2  O   LIG    1        2.262  -4.456   1.302  0.00  0.00    -0.320 OA
ATOM      3  C   LIG    1        3.615  -3.996   1.297  0.00  0.00    +0.120 C 
ATOM      4  C   LIG    1        4.330  -4.505   2.551  0.00  0.00    +0.140 C 
ATOM      5  C   LIG    1        3.574  -4.021   3.793  0.00  0.00    +0.140 C 
ATOM      6  C   LIG    1        2.123  -4.505   3.714  0.00  0.00    +0.190 C 
ENDROOT
BRANCH   1   7
ATOM      7  N   LIG    1        1.473  -2.527   2.423  0.00  0.00    -0.530 N 
ATOM      8  H   LIG    1        1.001  -2.202   3.253  0.00  0.00    +0.450 HD
ATOM      9  H   LIG    1        2.420  -2.178   2.416  0.00  0.00    +0.420 HD
BRANCH   7  10
ATOM     10  C   LIG    1        0.763  -2.041   1.233  0.00  0.00    +0.270 C 
BRANCH  10  11
ATOM     11  C   LIG    1        0.742  -0.511   1.242  0.00  0.00    +0.020 C 
BRANCH  11  13
ATOM     12  C   LIG    1       -0.019   1.526   0.010  0.00  0.00    +0.030 C 
ATOM     13  C   LIG    1        0.002  -0.004   0.002  0.00  0.00    +0.020 C 
ENDBRANCH  11  13
ENDBRANCH  10  11
ENDBRANCH   7  10
ENDBRANCH   1   7
BRANCH   5  14
ATOM     14  O   LIG    1        4.194  -4.551   4.966  0.00  0.00    -0.540 OA
ATOM     15  H   LIG    1        5.118  -4.289   5.076  0.00  0.00    +0.410 HD
ENDBRANCH   5  14
BRANCH   4  16
ATOM     16  O   LIG    1        5.667  -3.999   2.577  0.00  0.00    -0.550 OA
ATOM     17  H   LIG    1        6.202  -4.264   1.817  0.00  0.00    +0.400 HD
ENDBRANCH   4  16
BRANCH   6  18
ATOM     18  O   LIG    1        1.390  -4.000   4.832  0.00  0.00    -0.560 OA
ATOM     19  H   LIG    1        1.738  -4.280   5.690  0.00  0.00    +0.420 HD
ENDBRANCH   6  18
BRANCH   3  20
ATOM     20  C   LIG    1        4.330  -4.524   0.052  0.00  0.00    +0.230 C 
BRANCH  20  21
ATOM     21  O   LIG    1        3.733  -3.957  -1.116  0.00  0.00    -0.570 OA
ATOM     22  H   LIG    1        4.137  -4.249  -1.945  0.00  0.00    +0.400 HD
ENDBRANCH  20  21
ENDBRANCH   3  20
TORSDOF 9
ENDMDL
MODEL      250
REMARK  Name = ZINC000004533914
REMARK                            x       y       z     vdW  Elec       q    Type
REMARK                         _______ _______ _______ _____ _____    ______ ____
ROOT
ATOM      1  C   LIG    1       -2.369  -2.831  -0.002  0.00  0.00    +0.450 C 
ATOM      2  C   LIG    1       -2.490  -3.686  -1.289  0.00  0.00    +0.020 C 
ATOM      3  C   LIG    1       -4.023  -3.866  -1.415  0.00  0.00    +0.190 C 
ATOM      4  C   LIG    1       -4.609  -2.714  -0.577  0.00  0.00    +0.180 C 
ATOM      5  O   LIG    1       -3.503  -1.941  -0.076  0.00  0.00    -0.390 OA
ENDROOT
BRANCH   1   9
ATOM      6  C   LIG    1       -0.018   1.503   0.010  0.00  0.00    +0.140 C 
ATOM      7  C   LIG    1        0.002  -0.004   0.002  0.00  0.00    -0.240 A 
ATOM      8  C   LIG    1       -1.153  -0.704   0.004  0.00  0.00    +0.330 A 
ATOM      9  N   LIG    1       -1.116  -2.072  -0.004  0.00  0.00    -0.540 N 
ATOM     10  C   LIG    1        0.060  -2.726  -0.013  0.00  0.00    +0.710 A 
ATOM     11  N   LIG    1        1.226  -2.053  -0.016  0.00  0.00    -0.650 N 
ATOM     12  H   LIG    1        2.064  -2.540  -0.023  0.00  0.00    +0.440 HD
ATOM     13  O   LIG    1        0.069  -3.942  -0.020  0.00  0.00    -0.530 OA
ATOM     14  C   LIG    1        1.232  -0.705  -0.013  0.00  0.00    +0.550 A 
ATOM     15  O   LIG    1        2.287  -0.095  -0.016  0.00  0.00    -0.490 OA
ENDBRANCH   1   9
BRANCH   3  16
ATOM     16  O   LIG    1       -4.429  -3.753  -2.780  0.00  0.00    -0.560 OA
ATOM     17  H   LIG    1       -4.043  -4.421  -3.363  0.00  0.00    +0.410 HD
ENDBRANCH   3  16
BRANCH   4  18
ATOM     18  C   LIG    1       -5.507  -1.838  -1.453  0.00  0.00    +0.320 C 
BRANCH  18  19
ATOM     19  N   LIG    1       -6.061  -0.743  -0.646  0.00  0.00    -0.640 N 
ATOM     20  H   LIG    1       -5.307  -0.185  -0.274  0.00  0.00    +0.440 HD
ATOM     21  H   LIG    1       -6.602  -1.125   0.115  0.00  0.00    +0.440 HD
ATOM     22  H   LIG    1       -6.653  -0.165  -1.223  0.00  0.00    +0.440 HD
ENDBRANCH  18  19
ENDBRANCH   4  18
TORSDOF 4
ENDMDL
MODEL      251
REMARK  Name = ZINC000037802588
REMARK                            x       y       z     vdW  Elec       q    Type
REMARK                         _______ _______ _______ _____ _____    ______ ____
ROOT
ATOM      1  C   LIG    1       -1.414  -2.036   0.129  0.00  0.00    +0.500 C 
ATOM      2  N   LIG    1       -1.226  -2.617   1.330  0.00  0.00    -0.580 N 
ATOM      3  C   LIG    1       -1.045  -1.798   2.537  0.00  0.00    +0.280 C 
ATOM      4  C   LIG    1       -2.091  -2.220   3.576  0.00  0.00    +0.300 C 
ATOM      5  N   LIG    1       -2.064  -3.683   3.703  0.00  0.00    -1.010 NA
ATOM      6  C   LIG    1       -2.245  -4.502   2.496  0.00  0.00    +0.300 C 
ATOM      7  C   LIG    1       -1.204  -4.081   1.458  0.00  0.00    +0.300 C 
ATOM      8  O   LIG    1       -1.567  -2.722  -0.860  0.00  0.00    -0.520 OA
ENDROOT
BRANCH   5   9
ATOM      9  S   LIG    1       -1.835  -4.397   5.179  0.00  0.00    +2.610 S 
ATOM     10  O   LIG    1       -1.113  -3.429   5.928  0.00  0.00    -0.950 OA
ATOM     11  O   LIG    1       -1.263  -5.661   4.872  0.00  0.00    -0.940 OA
ATOM     12  C   LIG    1       -3.508  -4.602   5.849  0.00  0.00    -0.280 C 
ENDBRANCH   5   9
BRANCH   1  13
ATOM     13  C   LIG    1       -1.433  -0.534   0.013  0.00  0.00    +0.180 C 
BRANCH  13  14
ATOM     14  N   LIG    1       -2.107  -0.147  -1.234  0.00  0.00    -0.620 N 
ATOM     15  H   LIG    1       -3.054  -0.496  -1.227  0.00  0.00    +0.440 HD
ATOM     16  H   LIG    1       -1.610  -0.539  -2.020  0.00  0.00    +0.440 HD
ATOM     17  H   LIG    1       -2.120   0.859  -1.311  0.00  0.00    +0.440 HD
ENDBRANCH  13  14
BRANCH  13  19
ATOM     18  C   LIG    1       -0.019   1.526   0.010  0.00  0.00    +0.060 C 
ATOM     19  C   LIG    1        0.002  -0.004   0.002  0.00  0.00    +0.070 C 
ENDBRANCH  13  19
ENDBRANCH   1  13
TORSDOF 4
ENDMDL
MODEL      252
REMARK  Name = ZINC000037802587
REMARK                            x       y       z     vdW  Elec       q    Type
REMARK                         _______ _______ _______ _____ _____    ______ ____
ROOT
ATOM      1  C   LIG    1       -1.416  -2.035  -0.119  0.00  0.00    +0.500 C 
ATOM      2  N   LIG    1       -1.251  -2.603  -1.330  0.00  0.00    -0.580 N 
ATOM      3  C   LIG    1       -1.081  -1.771  -2.530  0.00  0.00    +0.280 C 
ATOM      4  C   LIG    1        0.219  -2.182  -3.231  0.00  0.00    +0.300 C 
ATOM      5  N   LIG    1        0.233  -3.645  -3.376  0.00  0.00    -1.010 NA
ATOM      6  C   LIG    1        0.063  -4.476  -2.176  0.00  0.00    +0.300 C 
ATOM      7  C   LIG    1       -1.232  -4.065  -1.474  0.00  0.00    +0.300 C 
ATOM      8  O   LIG    1       -1.550  -2.732   0.864  0.00  0.00    -0.520 OA
ENDROOT
BRANCH   5   9
ATOM      9  S   LIG    1        0.436  -4.343  -4.864  0.00  0.00    +2.610 S 
ATOM     10  O   LIG    1       -0.044  -3.366  -5.777  0.00  0.00    -0.950 OA
ATOM     11  O   LIG    1       -0.197  -5.609  -4.746  0.00  0.00    -0.940 OA
ATOM     12  C   LIG    1        2.231  -4.541  -5.029  0.00  0.00    -0.280 C 
ENDBRANCH   5   9
BRANCH   1  13
ATOM     13  C   LIG    1       -1.433  -0.534   0.013  0.00  0.00    +0.170 C 
BRANCH  13  14
ATOM     14  N   LIG    1       -2.083  -0.161   1.276  0.00  0.00    -0.620 N 
ATOM     15  H   LIG    1       -2.095   0.844   1.365  0.00  0.00    +0.440 HD
ATOM     16  H   LIG    1       -1.571  -0.560   2.049  0.00  0.00    +0.440 HD
ATOM     17  H   LIG    1       -3.030  -0.510   1.284  0.00  0.00    +0.440 HD
ENDBRANCH  13  14
BRANCH  13  19
ATOM     18  C   LIG    1       -0.019   1.526   0.010  0.00  0.00    +0.060 C 
ATOM     19  C   LIG    1        0.002  -0.004   0.002  0.00  0.00    +0.070 C 
ENDBRANCH  13  19
ENDBRANCH   1  13
TORSDOF 4
ENDMDL
MODEL      253
REMARK  Name = ZINC000049943434
REMARK                            x       y       z     vdW  Elec       q    Type
REMARK                         _______ _______ _______ _____ _____    ______ ____
ROOT
ATOM      1  O   LIG    1        0.002  -0.004   0.002  0.00  0.00    -0.510 OA
ATOM      2  C   LIG    1       -0.014   1.209   0.009  0.00  0.00    +0.520 C 
ATOM      3  C   LIG    1       -1.322   1.958   0.032  0.00  0.00    +0.080 C 
ATOM      4  C   LIG    1       -1.769   2.140   1.459  0.00  0.00    +0.530 C 
ATOM      5  N   LIG    1       -1.424   3.286   2.116  0.00  0.00    -0.760 N 
ATOM      6  H   LIG    1       -0.908   3.989   1.691  0.00  0.00    +0.410 HD
ATOM      7  C   LIG    1       -1.887   3.388   3.517  0.00  0.00    +0.310 C 
ATOM      8  C   LIG    1       -0.865   4.200   4.314  0.00  0.00    +0.270 C 
ATOM      9  N   LIG    1        0.368   3.417   4.472  0.00  0.00    -0.510 N 
ATOM     10  C   LIG    1        1.527   4.256   4.141  0.00  0.00    +0.260 C 
ATOM     11  C   LIG    1        2.795   3.401   4.149  0.00  0.00    +0.050 C 
ATOM     12  C   LIG    1        3.349   3.296   2.727  0.00  0.00    +0.180 C 
ATOM     13  N   LIG    1        3.062   1.960   2.186  0.00  0.00    -0.700 NA
ATOM     14  H   LIG    1        3.506   1.243   2.740  0.00  0.00    +0.350 HD
ATOM     15  C   LIG    1        3.468   1.864   0.778  0.00  0.00    +0.180 C 
ATOM     16  C   LIG    1        2.393   1.115  -0.013  0.00  0.00    +0.270 C 
ATOM     17  H   LIG    1        0.341   2.620   3.854  0.00  0.00    +0.430 HD
ATOM     18  H   LIG    1        0.445   3.100   5.427  0.00  0.00    +0.430 HD
ATOM     19  O   LIG    1       -2.424   1.284   2.015  0.00  0.00    -0.490 OA
ATOM     20  N   LIG    1        1.151   1.919   0.001  0.00  0.00    -0.730 N 
ATOM     21  H   LIG    1        1.164   2.889   0.001  0.00  0.00    +0.400 HD
ENDROOT
TORSDOF 0
ENDMDL
MODEL      254
REMARK  Name = ZINC000020256110
REMARK                            x       y       z     vdW  Elec       q    Type
REMARK                         _______ _______ _______ _____ _____    ______ ____
ROOT
ATOM      1  C   LIG    1       -0.699   1.479   1.216  0.00  0.00    +0.150 C 
ATOM      2  C   LIG    1       -0.719   3.009   1.226  0.00  0.00    +0.040 C 
ATOM      3  C   LIG    1       -1.464   3.503   2.468  0.00  0.00    +0.050 C 
ATOM      4  C   LIG    1       -0.731   3.021   3.724  0.00  0.00    +0.310 C 
ATOM      5  N   LIG    1       -0.579   1.561   3.652  0.00  0.00    -1.000 NA
ATOM      6  C   LIG    1        0.042   0.973   2.458  0.00  0.00    +0.310 C 
ENDROOT
BRANCH   1   7
ATOM      7  N   LIG    1       -0.012   1.005   0.008  0.00  0.00    -0.630 N 
ATOM      8  H   LIG    1       -0.500   1.339  -0.810  0.00  0.00    +0.440 HD
ATOM      9  H   LIG    1        0.935   1.354   0.000  0.00  0.00    +0.440 HD
ATOM     10  H   LIG    1        0.002  -0.004   0.002  0.00  0.00    +0.440 HD
ENDBRANCH   1   7
BRANCH   5  11
ATOM     11  S   LIG    1       -1.100   0.597   4.894  0.00  0.00    +2.780 S 
ATOM     12  O   LIG    1       -1.119   1.414   6.056  0.00  0.00    -0.950 OA
ATOM     13  O   LIG    1       -0.355  -0.610   4.804  0.00  0.00    -0.960 OA
BRANCH  11  14
ATOM     14  N   LIG    1       -2.676   0.198   4.577  0.00  0.00    -1.010 NA
ATOM     15  C   LIG    1       -3.782   1.040   5.058  0.00  0.00    +0.270 C 
ATOM     16  C   LIG    1       -4.714   1.336   3.877  0.00  0.00    +0.210 C 
ATOM     17  O   LIG    1       -5.080   0.106   3.247  0.00  0.00    -0.370 OA
ATOM     18  C   LIG    1       -3.980  -0.614   2.685  0.00  0.00    +0.200 C 
ATOM     19  C   LIG    1       -3.011  -1.006   3.800  0.00  0.00    +0.270 C 
ENDBRANCH  11  14
ENDBRANCH   5  11
TORSDOF 3
ENDMDL
MODEL      255
REMARK  Name = ZINC000048546987
REMARK                            x       y       z     vdW  Elec       q    Type
REMARK                         _______ _______ _______ _____ _____    ______ ____
ROOT
ATOM      1  C   LIG    1        0.673  -0.582   1.123  0.00  0.00    +0.320 C 
ATOM      2  O   LIG    1        2.050  -0.218   1.082  0.00  0.00    -0.350 OA
ATOM      3  C   LIG    1        2.780  -0.679   2.225  0.00  0.00    +0.160 C 
ATOM      4  C   LIG    1        2.798  -2.208   2.185  0.00  0.00    +0.200 C 
ATOM      5  C   LIG    1        1.397  -2.773   2.150  0.00  0.00    +0.080 C 
ATOM      6  S   LIG    1        0.467  -2.334   3.671  0.00  0.00    -0.120 S 
ATOM      7  C   LIG    1       -1.182  -2.453   2.870  0.00  0.00    +0.330 C 
ATOM      8  N   LIG    1       -0.907  -2.385   1.421  0.00  0.00    -0.510 N 
ATOM      9  H   LIG    1       -1.482  -1.659   1.020  0.00  0.00    +0.450 HD
ATOM     10  H   LIG    1       -1.168  -3.266   1.004  0.00  0.00    +0.440 HD
ATOM     11  C   LIG    1        0.503  -2.104   1.080  0.00  0.00    +0.200 C 
ENDROOT
BRANCH   1  13
ATOM     12  C   LIG    1       -0.017   1.425   0.010  0.00  0.00    +0.260 C 
ATOM     13  O   LIG    1        0.002  -0.004   0.002  0.00  0.00    -0.380 OA
ENDBRANCH   1  13
BRANCH   4  14
ATOM     14  O   LIG    1        3.470  -2.699   3.346  0.00  0.00    -0.540 OA
ATOM     15  H   LIG    1        4.387  -2.401   3.425  0.00  0.00    +0.400 HD
ENDBRANCH   4  14
BRANCH   3  16
ATOM     16  C   LIG    1        4.212  -0.142   2.177  0.00  0.00    +0.220 C 
BRANCH  16  17
ATOM     17  O   LIG    1        4.190   1.282   2.295  0.00  0.00    -0.560 OA
ATOM     18  H   LIG    1        5.066   1.692   2.272  0.00  0.00    +0.400 HD
ENDBRANCH  16  17
ENDBRANCH   3  16
TORSDOF 4
ENDMDL
MODEL      256
REMARK  Name = ZINC000048547241
REMARK                            x       y       z     vdW  Elec       q    Type
REMARK                         _______ _______ _______ _____ _____    ______ ____
ROOT
ATOM      1  C   LIG    1        1.493  -3.996   2.415  0.00  0.00    +0.360 C 
ATOM      2  O   LIG    1        0.159  -4.492   2.543  0.00  0.00    -0.350 OA
ATOM      3  C   LIG    1        0.061  -5.917   2.521  0.00  0.00    +0.170 C 
ATOM      4  C   LIG    1        0.849  -6.500   3.697  0.00  0.00    +0.130 C 
ATOM      5  C   LIG    1        2.305  -6.033   3.608  0.00  0.00    +0.180 C 
ATOM      6  C   LIG    1        2.339  -4.502   3.587  0.00  0.00    +0.180 C 
ENDROOT
BRANCH   1   7
ATOM      7  N   LIG    1        1.473  -2.527   2.423  0.00  0.00    -0.500 N 
ATOM      8  H   LIG    1        1.001  -2.202   3.253  0.00  0.00    +0.430 HD
ATOM      9  H   LIG    1        2.420  -2.178   2.416  0.00  0.00    +0.450 HD
BRANCH   7  10
ATOM     10  C   LIG    1        0.763  -2.041   1.233  0.00  0.00    +0.260 C 
BRANCH  10  11
ATOM     11  C   LIG    1        0.742  -0.511   1.242  0.00  0.00    +0.030 C 
BRANCH  11  13
ATOM     12  C   LIG    1       -0.019   1.526   0.010  0.00  0.00    +0.030 C 
ATOM     13  C   LIG    1        0.002  -0.004   0.002  0.00  0.00    +0.020 C 
ENDBRANCH  11  13
ENDBRANCH  10  11
ENDBRANCH   7  10
ENDBRANCH   1   7
BRANCH   5  14
ATOM     14  O   LIG    1        3.032  -6.514   4.740  0.00  0.00    -0.540 OA
ATOM     15  H   LIG    1        3.046  -7.478   4.818  0.00  0.00    +0.400 HD
ENDBRANCH   5  14
BRANCH   4  16
ATOM     16  O   LIG    1        0.276  -6.048   4.926  0.00  0.00    -0.540 OA
ATOM     17  H   LIG    1       -0.648  -6.305   5.047  0.00  0.00    +0.390 HD
ENDBRANCH   4  16
BRANCH   6  18
ATOM     18  O   LIG    1        3.688  -4.056   3.432  0.00  0.00    -0.560 OA
ATOM     19  H   LIG    1        4.281  -4.344   4.139  0.00  0.00    +0.420 HD
ENDBRANCH   6  18
BRANCH   3  20
ATOM     20  C   LIG    1       -1.408  -6.330   2.635  0.00  0.00    +0.230 C 
BRANCH  20  21
ATOM     21  O   LIG    1       -2.119  -5.884   1.479  0.00  0.00    -0.570 OA
ATOM     22  H   LIG    1       -3.059  -6.111   1.484  0.00  0.00    +0.400 HD
ENDBRANCH  20  21
ENDBRANCH   3  20
TORSDOF 9
ENDMDL
MODEL      257
REMARK  Name = ZINC000237595541
REMARK                            x       y       z     vdW  Elec       q    Type
REMARK                         _______ _______ _______ _____ _____    ______ ____
ROOT
ATOM      1  C   LIG    1       -0.019   1.526   0.010  0.00  0.00    +0.110 C 
ATOM      2  C   LIG    1        0.002  -0.004   0.002  0.00  0.00    +0.160 C 
ATOM      3  C   LIG    1        0.720  -0.498  -1.258  0.00  0.00    +0.320 C 
ATOM      4  N   LIG    1        0.843  -1.962  -1.181  0.00  0.00    -0.640 N 
ATOM      5  C   LIG    1        1.396  -2.547   0.050  0.00  0.00    +0.310 C 
ATOM      6  C   LIG    1        0.647  -1.956   1.248  0.00  0.00    +0.270 C 
ATOM      7  C   LIG    1        0.459  -2.745  -2.209  0.00  0.00    +0.510 C 
ATOM      8  O   LIG    1        0.005  -2.244  -3.216  0.00  0.00    -0.500 OA
ATOM      9  N   LIG    1        0.713  -0.491   1.191  0.00  0.00    -0.500 N 
ATOM     10  H   LIG    1        0.283  -0.103   2.018  0.00  0.00    +0.430 HD
ATOM     11  H   LIG    1        1.678  -0.200   1.147  0.00  0.00    +0.430 HD
ENDROOT
BRANCH   7  12
ATOM     12  C   LIG    1        0.595  -4.243  -2.107  0.00  0.00    +0.320 C 
BRANCH  12  13
ATOM     13  N   LIG    1        0.113  -4.862  -3.345  0.00  0.00    -0.590 N 
ATOM     14  C   LIG    1       -1.298  -5.224  -3.440  0.00  0.00    +0.230 C 
ATOM     15  C   LIG    1       -1.690  -5.422  -4.905  0.00  0.00    +0.240 C 
ATOM     16  N   LIG    1       -0.717  -6.327  -5.537  0.00  0.00    -0.670 NA
ATOM     17  H   LIG    1       -0.638  -7.190  -5.021  0.00  0.00    +0.350 HD
ATOM     18  C   LIG    1        0.588  -5.663  -5.658  0.00  0.00    +0.290 C 
ATOM     19  C   LIG    1        0.985  -5.065  -4.338  0.00  0.00    +0.490 C 
ATOM     20  O   LIG    1        2.146  -4.761  -4.164  0.00  0.00    -0.540 OA
ENDBRANCH  12  13
ENDBRANCH   7  12
TORSDOF 2
ENDMDL
MODEL      258
REMARK  Name = ZINC000237421599
REMARK                            x       y       z     vdW  Elec       q    Type
REMARK                         _______ _______ _______ _____ _____    ______ ____
ROOT
ATOM      1  C   LIG    1       -0.019   1.526   0.010  0.00  0.00    +0.110 C 
ATOM      2  C   LIG    1        0.002  -0.004   0.002  0.00  0.00    +0.150 C 
ATOM      3  C   LIG    1       -1.435  -0.535   0.013  0.00  0.00    +0.320 C 
ATOM      4  N   LIG    1       -1.391  -2.000   0.137  0.00  0.00    -0.640 N 
ATOM      5  C   LIG    1       -0.566  -2.580   1.208  0.00  0.00    +0.310 C 
ATOM      6  C   LIG    1        0.830  -1.953   1.140  0.00  0.00    +0.270 C 
ATOM      7  C   LIG    1       -2.085  -2.788  -0.708  0.00  0.00    +0.510 C 
ATOM      8  O   LIG    1       -2.759  -2.291  -1.585  0.00  0.00    -0.500 OA
ATOM      9  N   LIG    1        0.712  -0.491   1.192  0.00  0.00    -0.500 N 
ATOM     10  H   LIG    1        0.199  -0.225   2.019  0.00  0.00    +0.430 HD
ATOM     11  H   LIG    1        1.633  -0.081   1.223  0.00  0.00    +0.430 HD
ENDROOT
BRANCH   7  12
ATOM     12  C   LIG    1       -2.024  -4.287  -0.562  0.00  0.00    +0.320 C 
BRANCH  12  13
ATOM     13  N   LIG    1       -2.858  -4.912  -1.591  0.00  0.00    -0.590 N 
ATOM     14  C   LIG    1       -4.263  -5.168  -1.290  0.00  0.00    +0.240 C 
ATOM     15  C   LIG    1       -5.046  -5.388  -2.586  0.00  0.00    +0.240 C 
ATOM     16  N   LIG    1       -4.338  -6.388  -3.401  0.00  0.00    -0.670 NA
ATOM     17  H   LIG    1       -4.179  -7.235  -2.877  0.00  0.00    +0.350 HD
ATOM     18  C   LIG    1       -3.073  -5.832  -3.899  0.00  0.00    +0.290 C 
ATOM     19  C   LIG    1       -2.300  -5.218  -2.767  0.00  0.00    +0.490 C 
ATOM     20  O   LIG    1       -1.117  -4.998  -2.923  0.00  0.00    -0.550 OA
ENDBRANCH  12  13
ENDBRANCH   7  12
TORSDOF 2
ENDMDL
MODEL      259
REMARK  Name = ZINC000104145238
REMARK                            x       y       z     vdW  Elec       q    Type
REMARK                         _______ _______ _______ _____ _____    ______ ____
ROOT
ATOM      1  C   LIG    1       -1.286  -0.412   0.071  0.00  0.00    +0.280 C 
ATOM      2  C   LIG    1       -1.058  -1.899   0.066  0.00  0.00    +0.520 C 
ATOM      3  N   LIG    1       -1.192  -2.658   1.155  0.00  0.00    -0.720 N 
ATOM      4  H   LIG    1       -0.964  -3.598   1.079  0.00  0.00    +0.410 HD
ATOM      5  C   LIG    1       -1.654  -2.175   2.448  0.00  0.00    +0.260 C 
ATOM      6  C   LIG    1       -1.452  -0.663   2.566  0.00  0.00    +0.280 C 
ATOM      7  O   LIG    1       -0.740  -2.432  -0.976  0.00  0.00    -0.520 OA
ATOM      8  N   LIG    1       -1.949  -0.034   1.328  0.00  0.00    -0.610 N 
ATOM      9  C   LIG    1       -2.967   0.850   1.349  0.00  0.00    +0.530 C 
ATOM     10  O   LIG    1       -3.294   1.423   0.332  0.00  0.00    -0.470 OA
ENDROOT
BRANCH   9  11
ATOM     11  C   LIG    1       -3.699   1.125   2.638  0.00  0.00    +0.160 C 
ATOM     12  C   LIG    1       -4.521  -0.105   3.031  0.00  0.00    +0.260 C 
ATOM     13  N   LIG    1       -5.278   0.187   4.256  0.00  0.00    -0.500 N 
ATOM     14  C   LIG    1       -6.178   1.324   4.016  0.00  0.00    +0.250 C 
ATOM     15  C   LIG    1       -5.353   2.550   3.620  0.00  0.00    +0.270 C 
ATOM     16  H   LIG    1       -4.638   0.417   5.001  0.00  0.00    +0.430 HD
ATOM     17  H   LIG    1       -5.821  -0.622   4.517  0.00  0.00    +0.440 HD
ATOM     18  O   LIG    1       -4.574   2.242   2.461  0.00  0.00    -0.330 OA
ENDBRANCH   9  11
BRANCH   1  20
ATOM     19  C   LIG    1       -0.184   1.819  -0.153  0.00  0.00    +0.030 C 
ATOM     20  C   LIG    1        0.057   0.312  -0.038  0.00  0.00    +0.030 C 
ENDBRANCH   1  20
TORSDOF 2
ENDMDL
MODEL      260
REMARK  Name = ZINC000020218472
REMARK                            x       y       z     vdW  Elec       q    Type
REMARK                         _______ _______ _______ _____ _____    ______ ____
ROOT
ATOM      1  O   LIG    1        0.002  -0.004   0.002  0.00  0.00    -0.960 OA
ATOM      2  S   LIG    1       -0.017   1.417   0.010  0.00  0.00    +2.780 S 
ATOM      3  O   LIG    1        1.162   2.210   0.003  0.00  0.00    -0.950 OA
ENDROOT
BRANCH   2   4
ATOM      4  N   LIG    1       -0.875   1.865   1.354  0.00  0.00    -1.020 NA
ATOM      5  C   LIG    1       -0.683   3.163   1.944  0.00  0.00    +0.280 C 
ATOM      6  C   LIG    1        0.387   3.254   3.057  0.00  0.00    +0.060 C 
ATOM      7  C   LIG    1        0.290   2.024   3.989  0.00  0.00    +0.250 C 
ATOM      8  N   LIG    1       -1.095   1.675   4.198  0.00  0.00    -0.490 N 
ATOM      9  C   LIG    1       -1.328   0.554   3.293  0.00  0.00    +0.240 C 
ATOM     10  H   LIG    1       -1.694   2.453   3.960  0.00  0.00    +0.430 HD
ATOM     11  H   LIG    1       -1.248   1.394   5.154  0.00  0.00    +0.440 HD
ATOM     12  C   LIG    1       -1.870   0.926   1.973  0.00  0.00    +0.350 C 
ENDBRANCH   2   4
BRANCH   2  13
ATOM     13  N   LIG    1       -0.900   1.880  -1.312  0.00  0.00    -1.000 NA
ATOM     14  C   LIG    1       -1.894   0.976  -1.914  0.00  0.00    +0.270 C 
ATOM     15  C   LIG    1       -3.212   1.742  -2.069  0.00  0.00    +0.210 C 
ATOM     16  O   LIG    1       -2.966   2.968  -2.763  0.00  0.00    -0.370 OA
ATOM     17  C   LIG    1       -2.091   3.864  -2.075  0.00  0.00    +0.210 C 
ATOM     18  C   LIG    1       -0.719   3.209  -1.917  0.00  0.00    +0.270 C 
ENDBRANCH   2  13
TORSDOF 2
ENDMDL
MODEL      261
REMARK  Name = ZINC000006447457
REMARK                            x       y       z     vdW  Elec       q    Type
REMARK                         _______ _______ _______ _____ _____    ______ ____
ROOT
ATOM      1  C   LIG    1       -0.018   1.461   0.010  0.00  0.00    +0.340 C 
ATOM      2  N   LIG    1        0.002  -0.004   0.002  0.00  0.00    -0.520 N 
ATOM      3  C   LIG    1       -1.185  -0.700   0.004  0.00  0.00    +0.300 A 
ATOM      4  C   LIG    1       -1.156  -2.089  -0.004  0.00  0.00    -0.090 A 
ATOM      5  C   LIG    1        0.147  -2.756  -0.014  0.00  0.00    +0.590 A 
ATOM      6  N   LIG    1        1.262  -1.993  -0.015  0.00  0.00    -0.550 N 
ATOM      7  C   LIG    1        2.578  -2.637  -0.025  0.00  0.00    +0.370 C 
ATOM      8  O   LIG    1        0.225  -3.971  -0.021  0.00  0.00    -0.470 OA
ATOM      9  N   LIG    1       -2.440  -2.521   0.001  0.00  0.00    -0.390 NA
ATOM     10  C   LIG    1       -3.235  -1.491   0.010  0.00  0.00    +0.190 A 
ATOM     11  N   LIG    1       -2.497  -0.344   0.013  0.00  0.00    -0.550 N 
ATOM     12  H   LIG    1       -2.844   0.562   0.020  0.00  0.00    +0.430 HD
ATOM     13  C   LIG    1        1.180  -0.652  -0.013  0.00  0.00    +0.710 A 
ATOM     14  O   LIG    1        2.208  -0.002  -0.014  0.00  0.00    -0.510 OA
ENDROOT
BRANCH  10  15
ATOM     15  C   LIG    1       -4.741  -1.556   0.018  0.00  0.00    +0.180 C 
BRANCH  15  16
ATOM     16  C   LIG    1       -5.221  -2.397  -1.167  0.00  0.00    +0.290 C 
BRANCH  16  17
ATOM     17  N   LIG    1       -6.689  -2.460  -1.159  0.00  0.00    -0.640 N 
ATOM     18  H   LIG    1       -7.003  -2.881  -0.298  0.00  0.00    +0.440 HD
ATOM     19  H   LIG    1       -7.005  -3.015  -1.940  0.00  0.00    +0.440 HD
ATOM     20  H   LIG    1       -7.066  -1.527  -1.235  0.00  0.00    +0.440 HD
ENDBRANCH  16  17
ENDBRANCH  15  16
ENDBRANCH  10  15
TORSDOF 3
ENDMDL
MODEL      262
REMARK  Name = ZINC000002075451
REMARK                            x       y       z     vdW  Elec       q    Type
REMARK                         _______ _______ _______ _____ _____    ______ ____
ROOT
ATOM      1  C   LIG    1       -0.018   1.461   0.010  0.00  0.00    +0.350 C 
ATOM      2  N   LIG    1        0.002  -0.004   0.002  0.00  0.00    -0.510 N 
ATOM      3  C   LIG    1       -1.189  -0.712   0.004  0.00  0.00    +0.330 A 
ATOM      4  C   LIG    1       -1.144  -2.100  -0.004  0.00  0.00    -0.160 A 
ATOM      5  N   LIG    1       -2.456  -2.530   0.000  0.00  0.00    -0.420 N 
ATOM      6  C   LIG    1       -3.231  -1.427   0.010  0.00  0.00    +0.510 A 
ATOM      7  C   LIG    1        0.111  -2.748  -0.013  0.00  0.00    +0.600 A 
ATOM      8  N   LIG    1        1.236  -2.003  -0.015  0.00  0.00    -0.550 N 
ATOM      9  C   LIG    1        2.541  -2.668  -0.025  0.00  0.00    +0.350 C 
ATOM     10  O   LIG    1        0.176  -3.964  -0.021  0.00  0.00    -0.530 OA
ATOM     11  N   LIG    1       -2.477  -0.358   0.012  0.00  0.00    -0.490 NA
ATOM     12  C   LIG    1        1.178  -0.660  -0.013  0.00  0.00    +0.700 A 
ATOM     13  O   LIG    1        2.213  -0.022  -0.014  0.00  0.00    -0.520 OA
ENDROOT
BRANCH   5  14
ATOM     14  C   LIG    1       -2.918  -3.920  -0.005  0.00  0.00    +0.340 C 
BRANCH  14  15
ATOM     15  C   LIG    1       -2.953  -4.450   1.430  0.00  0.00    +0.030 C 
BRANCH  15  16
ATOM     16  C   LIG    1       -3.436  -5.902   1.425  0.00  0.00    +0.280 C 
BRANCH  16  17
ATOM     17  N   LIG    1       -3.469  -6.412   2.803  0.00  0.00    -0.640 N 
ATOM     18  H   LIG    1       -4.100  -5.849   3.354  0.00  0.00    +0.440 HD
ATOM     19  H   LIG    1       -2.543  -6.367   3.201  0.00  0.00    +0.440 HD
ATOM     20  H   LIG    1       -3.788  -7.369   2.800  0.00  0.00    +0.440 HD
ENDBRANCH  16  17
ENDBRANCH  15  16
ENDBRANCH  14  15
ENDBRANCH   5  14
TORSDOF 4
ENDMDL
MODEL      263
REMARK  Name = ZINC000660778259
REMARK                            x       y       z     vdW  Elec       q    Type
REMARK                         _______ _______ _______ _____ _____    ______ ____
ROOT
ATOM      1  N   LIG    1        0.607  -0.528   3.752  0.00  0.00    -0.380 N 
ATOM      2  C   LIG    1       -0.300  -0.273   4.881  0.00  0.00    +0.270 C 
ATOM      3  C   LIG    1        0.279  -0.926   6.137  0.00  0.00    +0.320 C 
ATOM      4  N   LIG    1        1.674  -0.524   6.307  0.00  0.00    -0.590 N 
ATOM      5  C   LIG    1        2.399   0.001   5.314  0.00  0.00    +0.510 C 
ATOM      6  O   LIG    1        3.558   0.287   5.528  0.00  0.00    -0.490 OA
ATOM      7  C   LIG    1        1.838   0.249   3.942  0.00  0.00    +0.320 C 
ATOM      8  H   LIG    1        0.831  -1.512   3.714  0.00  0.00    +0.440 HD
ENDROOT
BRANCH   1   9
ATOM      9  C   LIG    1       -0.042  -0.124   2.497  0.00  0.00    +0.240 C 
BRANCH   9  10
ATOM     10  C   LIG    1       -1.238  -1.037   2.224  0.00  0.00    +0.210 C 
BRANCH  10  12
ATOM     11  C   LIG    1       -1.009  -0.774  -0.250  0.00  0.00    +0.040 C 
ATOM     12  C   LIG    1       -1.945  -0.583   0.945  0.00  0.00    -0.030 C 
ATOM     13  C   LIG    1       -3.211  -1.417   0.739  0.00  0.00    +0.050 C 
ENDBRANCH  10  12
BRANCH  10  14
ATOM     14  O   LIG    1       -0.783  -2.383   2.065  0.00  0.00    -0.550 OA
ATOM     15  H   LIG    1       -0.159  -2.503   1.336  0.00  0.00    +0.390 HD
ENDBRANCH  10  14
ENDBRANCH   9  10
ENDBRANCH   1   9
BRANCH   4  16
ATOM     16  C   LIG    1        2.303  -0.706   7.618  0.00  0.00    +0.340 C 
BRANCH  16  17
ATOM     17  C   LIG    1        2.940  -2.070   7.685  0.00  0.00    +0.500 C 
ATOM     18  O   LIG    1        2.875  -2.817   6.732  0.00  0.00    -0.540 OA
ATOM     19  N   LIG    1        3.582  -2.459   8.804  0.00  0.00    -0.850 N 
ATOM     20  H   LIG    1        3.992  -3.337   8.848  0.00  0.00    +0.410 HD
ATOM     21  H   LIG    1        3.634  -1.862   9.566  0.00  0.00    +0.410 HD
ENDBRANCH  16  17
ENDBRANCH   4  16
TORSDOF 6
ENDMDL
MODEL      264
REMARK  Name = ZINC000026476587
REMARK                            x       y       z     vdW  Elec       q    Type
REMARK                         _______ _______ _______ _____ _____    ______ ____
ROOT
ATOM      1  C   LIG    1       -0.018   1.461   0.010  0.00  0.00    +0.360 C 
ATOM      2  N   LIG    1        0.002  -0.004   0.002  0.00  0.00    -0.550 N 
ATOM      3  C   LIG    1        0.006  -0.669  -1.171  0.00  0.00    +0.540 A 
ATOM      4  C   LIG    1        0.025  -2.085  -1.167  0.00  0.00    -0.070 A 
ATOM      5  C   LIG    1        0.040  -2.738   0.015  0.00  0.00    +0.160 A 
ATOM      6  N   LIG    1        0.036  -2.026   1.183  0.00  0.00    -0.540 N 
ATOM      7  C   LIG    1        0.052  -2.735   2.465  0.00  0.00    +0.330 C 
ATOM      8  O   LIG    1       -0.008  -0.058  -2.224  0.00  0.00    -0.490 OA
ATOM      9  C   LIG    1        0.022  -0.681   1.165  0.00  0.00    +0.690 A 
ATOM     10  O   LIG    1        0.019  -0.067   2.215  0.00  0.00    -0.520 OA
ENDROOT
BRANCH   5  11
ATOM     11  C   LIG    1        0.062  -4.245   0.047  0.00  0.00    +0.390 C 
BRANCH  11  12
ATOM     12  N   LIG    1        1.323  -4.703   0.635  0.00  0.00    -0.710 N 
ATOM     13  H   LIG    1        1.984  -4.056   0.930  0.00  0.00    +0.420 HD
ATOM     14  C   LIG    1        1.566  -6.022   0.766  0.00  0.00    +0.500 C 
ATOM     15  O   LIG    1        0.740  -6.830   0.397  0.00  0.00    -0.520 OA
BRANCH  14  16
ATOM     16  C   LIG    1        2.863  -6.493   1.371  0.00  0.00    +0.310 C 
BRANCH  16  17
ATOM     17  N   LIG    1        2.884  -7.961   1.402  0.00  0.00    -0.620 N 
ATOM     18  H   LIG    1        3.753  -8.277   1.807  0.00  0.00    +0.450 HD
ATOM     19  H   LIG    1        2.802  -8.319   0.462  0.00  0.00    +0.440 HD
ATOM     20  H   LIG    1        2.112  -8.297   1.958  0.00  0.00    +0.440 HD
ENDBRANCH  16  17
ENDBRANCH  14  16
ENDBRANCH  11  12
ENDBRANCH   5  11
TORSDOF 4
ENDMDL
MODEL      265
REMARK  Name = ZINC000032107321
REMARK                            x       y       z     vdW  Elec       q    Type
REMARK                         _______ _______ _______ _____ _____    ______ ____
ROOT
ATOM      1  C   LIG    1        0.195  -2.359   0.814  0.00  0.00    +0.170 C 
ATOM      2  O   LIG    1        0.729  -2.707  -0.466  0.00  0.00    -0.360 OA
ATOM      3  C   LIG    1        1.084  -4.085  -0.594  0.00  0.00    +0.340 C 
ATOM      4  C   LIG    1        2.169  -4.429   0.430  0.00  0.00    +0.180 C 
ATOM      5  C   LIG    1        1.653  -4.108   1.836  0.00  0.00    +0.170 C 
ATOM      6  C   LIG    1        1.244  -2.633   1.894  0.00  0.00    +0.150 C 
ENDROOT
BRANCH   4   7
ATOM      7  N   LIG    1        2.495  -5.858   0.339  0.00  0.00    -0.620 N 
ATOM      8  H   LIG    1        1.662  -6.404   0.500  0.00  0.00    +0.430 HD
ATOM      9  H   LIG    1        3.189  -6.090   1.034  0.00  0.00    +0.440 HD
ATOM     10  H   LIG    1        2.859  -6.063  -0.580  0.00  0.00    +0.450 HD
ENDBRANCH   4   7
BRANCH   5  11
ATOM     11  O   LIG    1        2.685  -4.359   2.793  0.00  0.00    -0.380 OA
ATOM     12  C   LIG    1        2.219  -4.949   4.008  0.00  0.00    +0.240 C 
ENDBRANCH   5  11
BRANCH   3  13
ATOM     13  O   LIG    1        1.579  -4.329  -1.913  0.00  0.00    -0.550 OA
ATOM     14  H   LIG    1        0.943  -4.132  -2.614  0.00  0.00    +0.420 HD
ENDBRANCH   3  13
BRANCH   6  15
ATOM     15  O   LIG    1        0.695  -2.341   3.180  0.00  0.00    -0.360 OA
ATOM     16  C   LIG    1        1.100  -1.077   3.712  0.00  0.00    +0.230 C 
ENDBRANCH   6  15
BRANCH   1  17
ATOM     17  C   LIG    1       -0.174  -0.875   0.826  0.00  0.00    +0.200 C 
BRANCH  17  19
ATOM     18  C   LIG    1       -1.663   0.722  -0.164  0.00  0.00    +0.230 C 
ATOM     19  O   LIG    1       -1.239  -0.641  -0.098  0.00  0.00    -0.380 OA
ENDBRANCH  17  19
ENDBRANCH   1  17
TORSDOF 6
ENDMDL
MODEL      266
REMARK  Name = ZINC000032107323
REMARK                            x       y       z     vdW  Elec       q    Type
REMARK                         _______ _______ _______ _____ _____    ______ ____
ROOT
ATOM      1  C   LIG    1        0.281  -2.383   0.427  0.00  0.00    +0.170 C 
ATOM      2  O   LIG    1        0.993  -2.672  -0.778  0.00  0.00    -0.350 OA
ATOM      3  C   LIG    1        1.454  -4.021  -0.874  0.00  0.00    +0.380 C 
ATOM      4  C   LIG    1        2.421  -4.312   0.276  0.00  0.00    +0.180 C 
ATOM      5  C   LIG    1        1.711  -4.053   1.608  0.00  0.00    +0.180 C 
ATOM      6  C   LIG    1        1.201  -2.609   1.629  0.00  0.00    +0.140 C 
ENDROOT
BRANCH   4   7
ATOM      7  N   LIG    1        2.851  -5.715   0.212  0.00  0.00    -0.620 N 
ATOM      8  H   LIG    1        2.058  -6.318   0.374  0.00  0.00    +0.440 HD
ATOM      9  H   LIG    1        3.552  -5.885   0.919  0.00  0.00    +0.440 HD
ATOM     10  H   LIG    1        3.239  -5.908  -0.699  0.00  0.00    +0.440 HD
ENDBRANCH   4   7
BRANCH   5  11
ATOM     11  O   LIG    1        2.628  -4.253   2.686  0.00  0.00    -0.380 OA
ATOM     12  C   LIG    1        2.054  -4.896   3.826  0.00  0.00    +0.240 C 
ENDBRANCH   5  11
BRANCH   3  13
ATOM     13  O   LIG    1        0.339  -4.912  -0.797  0.00  0.00    -0.590 OA
ATOM     14  H   LIG    1       -0.317  -4.783  -1.496  0.00  0.00    +0.420 HD
ENDBRANCH   3  13
BRANCH   6  15
ATOM     15  O   LIG    1        0.475  -2.377   2.838  0.00  0.00    -0.360 OA
ATOM     16  C   LIG    1        0.724  -1.100   3.430  0.00  0.00    +0.220 C 
ENDBRANCH   6  15
BRANCH   1  17
ATOM     17  C   LIG    1       -0.186  -0.926   0.407  0.00  0.00    +0.200 C 
BRANCH  17  19
ATOM     18  C   LIG    1       -1.641   0.589  -0.747  0.00  0.00    +0.220 C 
ATOM     19  O   LIG    1       -1.139  -0.745  -0.641  0.00  0.00    -0.380 OA
ENDBRANCH  17  19
ENDBRANCH   1  17
TORSDOF 6
ENDMDL
MODEL      267
REMARK  Name = ZINC000110666018
REMARK                            x       y       z     vdW  Elec       q    Type
REMARK                         _______ _______ _______ _____ _____    ______ ____
ROOT
ATOM      1  C   LIG    1       -0.372   1.598   0.643  0.00  0.00    +0.070 C 
ATOM      2  C   LIG    1       -0.061   0.198   0.108  0.00  0.00    +0.170 C 
ATOM      3  C   LIG    1        0.687   0.310  -1.192  0.00  0.00    +0.520 C 
ATOM      4  N   LIG    1        1.988   0.039  -1.308  0.00  0.00    -0.720 N 
ATOM      5  H   LIG    1        2.406   0.199  -2.169  0.00  0.00    +0.410 HD
ATOM      6  C   LIG    1        2.823  -0.481  -0.234  0.00  0.00    +0.260 C 
ATOM      7  C   LIG    1        2.204  -0.174   1.131  0.00  0.00    +0.270 C 
ATOM      8  O   LIG    1        0.079   0.664  -2.180  0.00  0.00    -0.520 OA
ATOM      9  C   LIG    1       -1.367  -0.567  -0.114  0.00  0.00    +0.090 C 
ATOM     10  N   LIG    1        0.775  -0.525   1.078  0.00  0.00    -0.610 N 
ATOM     11  C   LIG    1        0.255  -1.470   1.885  0.00  0.00    +0.530 C 
ATOM     12  O   LIG    1       -0.906  -1.799   1.763  0.00  0.00    -0.470 OA
ENDROOT
BRANCH  11  13
ATOM     13  C   LIG    1        1.115  -2.119   2.938  0.00  0.00    +0.160 C 
ATOM     14  C   LIG    1        2.094  -3.089   2.272  0.00  0.00    +0.260 C 
ATOM     15  N   LIG    1        2.892  -3.763   3.306  0.00  0.00    -0.500 N 
ATOM     16  C   LIG    1        1.999  -4.507   4.205  0.00  0.00    +0.250 C 
ATOM     17  C   LIG    1        1.020  -3.534   4.867  0.00  0.00    +0.270 C 
ATOM     18  H   LIG    1        3.406  -3.075   3.835  0.00  0.00    +0.430 HD
ATOM     19  H   LIG    1        3.538  -4.403   2.868  0.00  0.00    +0.440 HD
ATOM     20  O   LIG    1        0.287  -2.839   3.855  0.00  0.00    -0.330 OA
ENDBRANCH  11  13
TORSDOF 1
ENDMDL
MODEL      268
REMARK  Name = ZINC000110666021
REMARK                            x       y       z     vdW  Elec       q    Type
REMARK                         _______ _______ _______ _____ _____    ______ ____
ROOT
ATOM      1  C   LIG    1       -0.013   1.499   0.369  0.00  0.00    +0.080 C 
ATOM      2  C   LIG    1       -0.006   0.015  -0.001  0.00  0.00    +0.170 C 
ATOM      3  C   LIG    1        0.635  -0.165  -1.350  0.00  0.00    +0.520 C 
ATOM      4  N   LIG    1        1.851  -0.689  -1.512  0.00  0.00    -0.720 N 
ATOM      5  H   LIG    1        2.217  -0.710  -2.410  0.00  0.00    +0.410 HD
ATOM      6  C   LIG    1        2.668  -1.231  -0.435  0.00  0.00    +0.260 C 
ATOM      7  C   LIG    1        2.235  -0.660   0.916  0.00  0.00    +0.270 C 
ATOM      8  O   LIG    1        0.019   0.182  -2.334  0.00  0.00    -0.520 OA
ATOM      9  C   LIG    1       -1.443  -0.511  -0.040  0.00  0.00    +0.100 C 
ATOM     10  N   LIG    1        0.766  -0.738   0.998  0.00  0.00    -0.610 N 
ATOM     11  C   LIG    1        0.156  -1.470   1.951  0.00  0.00    +0.530 C 
ATOM     12  O   LIG    1       -1.051  -1.588   1.944  0.00  0.00    -0.470 OA
ENDROOT
BRANCH  11  13
ATOM     13  C   LIG    1        0.972  -2.142   3.025  0.00  0.00    +0.160 C 
ATOM     14  C   LIG    1        1.563  -1.081   3.957  0.00  0.00    +0.260 C 
ATOM     15  N   LIG    1        2.310  -1.742   5.036  0.00  0.00    -0.500 N 
ATOM     16  C   LIG    1        1.404  -2.613   5.796  0.00  0.00    +0.250 C 
ATOM     17  C   LIG    1        0.814  -3.671   4.860  0.00  0.00    +0.270 C 
ATOM     18  H   LIG    1        2.700  -1.044   5.651  0.00  0.00    +0.440 HD
ATOM     19  H   LIG    1        3.055  -2.295   4.639  0.00  0.00    +0.430 HD
ATOM     20  O   LIG    1        0.136  -3.022   3.780  0.00  0.00    -0.330 OA
ENDBRANCH  11  13
TORSDOF 1
ENDMDL
MODEL      269
REMARK  Name = ZINC000231659808
REMARK                            x       y       z     vdW  Elec       q    Type
REMARK                         _______ _______ _______ _____ _____    ______ ____
ROOT
ATOM      1  C   LIG    1       -1.359  -2.014  -0.120  0.00  0.00    +0.500 C 
ATOM      2  N   LIG    1       -2.517  -2.702  -0.134  0.00  0.00    -0.580 N 
ATOM      3  C   LIG    1       -3.805  -2.003  -0.027  0.00  0.00    +0.270 C 
ATOM      4  C   LIG    1       -4.607  -2.619   1.123  0.00  0.00    +0.050 C 
ATOM      5  C   LIG    1       -4.728  -4.129   0.905  0.00  0.00    +0.070 C 
ATOM      6  C   LIG    1       -3.333  -4.758   0.897  0.00  0.00    -0.470 C 
ATOM      7  C   LIG    1       -2.516  -4.166  -0.262  0.00  0.00    +0.350 C 
ATOM      8  O   LIG    1       -0.302  -2.602  -0.213  0.00  0.00    -0.520 OA
ENDROOT
BRANCH   6   9
ATOM      9  S   LIG    1       -3.479  -6.553   0.678  0.00  0.00    +2.620 S 
ATOM     10  O   LIG    1       -2.245  -7.194   0.971  0.00  0.00    -0.950 OA
ATOM     11  O   LIG    1       -4.195  -6.853  -0.512  0.00  0.00    -0.950 OA
BRANCH   9  12
ATOM     12  N   LIG    1       -4.490  -7.037   1.896  0.00  0.00    -1.240 NA
ATOM     13  H   LIG    1       -4.510  -6.548   2.734  0.00  0.00    +0.410 HD
ATOM     14  H   LIG    1       -5.064  -7.810   1.772  0.00  0.00    +0.430 HD
ENDBRANCH   9  12
ENDBRANCH   6   9
BRANCH   1  15
ATOM     15  C   LIG    1       -1.376  -0.512   0.012  0.00  0.00    +0.290 C 
BRANCH  15  17
ATOM     16  C   LIG    1       -0.018   1.465   0.010  0.00  0.00    +0.330 C 
ATOM     17  N   LIG    1        0.002  -0.004   0.002  0.00  0.00    -0.370 N 
ATOM     18  C   LIG    1        0.713  -0.491   1.192  0.00  0.00    +0.330 C 
ATOM     19  H   LIG    1        0.474  -0.330  -0.828  0.00  0.00    +0.430 HD
ENDBRANCH  15  17
ENDBRANCH   1  15
TORSDOF 4
ENDMDL
MODEL      270
REMARK  Name = ZINC000000054158
REMARK                            x       y       z     vdW  Elec       q    Type
REMARK                         _______ _______ _______ _____ _____    ______ ____
ROOT
ATOM      1  C   LIG    1       -0.018   1.461   0.010  0.00  0.00    +0.350 C 
ATOM      2  N   LIG    1        0.002  -0.004   0.002  0.00  0.00    -0.510 N 
ATOM      3  C   LIG    1       -1.189  -0.712   0.004  0.00  0.00    +0.340 A 
ATOM      4  C   LIG    1       -1.144  -2.100  -0.004  0.00  0.00    -0.170 A 
ATOM      5  N   LIG    1       -2.456  -2.530   0.000  0.00  0.00    -0.430 N 
ATOM      6  C   LIG    1       -3.231  -1.427   0.010  0.00  0.00    +0.530 A 
ATOM      7  C   LIG    1        0.111  -2.748  -0.013  0.00  0.00    +0.600 A 
ATOM      8  N   LIG    1        1.236  -2.003  -0.015  0.00  0.00    -0.550 N 
ATOM      9  C   LIG    1        2.541  -2.668  -0.025  0.00  0.00    +0.360 C 
ATOM     10  O   LIG    1        0.176  -3.964  -0.021  0.00  0.00    -0.530 OA
ATOM     11  N   LIG    1       -2.477  -0.358   0.012  0.00  0.00    -0.480 NA
ATOM     12  C   LIG    1        1.178  -0.660  -0.013  0.00  0.00    +0.700 A 
ATOM     13  O   LIG    1        2.213  -0.022  -0.014  0.00  0.00    -0.510 OA
ENDROOT
BRANCH   5  14
ATOM     14  C   LIG    1       -2.918  -3.920  -0.005  0.00  0.00    +0.350 C 
BRANCH  14  15
ATOM     15  C   LIG    1       -2.953  -4.450   1.430  0.00  0.00    +0.250 C 
BRANCH  15  16
ATOM     16  N   LIG    1       -3.416  -5.845   1.425  0.00  0.00    -0.630 N 
ATOM     17  H   LIG    1       -3.439  -6.194   2.372  0.00  0.00    +0.450 HD
ATOM     18  H   LIG    1       -2.785  -6.407   0.874  0.00  0.00    +0.440 HD
ATOM     19  H   LIG    1       -4.342  -5.890   1.027  0.00  0.00    +0.440 HD
ENDBRANCH  15  16
ENDBRANCH  14  15
ENDBRANCH   5  14
TORSDOF 3
ENDMDL
MODEL      271
REMARK  Name = ZINC000215995929
REMARK                            x       y       z     vdW  Elec       q    Type
REMARK                         _______ _______ _______ _____ _____    ______ ____
ROOT
ATOM      1  C   LIG    1        1.565  -3.321  -0.025  0.00  0.00    +0.290 C 
ENDROOT
BRANCH   1   8
ATOM      2  N   LIG    1       -0.017   1.381   0.010  0.00  0.00    -0.800 N 
ATOM      3  H   LIG    1       -0.863   1.854   0.016  0.00  0.00    +0.440 HD
ATOM      4  H   LIG    1        0.817   1.877   0.004  0.00  0.00    +0.440 HD
ATOM      5  C   LIG    1        0.002  -0.004   0.002  0.00  0.00    +0.600 A 
ATOM      6  N   LIG    1       -1.052  -0.786   0.002  0.00  0.00    -0.520 N 
ATOM      7  C   LIG    1       -0.653  -2.069  -0.007  0.00  0.00    +0.250 A 
ATOM      8  C   LIG    1        0.691  -2.094  -0.014  0.00  0.00    +0.030 A 
ATOM      9  H   LIG    1       -1.974  -0.485   0.008  0.00  0.00    +0.460 HD
ATOM     10  N   LIG    1        1.116  -0.784  -0.013  0.00  0.00    -0.550 N 
ATOM     11  H   LIG    1        2.036  -0.477  -0.017  0.00  0.00    +0.460 HD
ENDBRANCH   1   8
BRANCH   1  12
ATOM     12  O   LIG    1        0.939  -4.345  -0.801  0.00  0.00    -0.520 OA
ATOM     13  H   LIG    1        0.072  -4.615  -0.469  0.00  0.00    +0.380 HD
ENDBRANCH   1  12
BRANCH   1  14
ATOM     14  C   LIG    1        1.766  -3.818   1.408  0.00  0.00    +0.170 C 
BRANCH  14  15
ATOM     15  O   LIG    1        0.493  -4.031   2.021  0.00  0.00    -0.540 OA
ATOM     16  H   LIG    1       -0.058  -4.684   1.567  0.00  0.00    +0.380 HD
ENDBRANCH  14  15
BRANCH  14  17
ATOM     17  C   LIG    1        2.549  -5.133   1.387  0.00  0.00    +0.200 C 
BRANCH  17  18
ATOM     18  O   LIG    1        3.822  -4.919   0.774  0.00  0.00    -0.540 OA
ATOM     19  H   LIG    1        4.372  -4.266   1.228  0.00  0.00    +0.380 HD
ENDBRANCH  17  18
BRANCH  17  20
ATOM     20  C   LIG    1        2.749  -5.630   2.820  0.00  0.00    +0.160 C 
BRANCH  20  21
ATOM     21  O   LIG    1        3.377  -6.913   2.796  0.00  0.00    -0.560 OA
ATOM     22  H   LIG    1        3.535  -7.290   3.672  0.00  0.00    +0.390 HD
ENDBRANCH  20  21
ENDBRANCH  17  20
ENDBRANCH  14  17
ENDBRANCH   1  14
TORSDOF 8
ENDMDL
MODEL      272
REMARK  Name = ZINC000000057195
REMARK                            x       y       z     vdW  Elec       q    Type
REMARK                         _______ _______ _______ _____ _____    ______ ____
ROOT
ATOM      1  C   LIG    1       -2.369  -2.831  -0.002  0.00  0.00    +0.450 C 
ATOM      2  C   LIG    1       -2.490  -3.686  -1.289  0.00  0.00    +0.020 C 
ATOM      3  C   LIG    1       -4.023  -3.866  -1.415  0.00  0.00    +0.180 C 
ATOM      4  C   LIG    1       -4.609  -2.714  -0.577  0.00  0.00    +0.180 C 
ATOM      5  O   LIG    1       -3.503  -1.941  -0.076  0.00  0.00    -0.380 OA
ENDROOT
BRANCH   1   9
ATOM      6  C   LIG    1       -0.018   1.503   0.010  0.00  0.00    +0.140 C 
ATOM      7  C   LIG    1        0.002  -0.004   0.002  0.00  0.00    -0.240 A 
ATOM      8  C   LIG    1       -1.153  -0.704   0.004  0.00  0.00    +0.330 A 
ATOM      9  N   LIG    1       -1.116  -2.072  -0.004  0.00  0.00    -0.540 N 
ATOM     10  C   LIG    1        0.060  -2.726  -0.013  0.00  0.00    +0.700 A 
ATOM     11  N   LIG    1        1.226  -2.053  -0.016  0.00  0.00    -0.650 N 
ATOM     12  H   LIG    1        2.064  -2.540  -0.023  0.00  0.00    +0.440 HD
ATOM     13  O   LIG    1        0.069  -3.942  -0.020  0.00  0.00    -0.530 OA
ATOM     14  C   LIG    1        1.232  -0.705  -0.013  0.00  0.00    +0.550 A 
ATOM     15  O   LIG    1        2.287  -0.095  -0.016  0.00  0.00    -0.490 OA
ENDBRANCH   1   9
BRANCH   3  16
ATOM     16  O   LIG    1       -4.423  -5.130  -0.881  0.00  0.00    -0.550 OA
ATOM     17  H   LIG    1       -4.036  -5.890  -1.337  0.00  0.00    +0.410 HD
ENDBRANCH   3  16
BRANCH   4  18
ATOM     18  C   LIG    1       -5.507  -1.838  -1.453  0.00  0.00    +0.300 C 
BRANCH  18  19
ATOM     19  N   LIG    1       -6.061  -0.743  -0.646  0.00  0.00    -0.630 N 
ATOM     20  H   LIG    1       -5.307  -0.185  -0.274  0.00  0.00    +0.440 HD
ATOM     21  H   LIG    1       -6.602  -1.125   0.115  0.00  0.00    +0.440 HD
ATOM     22  H   LIG    1       -6.653  -0.165  -1.223  0.00  0.00    +0.440 HD
ENDBRANCH  18  19
ENDBRANCH   4  18
TORSDOF 4
ENDMDL
MODEL      273
REMARK  Name = ZINC000000181384
REMARK                            x       y       z     vdW  Elec       q    Type
REMARK                         _______ _______ _______ _____ _____    ______ ____
ROOT
ATOM      1  N   LIG    1       -1.160  -2.882   1.280  0.00  0.00    -0.370 N 
ATOM      2  C   LIG    1       -1.128  -2.872   2.747  0.00  0.00    +0.270 C 
ATOM      3  C   LIG    1       -2.410  -3.506   3.293  0.00  0.00    +0.100 C 
ATOM      4  C   LIG    1       -2.511  -4.950   2.793  0.00  0.00    -0.010 C 
ATOM      5  C   LIG    1       -2.468  -4.954   1.262  0.00  0.00    +0.080 C 
ATOM      6  C   LIG    1       -1.184  -4.267   0.793  0.00  0.00    +0.270 C 
ATOM      7  H   LIG    1       -1.986  -2.400   0.959  0.00  0.00    +0.430 HD
ENDROOT
BRANCH   1  12
ATOM      8  C   LIG    1       -0.018   1.461   0.010  0.00  0.00    +0.350 C 
ATOM      9  N   LIG    1        0.002  -0.004   0.002  0.00  0.00    -0.560 N 
ATOM     10  C   LIG    1        0.007  -0.722  -1.128  0.00  0.00    +0.520 C 
ATOM     11  C   LIG    1        0.028  -2.195  -0.781  0.00  0.00    +0.130 C 
ATOM     12  C   LIG    1        0.035  -2.204   0.761  0.00  0.00    +0.180 C 
ATOM     13  O   LIG    1       -0.004  -0.265  -2.251  0.00  0.00    -0.430 OA
ATOM     14  C   LIG    1        0.023  -0.735   1.124  0.00  0.00    +0.520 C 
ATOM     15  O   LIG    1        0.024  -0.290   2.252  0.00  0.00    -0.430 OA
ENDBRANCH   1  12
BRANCH   4  16
ATOM     16  C   LIG    1       -3.809  -5.555   3.262  0.00  0.00    +0.520 C 
ATOM     17  O   LIG    1       -4.578  -4.898   3.931  0.00  0.00    -0.530 OA
ATOM     18  N   LIG    1       -4.115  -6.827   2.939  0.00  0.00    -0.850 N 
ATOM     19  H   LIG    1       -4.950  -7.217   3.241  0.00  0.00    +0.410 HD
ATOM     20  H   LIG    1       -3.500  -7.353   2.404  0.00  0.00    +0.400 HD
ENDBRANCH   4  16
TORSDOF 2
ENDMDL
MODEL      274
REMARK  Name = ZINC000000285928
REMARK                            x       y       z     vdW  Elec       q    Type
REMARK                         _______ _______ _______ _____ _____    ______ ____
ROOT
ATOM      1  C   LIG    1       -0.018   1.461   0.010  0.00  0.00    +0.360 C 
ATOM      2  N   LIG    1        0.002  -0.004   0.002  0.00  0.00    -0.500 N 
ATOM      3  C   LIG    1       -1.188  -0.710   0.004  0.00  0.00    +0.370 A 
ATOM      4  C   LIG    1       -1.145  -2.106  -0.004  0.00  0.00    -0.120 A 
ATOM      5  N   LIG    1       -2.453  -2.523   0.002  0.00  0.00    -0.420 N 
ATOM      6  C   LIG    1       -3.056  -3.780   0.010  0.00  0.00    +0.450 C 
ATOM      7  C   LIG    1       -4.356  -3.817  -0.244  0.00  0.00    +0.040 C 
ATOM      8  N   LIG    1       -5.111  -2.691  -0.550  0.00  0.00    -0.180 NA
ATOM      9  N   LIG    1       -4.613  -1.539   0.000  0.00  0.00    -0.570 N 
ATOM     10  H   LIG    1       -5.198  -0.859   0.369  0.00  0.00    +0.490 HD
ATOM     11  H   LIG    1       -6.051  -2.830  -0.212  0.00  0.00    +0.460 HD
ATOM     12  H   LIG    1       -5.140  -2.584  -1.553  0.00  0.00    +0.430 HD
ATOM     13  C   LIG    1       -3.240  -1.392   0.005  0.00  0.00    +0.510 A 
ATOM     14  C   LIG    1        0.108  -2.745  -0.013  0.00  0.00    +0.590 A 
ATOM     15  N   LIG    1        1.234  -2.002  -0.015  0.00  0.00    -0.540 N 
ATOM     16  C   LIG    1        2.538  -2.670  -0.026  0.00  0.00    +0.370 C 
ATOM     17  O   LIG    1        0.177  -3.961  -0.021  0.00  0.00    -0.500 OA
ATOM     18  N   LIG    1       -2.475  -0.339   0.011  0.00  0.00    -0.440 NA
ATOM     19  C   LIG    1        1.178  -0.659  -0.013  0.00  0.00    +0.710 A 
ATOM     20  O   LIG    1        2.213  -0.021  -0.014  0.00  0.00    -0.500 OA
ENDROOT
TORSDOF 0
ENDMDL
MODEL      275
REMARK  Name = ZINC000101690064
REMARK                            x       y       z     vdW  Elec       q    Type
REMARK                         _______ _______ _______ _____ _____    ______ ____
ROOT
ATOM      1  C   LIG    1       -2.968  -3.891  -0.220  0.00  0.00    +0.020 C 
ATOM      2  C   LIG    1       -4.113  -4.699  -0.251  0.00  0.00    +0.100 C 
ATOM      3  C   LIG    1       -3.336  -5.939  -0.385  0.00  0.00    +0.360 C 
ATOM      4  O   LIG    1       -3.578  -7.128  -0.481  0.00  0.00    -0.390 OA
ATOM      5  C   LIG    1       -2.123  -5.086  -0.358  0.00  0.00    +0.350 C 
ATOM      6  O   LIG    1       -0.925  -5.291  -0.420  0.00  0.00    -0.420 OA
ENDROOT
BRANCH   1   7
ATOM      7  N   LIG    1       -2.733  -2.544  -0.111  0.00  0.00    -0.690 N 
ATOM      8  H   LIG    1       -3.477  -1.927  -0.028  0.00  0.00    +0.410 HD
BRANCH   7   9
ATOM      9  C   LIG    1       -1.358  -2.037  -0.122  0.00  0.00    +0.290 C 
BRANCH   9  10
ATOM     10  C   LIG    1       -1.376  -0.512   0.012  0.00  0.00    +0.260 C 
BRANCH  10  12
ATOM     11  C   LIG    1       -0.018   1.465   0.010  0.00  0.00    +0.320 C 
ATOM     12  N   LIG    1        0.002  -0.004   0.002  0.00  0.00    -0.380 N 
ATOM     13  C   LIG    1        0.713  -0.491   1.192  0.00  0.00    +0.320 C 
ATOM     14  H   LIG    1        0.474  -0.330  -0.828  0.00  0.00    +0.430 HD
ENDBRANCH  10  12
ENDBRANCH   9  10
ENDBRANCH   7   9
ENDBRANCH   1   7
BRANCH   2  15
ATOM     15  N   LIG    1       -5.457  -4.431  -0.182  0.00  0.00    -0.670 N 
ATOM     16  H   LIG    1       -5.766  -3.516  -0.092  0.00  0.00    +0.410 HD
BRANCH  15  17
ATOM     17  C   LIG    1       -6.426  -5.528  -0.245  0.00  0.00    +0.280 C 
BRANCH  17  18
ATOM     18  C   LIG    1       -7.844  -4.962  -0.147  0.00  0.00    +0.190 C 
BRANCH  18  19
ATOM     19  O   LIG    1       -8.114  -4.153  -1.294  0.00  0.00    -0.570 OA
ATOM     20  H   LIG    1       -8.998  -3.761  -1.300  0.00  0.00    +0.390 HD
ENDBRANCH  18  19
ENDBRANCH  17  18
ENDBRANCH  15  17
ENDBRANCH   2  15
TORSDOF 8
ENDMDL
MODEL      276
REMARK  Name = ZINC000078931541
REMARK                            x       y       z     vdW  Elec       q    Type
REMARK                         _______ _______ _______ _____ _____    ______ ____
ROOT
ATOM      1  C   LIG    1       -0.699   1.479   1.216  0.00  0.00    +0.160 C 
ATOM      2  C   LIG    1       -0.635   3.023   1.326  0.00  0.00    +0.260 C 
ATOM      3  O   LIG    1       -0.755   3.304   2.729  0.00  0.00    -0.340 OA
ATOM      4  C   LIG    1       -0.321   2.173   3.494  0.00  0.00    +0.160 C 
ATOM      5  C   LIG    1        0.070   1.059   2.498  0.00  0.00    +0.170 C 
ENDROOT
BRANCH   1   6
ATOM      6  N   LIG    1       -0.012   1.005   0.008  0.00  0.00    -0.620 N 
ATOM      7  H   LIG    1       -0.500   1.339  -0.810  0.00  0.00    +0.440 HD
ATOM      8  H   LIG    1        0.935   1.354   0.000  0.00  0.00    +0.440 HD
ATOM      9  H   LIG    1        0.002  -0.004   0.002  0.00  0.00    +0.450 HD
ENDBRANCH   1   6
BRANCH   5  10
ATOM     10  O   LIG    1       -0.369  -0.218   2.966  0.00  0.00    -0.550 OA
ATOM     11  H   LIG    1        0.021  -0.482   3.811  0.00  0.00    +0.410 HD
ENDBRANCH   5  10
BRANCH   4  12
ATOM     12  C   LIG    1        0.888   2.557   4.348  0.00  0.00    +0.280 C 
BRANCH  12  13
ATOM     13  N   LIG    1        0.480   3.533   5.362  0.00  0.00    -0.720 N 
ATOM     14  H   LIG    1       -0.442   3.830   5.405  0.00  0.00    +0.410 HD
ATOM     15  C   LIG    1        1.386   4.018   6.234  0.00  0.00    +0.570 C 
ATOM     16  O   LIG    1        2.542   3.645   6.180  0.00  0.00    -0.520 OA
BRANCH  15  17
ATOM     17  C   LIG    1        0.974   5.005   7.259  0.00  0.00    -0.100 A 
ATOM     18  C   LIG    1       -0.352   5.442   7.343  0.00  0.00    +0.000 A 
ATOM     19  C   LIG    1       -0.693   6.364   8.314  0.00  0.00    +0.270 A 
ATOM     20  N   LIG    1        0.211   6.829   9.153  0.00  0.00    -0.460 NA
ATOM     21  C   LIG    1        1.471   6.443   9.109  0.00  0.00    +0.270 A 
ATOM     22  C   LIG    1        1.897   5.520   8.173  0.00  0.00    +0.040 A 
ENDBRANCH  15  17
ENDBRANCH  12  13
ENDBRANCH   4  12
TORSDOF 5
ENDMDL
MODEL      277
REMARK  Name = ZINC000078931528
REMARK                            x       y       z     vdW  Elec       q    Type
REMARK                         _______ _______ _______ _____ _____    ______ ____
ROOT
ATOM      1  C   LIG    1       -0.699   1.479   1.216  0.00  0.00    +0.160 C 
ATOM      2  C   LIG    1       -0.635   3.023   1.326  0.00  0.00    +0.260 C 
ATOM      3  O   LIG    1       -0.755   3.304   2.729  0.00  0.00    -0.340 OA
ATOM      4  C   LIG    1       -0.321   2.173   3.494  0.00  0.00    +0.160 C 
ATOM      5  C   LIG    1        0.070   1.059   2.498  0.00  0.00    +0.170 C 
ENDROOT
BRANCH   1   6
ATOM      6  N   LIG    1       -0.012   1.005   0.008  0.00  0.00    -0.620 N 
ATOM      7  H   LIG    1       -0.500   1.339  -0.810  0.00  0.00    +0.440 HD
ATOM      8  H   LIG    1        0.935   1.354   0.000  0.00  0.00    +0.440 HD
ATOM      9  H   LIG    1        0.002  -0.004   0.002  0.00  0.00    +0.450 HD
ENDBRANCH   1   6
BRANCH   5  10
ATOM     10  O   LIG    1       -0.369  -0.218   2.966  0.00  0.00    -0.550 OA
ATOM     11  H   LIG    1        0.021  -0.482   3.811  0.00  0.00    +0.410 HD
ENDBRANCH   5  10
BRANCH   4  12
ATOM     12  C   LIG    1        0.888   2.557   4.348  0.00  0.00    +0.270 C 
BRANCH  12  13
ATOM     13  N   LIG    1        0.480   3.533   5.362  0.00  0.00    -0.730 N 
ATOM     14  H   LIG    1       -0.442   3.830   5.405  0.00  0.00    +0.410 HD
ATOM     15  C   LIG    1        1.386   4.018   6.234  0.00  0.00    +0.550 C 
ATOM     16  O   LIG    1        2.539   3.646   6.180  0.00  0.00    -0.530 OA
BRANCH  15  17
ATOM     17  C   LIG    1        0.967   5.022   7.277  0.00  0.00    -0.070 C 
ATOM     18  C   LIG    1        0.967   4.566   8.737  0.00  0.00    +0.060 C 
ATOM     19  C   LIG    1        2.042   5.534   8.238  0.00  0.00    +0.080 C 
ENDBRANCH  15  17
ENDBRANCH  12  13
ENDBRANCH   4  12
TORSDOF 5
ENDMDL
MODEL      278
REMARK  Name = ZINC000126373142
REMARK                            x       y       z     vdW  Elec       q    Type
REMARK                         _______ _______ _______ _____ _____    ______ ____
ROOT
ATOM      1  C   LIG    1        0.002   1.528  -0.001  0.00  0.00    +0.080 C 
ATOM      2  C   LIG    1        0.012  -0.002  -0.004  0.00  0.00    +0.230 C 
ATOM      3  C   LIG    1        0.630  -0.510  -1.311  0.00  0.00    +0.270 C 
ATOM      4  N   LIG    1        0.763  -1.971  -1.254  0.00  0.00    -0.510 N 
ATOM      5  C   LIG    1        1.712  -2.345  -0.197  0.00  0.00    +0.270 C 
ATOM      6  C   LIG    1        1.147  -1.928   1.165  0.00  0.00    +0.310 C 
ATOM      7  H   LIG    1        1.101  -2.312  -2.141  0.00  0.00    +0.440 HD
ATOM      8  H   LIG    1       -0.137  -2.382  -1.057  0.00  0.00    +0.430 HD
ATOM      9  N   LIG    1        0.822  -0.493   1.121  0.00  0.00    -0.630 N 
ATOM     10  C   LIG    1        1.260   0.346   2.079  0.00  0.00    +0.510 C 
ATOM     11  O   LIG    1        0.900   1.505   2.082  0.00  0.00    -0.490 OA
ENDROOT
BRANCH  10  12
ATOM     12  C   LIG    1        2.198  -0.153   3.148  0.00  0.00    +0.320 C 
BRANCH  12  13
ATOM     13  N   LIG    1        2.525   0.943   4.063  0.00  0.00    -0.590 N 
ATOM     14  C   LIG    1        3.680   1.783   3.761  0.00  0.00    +0.230 C 
ATOM     15  C   LIG    1        3.592   3.096   4.541  0.00  0.00    +0.240 C 
ATOM     16  N   LIG    1        3.332   2.789   5.957  0.00  0.00    -0.670 NA
ATOM     17  H   LIG    1        4.023   2.150   6.320  0.00  0.00    +0.350 HD
ATOM     18  C   LIG    1        1.976   2.247   6.117  0.00  0.00    +0.290 C 
ATOM     19  C   LIG    1        1.748   1.134   5.135  0.00  0.00    +0.490 C 
ATOM     20  O   LIG    1        0.825   0.371   5.326  0.00  0.00    -0.540 OA
ENDBRANCH  12  13
ENDBRANCH  10  12
TORSDOF 2
ENDMDL
MODEL      279
REMARK  Name = ZINC000067870515
REMARK                            x       y       z     vdW  Elec       q    Type
REMARK                         _______ _______ _______ _____ _____    ______ ____
ROOT
ATOM      1  C   LIG    1       -0.706   1.049   1.273  0.00  0.00    +0.120 C 
ATOM      2  C   LIG    1       -0.922   2.565   1.139  0.00  0.00    +0.170 C 
ATOM      3  C   LIG    1       -1.332   3.107   2.528  0.00  0.00    +0.240 C 
ATOM      4  O   LIG    1       -0.093   3.457   3.170  0.00  0.00    -0.350 OA
ATOM      5  C   LIG    1        0.965   3.112   2.256  0.00  0.00    +0.380 C 
ATOM      6  C   LIG    1        1.388   1.662   2.537  0.00  0.00    +0.120 C 
ATOM      7  O   LIG    1        0.378   3.165   0.917  0.00  0.00    -0.340 OA
ATOM      8  C   LIG    1        0.127   0.781   2.532  0.00  0.00    +0.180 C 
ENDROOT
BRANCH   6   9
ATOM      9  N   LIG    1        2.292   1.199   1.476  0.00  0.00    -0.510 NA
ATOM     10  C   LIG    1        2.532  -0.263   1.582  0.00  0.00    +0.150 C 
ATOM     11  C   LIG    1        3.848  -0.498   0.809  0.00  0.00    +0.030 C 
ATOM     12  C   LIG    1        4.577   0.861   0.837  0.00  0.00    +0.050 C 
ATOM     13  C   LIG    1        3.641   1.802   1.625  0.00  0.00    +0.150 C 
BRANCH  13  14
ATOM     14  C   LIG    1        3.669   3.209   1.022  0.00  0.00    +0.190 C 
BRANCH  14  15
ATOM     15  O   LIG    1        3.237   3.152  -0.339  0.00  0.00    -0.560 OA
ATOM     16  H   LIG    1        3.230   4.010  -0.785  0.00  0.00    +0.380 HD
ENDBRANCH  14  15
ENDBRANCH  13  14
ENDBRANCH   6   9
BRANCH   1  17
ATOM     17  N   LIG    1        0.009   0.546   0.092  0.00  0.00    -0.630 N 
ATOM     18  H   LIG    1       -0.538   0.729  -0.736  0.00  0.00    +0.430 HD
ATOM     19  H   LIG    1        0.901   1.011   0.015  0.00  0.00    +0.450 HD
ATOM     20  H   LIG    1        0.155  -0.448   0.186  0.00  0.00    +0.430 HD
ENDBRANCH   1  17
BRANCH   8  21
ATOM     21  O   LIG    1       -0.685   1.103   3.663  0.00  0.00    -0.520 OA
ATOM     22  H   LIG    1       -1.499   0.584   3.723  0.00  0.00    +0.390 HD
ENDBRANCH   8  21
TORSDOF 5
ENDMDL
MODEL      280
REMARK  Name = ZINC000001708444
REMARK                            x       y       z     vdW  Elec       q    Type
REMARK                         _______ _______ _______ _____ _____    ______ ____
ROOT
ATOM      1  C   LIG    1       -4.380  -4.331   0.021  0.00  0.00    +0.340 C 
ENDROOT
BRANCH   1   4
ATOM      2  N   LIG    1       -2.643  -2.570   0.013  0.00  0.00    -0.710 N 
ATOM      3  H   LIG    1       -3.355  -1.912   0.024  0.00  0.00    +0.420 HD
ATOM      4  C   LIG    1       -2.941  -3.885   0.009  0.00  0.00    +0.520 C 
ATOM      5  O   LIG    1       -2.050  -4.708  -0.004  0.00  0.00    -0.530 OA
BRANCH   2   6
ATOM      6  C   LIG    1       -1.244  -2.135   0.003  0.00  0.00    +0.370 C 
BRANCH   6   7
ATOM      7  C   LIG    1       -1.185  -0.630   0.010  0.00  0.00    +0.460 C 
ATOM      8  O   LIG    1       -2.208   0.015   0.023  0.00  0.00    -0.500 OA
BRANCH   7  10
ATOM      9  C   LIG    1       -0.018   1.448   0.010  0.00  0.00    +0.290 C 
ATOM     10  O   LIG    1        0.002  -0.004   0.002  0.00  0.00    -0.350 OA
ENDBRANCH   7  10
ENDBRANCH   6   7
ENDBRANCH   2   6
ENDBRANCH   1   4
BRANCH   1  11
ATOM     11  N   LIG    1       -4.436  -5.795   0.013  0.00  0.00    -0.690 N 
ATOM     12  H   LIG    1       -3.616  -6.312   0.003  0.00  0.00    +0.420 HD
ATOM     13  C   LIG    1       -5.629  -6.423   0.021  0.00  0.00    +0.500 C 
ATOM     14  O   LIG    1       -6.655  -5.777   0.035  0.00  0.00    -0.530 OA
BRANCH  13  15
ATOM     15  C   LIG    1       -5.687  -7.929   0.014  0.00  0.00    +0.320 C 
BRANCH  15  16
ATOM     16  N   LIG    1       -7.090  -8.365   0.025  0.00  0.00    -0.620 N 
ATOM     17  H   LIG    1       -7.560  -8.006  -0.793  0.00  0.00    +0.440 HD
ATOM     18  H   LIG    1       -7.545  -8.015   0.855  0.00  0.00    +0.440 HD
ATOM     19  H   LIG    1       -7.129  -9.373   0.020  0.00  0.00    +0.450 HD
ENDBRANCH  15  16
ENDBRANCH  13  15
ENDBRANCH   1  11
TORSDOF 7
ENDMDL
MODEL      281
REMARK  Name = ZINC000001771816
REMARK                            x       y       z     vdW  Elec       q    Type
REMARK                         _______ _______ _______ _____ _____    ______ ____
ROOT
ATOM      1  O   LIG    1        0.002  -0.004   0.002  0.00  0.00    -0.900 OA
ATOM      2  S   LIG    1       -0.017   1.417   0.010  0.00  0.00    +2.420 S 
ATOM      3  C   LIG    1       -0.460   2.009   1.687  0.00  0.00    -0.310 C 
ATOM      4  C   LIG    1        0.923   2.140   2.374  0.00  0.00    +0.200 C 
ATOM      5  C   LIG    1        1.869   2.779   1.343  0.00  0.00    +0.210 C 
ATOM      6  O   LIG    1       -0.784   2.119  -0.959  0.00  0.00    -0.890 OA
ATOM      7  C   LIG    1        1.700   2.046  -0.003  0.00  0.00    -0.320 C 
ENDROOT
BRANCH   5   8
ATOM      8  N   LIG    1        3.259   2.652   1.800  0.00  0.00    -0.500 N 
ATOM      9  H   LIG    1        3.516   1.676   1.828  0.00  0.00    +0.430 HD
ATOM     10  H   LIG    1        3.346   3.049   2.724  0.00  0.00    +0.440 HD
BRANCH   8  11
ATOM     11  C   LIG    1        4.147   3.366   0.874  0.00  0.00    +0.270 C 
BRANCH  11  12
ATOM     12  C   LIG    1        5.595   3.233   1.351  0.00  0.00    +0.050 C 
BRANCH  12  13
ATOM     13  C   LIG    1        6.520   3.977   0.387  0.00  0.00    +0.200 C 
BRANCH  13  14
ATOM     14  O   LIG    1        7.872   3.853   0.832  0.00  0.00    -0.570 OA
ATOM     15  H   LIG    1        8.516   4.302   0.267  0.00  0.00    +0.400 HD
ENDBRANCH  13  14
ENDBRANCH  12  13
ENDBRANCH  11  12
ENDBRANCH   8  11
ENDBRANCH   5   8
BRANCH   4  16
ATOM     16  O   LIG    1        0.819   2.977   3.528  0.00  0.00    -0.550 OA
ATOM     17  H   LIG    1        0.220   2.638   4.207  0.00  0.00    +0.420 HD
ENDBRANCH   4  16
TORSDOF 6
ENDMDL
MODEL      282
REMARK  Name = ZINC000001771817
REMARK                            x       y       z     vdW  Elec       q    Type
REMARK                         _______ _______ _______ _____ _____    ______ ____
ROOT
ATOM      1  O   LIG    1        0.002  -0.004   0.002  0.00  0.00    -0.900 OA
ATOM      2  S   LIG    1       -0.017   1.417   0.010  0.00  0.00    +2.420 S 
ATOM      3  C   LIG    1       -0.460   2.009   1.687  0.00  0.00    -0.300 C 
ATOM      4  C   LIG    1        0.923   2.140   2.374  0.00  0.00    +0.220 C 
ATOM      5  C   LIG    1        1.869   2.779   1.343  0.00  0.00    +0.220 C 
ATOM      6  O   LIG    1       -0.784   2.119  -0.959  0.00  0.00    -0.900 OA
ATOM      7  C   LIG    1        1.700   2.046  -0.003  0.00  0.00    -0.300 C 
ENDROOT
BRANCH   4   8
ATOM      8  N   LIG    1        0.816   3.001   3.560  0.00  0.00    -0.490 N 
ATOM      9  H   LIG    1        0.395   3.880   3.301  0.00  0.00    +0.440 HD
ATOM     10  H   LIG    1        1.736   3.167   3.940  0.00  0.00    +0.430 HD
BRANCH   8  11
ATOM     11  C   LIG    1       -0.019   2.339   4.572  0.00  0.00    +0.270 C 
BRANCH  11  12
ATOM     12  C   LIG    1       -0.130   3.235   5.807  0.00  0.00    +0.050 C 
BRANCH  12  13
ATOM     13  C   LIG    1       -1.000   2.545   6.860  0.00  0.00    +0.200 C 
BRANCH  13  14
ATOM     14  O   LIG    1       -1.104   3.382   8.014  0.00  0.00    -0.570 OA
ATOM     15  H   LIG    1       -1.642   3.007   8.725  0.00  0.00    +0.400 HD
ENDBRANCH  13  14
ENDBRANCH  12  13
ENDBRANCH  11  12
ENDBRANCH   8  11
ENDBRANCH   4   8
BRANCH   5  16
ATOM     16  O   LIG    1        1.539   4.160   1.179  0.00  0.00    -0.570 OA
ATOM     17  H   LIG    1        2.098   4.625   0.541  0.00  0.00    +0.420 HD
ENDBRANCH   5  16
TORSDOF 6
ENDMDL
MODEL      283
REMARK  Name = ZINC000002383787
REMARK                            x       y       z     vdW  Elec       q    Type
REMARK                         _______ _______ _______ _____ _____    ______ ____
ROOT
ATOM      1  C   LIG    1       -0.286   1.486   0.043  0.00  0.00    +0.140 C 
ATOM      2  C   LIG    1       -0.125  -0.012   0.018  0.00  0.00    +0.180 A 
ATOM      3  C   LIG    1       -0.223  -0.686  -1.149  0.00  0.00    -0.100 A 
ATOM      4  C   LIG    1       -0.069  -2.093  -1.147  0.00  0.00    +0.540 A 
ATOM      5  N   LIG    1        0.173  -2.730   0.017  0.00  0.00    -0.560 N 
ATOM      6  C   LIG    1        0.266  -2.034   1.165  0.00  0.00    +0.700 A 
ATOM      7  O   LIG    1        0.484  -2.623   2.206  0.00  0.00    -0.540 OA
ATOM      8  C   LIG    1        0.335  -4.186   0.031  0.00  0.00    +0.350 C 
ATOM      9  O   LIG    1       -0.152  -2.722  -2.186  0.00  0.00    -0.500 OA
ATOM     10  N   LIG    1        0.126  -0.696   1.176  0.00  0.00    -0.540 N 
ENDROOT
BRANCH  10  11
ATOM     11  C   LIG    1        0.233   0.034   2.441  0.00  0.00    +0.330 C 
BRANCH  11  12
ATOM     12  C   LIG    1        1.694   0.412   2.690  0.00  0.00    +0.020 C 
BRANCH  12  13
ATOM     13  C   LIG    1        1.805   1.175   4.012  0.00  0.00    +0.280 C 
BRANCH  13  14
ATOM     14  N   LIG    1        3.209   1.538   4.251  0.00  0.00    -0.510 N 
ATOM     15  H   LIG    1        3.538   2.122   3.496  0.00  0.00    +0.440 HD
ATOM     16  H   LIG    1        3.769   0.701   4.297  0.00  0.00    +0.430 HD
BRANCH  14  17
ATOM     17  C   LIG    1        3.316   2.271   5.519  0.00  0.00    +0.290 C 
BRANCH  17  18
ATOM     18  C   LIG    1        4.777   2.649   5.768  0.00  0.00    +0.210 C 
BRANCH  18  19
ATOM     19  O   LIG    1        5.209   3.569   4.763  0.00  0.00    -0.580 OA
ATOM     20  H   LIG    1        6.128   3.853   4.859  0.00  0.00    +0.410 HD
ENDBRANCH  18  19
ENDBRANCH  17  18
ENDBRANCH  14  17
ENDBRANCH  13  14
ENDBRANCH  12  13
ENDBRANCH  11  12
ENDBRANCH  10  11
TORSDOF 7
ENDMDL
MODEL      284
REMARK  Name = ZINC000002561109
REMARK                            x       y       z     vdW  Elec       q    Type
REMARK                         _______ _______ _______ _____ _____    ______ ____
ROOT
ATOM      1  N   LIG    1       -0.876  -2.426  -1.433  0.00  0.00    -0.680 N 
ATOM      2  H   LIG    1       -0.936  -1.804  -2.174  0.00  0.00    +0.420 HD
ATOM      3  C   LIG    1       -0.298  -3.631  -1.609  0.00  0.00    +0.510 C 
ATOM      4  O   LIG    1       -0.224  -4.410  -0.682  0.00  0.00    -0.510 OA
ENDROOT
BRANCH   1   5
ATOM      5  C   LIG    1       -1.416  -2.058  -0.121  0.00  0.00    +0.250 C 
BRANCH   5   6
ATOM      6  C   LIG    1       -2.819  -2.590   0.013  0.00  0.00    +0.510 C 
ATOM      7  O   LIG    1       -3.320  -3.216  -0.898  0.00  0.00    -0.540 OA
ATOM      8  N   LIG    1       -3.518  -2.371   1.144  0.00  0.00    -0.840 N 
ATOM      9  H   LIG    1       -4.421  -2.713   1.230  0.00  0.00    +0.410 HD
ATOM     10  H   LIG    1       -3.118  -1.870   1.872  0.00  0.00    +0.410 HD
ENDBRANCH   5   6
BRANCH   5  11
ATOM     11  C   LIG    1       -1.433  -0.534   0.013  0.00  0.00    +0.050 C 
BRANCH  11  13
ATOM     12  C   LIG    1       -0.019   1.526   0.010  0.00  0.00    +0.030 C 
ATOM     13  C   LIG    1        0.002  -0.004   0.002  0.00  0.00    -0.020 C 
ATOM     14  C   LIG    1        0.742  -0.511   1.242  0.00  0.00    +0.010 C 
ENDBRANCH  11  13
ENDBRANCH   5  11
ENDBRANCH   1   5
BRANCH   3  15
ATOM     15  CA  LIG    1        0.257  -4.010  -2.958  0.00  0.00    +0.190 C 
BRANCH  15  16
ATOM     16  N   LIG    1        1.224  -5.104  -2.800  0.00  0.00    -0.620 N 
ATOM     17  H1  LIG    1        1.977  -4.802  -2.199  0.00  0.00    +0.440 HD
ATOM     18  H2  LIG    1        1.596  -5.357  -3.703  0.00  0.00    +0.450 HD
ATOM     19  H3  LIG    1        0.765  -5.902  -2.388  0.00  0.00    +0.440 HD
ENDBRANCH  15  16
BRANCH  15  20
ATOM     20  C   LIG    1       -0.885  -4.467  -3.869  0.00  0.00    +0.240 C 
BRANCH  20  21
ATOM     21  O   LIG    1       -0.377  -4.715  -5.181  0.00  0.00    -0.580 OA
ATOM     22  H   LIG    1       -1.047  -5.010  -5.813  0.00  0.00    +0.420 HD
ENDBRANCH  20  21
ENDBRANCH  15  20
ENDBRANCH   3  15
TORSDOF 8
ENDMDL
MODEL      285
REMARK  Name = ZINC000002566806
REMARK                            x       y       z     vdW  Elec       q    Type
REMARK                         _______ _______ _______ _____ _____    ______ ____
ROOT
ATOM      1  N   LIG    1       -0.876  -2.426  -1.433  0.00  0.00    -0.680 N 
ATOM      2  H   LIG    1       -0.936  -1.804  -2.174  0.00  0.00    +0.420 HD
ATOM      3  C   LIG    1       -0.298  -3.631  -1.609  0.00  0.00    +0.510 C 
ATOM      4  O   LIG    1       -0.224  -4.410  -0.682  0.00  0.00    -0.510 OA
ENDROOT
BRANCH   1   5
ATOM      5  C   LIG    1       -1.416  -2.058  -0.121  0.00  0.00    +0.250 C 
BRANCH   5   6
ATOM      6  C   LIG    1       -2.819  -2.590   0.013  0.00  0.00    +0.510 C 
ATOM      7  O   LIG    1       -3.320  -3.216  -0.898  0.00  0.00    -0.540 OA
ATOM      8  N   LIG    1       -3.518  -2.371   1.144  0.00  0.00    -0.840 N 
ATOM      9  H   LIG    1       -4.421  -2.713   1.230  0.00  0.00    +0.410 HD
ATOM     10  H   LIG    1       -3.118  -1.870   1.872  0.00  0.00    +0.410 HD
ENDBRANCH   5   6
BRANCH   5  11
ATOM     11  C   LIG    1       -1.433  -0.534   0.013  0.00  0.00    +0.050 C 
BRANCH  11  13
ATOM     12  C   LIG    1       -0.019   1.526   0.010  0.00  0.00    +0.030 C 
ATOM     13  C   LIG    1        0.002  -0.004   0.002  0.00  0.00    -0.020 C 
ATOM     14  C   LIG    1        0.742  -0.511   1.242  0.00  0.00    +0.010 C 
ENDBRANCH  11  13
ENDBRANCH   5  11
ENDBRANCH   1   5
BRANCH   3  15
ATOM     15  CA  LIG    1        0.257  -4.010  -2.958  0.00  0.00    +0.190 C 
BRANCH  15  16
ATOM     16  N   LIG    1        0.385  -5.471  -3.041  0.00  0.00    -0.620 N 
ATOM     17  H1  LIG    1        0.757  -5.725  -3.944  0.00  0.00    +0.450 HD
ATOM     18  H2  LIG    1       -0.521  -5.896  -2.919  0.00  0.00    +0.440 HD
ATOM     19  H3  LIG    1        1.009  -5.795  -2.318  0.00  0.00    +0.440 HD
ENDBRANCH  15  16
BRANCH  15  20
ATOM     20  C   LIG    1        1.631  -3.365  -3.143  0.00  0.00    +0.240 C 
BRANCH  20  21
ATOM     21  O   LIG    1        2.106  -3.628  -4.465  0.00  0.00    -0.570 OA
ATOM     22  H   LIG    1        2.975  -3.248  -4.654  0.00  0.00    +0.420 HD
ENDBRANCH  20  21
ENDBRANCH  15  20
ENDBRANCH   3  15
TORSDOF 8
ENDMDL
MODEL      286
REMARK  Name = ZINC000003010507
REMARK                            x       y       z     vdW  Elec       q    Type
REMARK                         _______ _______ _______ _____ _____    ______ ____
ROOT
ATOM      1  N   LIG    1       -0.930  -2.548   1.294  0.00  0.00    -0.680 N 
ATOM      2  H   LIG    1       -1.018  -1.998   2.087  0.00  0.00    +0.420 HD
ATOM      3  C   LIG    1       -0.359  -3.766   1.378  0.00  0.00    +0.510 C 
ATOM      4  O   LIG    1       -0.250  -4.454   0.385  0.00  0.00    -0.510 OA
ENDROOT
BRANCH   1   5
ATOM      5  C   LIG    1       -1.419  -2.056   0.003  0.00  0.00    +0.250 C 
BRANCH   5   6
ATOM      6  C   LIG    1       -2.816  -2.568  -0.234  0.00  0.00    +0.510 C 
ATOM      7  O   LIG    1       -3.351  -3.275   0.594  0.00  0.00    -0.540 OA
ATOM      8  N   LIG    1       -3.471  -2.240  -1.365  0.00  0.00    -0.840 N 
ATOM      9  H   LIG    1       -4.370  -2.570  -1.518  0.00  0.00    +0.410 HD
ATOM     10  H   LIG    1       -3.043  -1.675  -2.027  0.00  0.00    +0.410 HD
ENDBRANCH   5   6
BRANCH   5  11
ATOM     11  C   LIG    1       -1.431  -0.526   0.013  0.00  0.00    +0.050 C 
BRANCH  11  13
ATOM     12  C   LIG    1        0.799  -0.378  -1.103  0.00  0.00    +0.010 C 
ATOM     13  C   LIG    1        0.001  -0.005   0.147  0.00  0.00    -0.020 C 
ATOM     14  C   LIG    1       -0.022   1.517   0.302  0.00  0.00    +0.030 C 
ENDBRANCH  11  13
ENDBRANCH   5  11
ENDBRANCH   1   5
BRANCH   3  15
ATOM     15  CA  LIG    1        0.143  -4.272   2.705  0.00  0.00    +0.190 C 
BRANCH  15  16
ATOM     16  N   LIG    1        1.117  -5.350   2.481  0.00  0.00    -0.620 N 
ATOM     17  H1  LIG    1        1.453  -5.689   3.370  0.00  0.00    +0.450 HD
ATOM     18  H2  LIG    1        1.892  -4.996   1.941  0.00  0.00    +0.440 HD
ATOM     19  H3  LIG    1        0.674  -6.105   1.979  0.00  0.00    +0.440 HD
ENDBRANCH  15  16
BRANCH  15  20
ATOM     20  C   LIG    1       -1.032  -4.809   3.524  0.00  0.00    +0.240 C 
BRANCH  20  21
ATOM     21  O   LIG    1       -0.575  -5.182   4.826  0.00  0.00    -0.580 OA
ATOM     22  H   LIG    1       -1.269  -5.532   5.401  0.00  0.00    +0.420 HD
ENDBRANCH  20  21
ENDBRANCH  15  20
ENDBRANCH   3  15
TORSDOF 8
ENDMDL
MODEL      287
REMARK  Name = ZINC000082756768
REMARK                            x       y       z     vdW  Elec       q    Type
REMARK                         _______ _______ _______ _____ _____    ______ ____
ROOT
ATOM      1  N   LIG    1       -2.341  -2.896  -0.254  0.00  0.00    -0.490 N 
ATOM      2  H   LIG    1       -2.610  -2.825   0.716  0.00  0.00    +0.440 HD
ATOM      3  H   LIG    1       -2.196  -3.866  -0.492  0.00  0.00    +0.440 HD
ENDROOT
BRANCH   1   7
ATOM      4  C   LIG    1       -0.018   1.461   0.010  0.00  0.00    +0.300 C 
ATOM      5  N   LIG    1        0.002  -0.004   0.002  0.00  0.00    -0.610 N 
ATOM      6  C   LIG    1       -1.276  -0.705   0.004  0.00  0.00    +0.290 C 
ATOM      7  C   LIG    1       -1.097  -2.146  -0.473  0.00  0.00    +0.160 C 
ATOM      8  C   LIG    1        0.043  -2.790   0.325  0.00  0.00    +0.070 C 
ATOM      9  C   LIG    1        1.354  -2.104  -0.066  0.00  0.00    +0.120 C 
ATOM     10  C   LIG    1        1.188  -0.613  -0.013  0.00  0.00    +0.510 C 
ATOM     11  O   LIG    1        2.187   0.075   0.027  0.00  0.00    -0.520 OA
ENDBRANCH   1   7
BRANCH   1  12
ATOM     12  C   LIG    1       -3.405  -2.337  -1.099  0.00  0.00    +0.170 C 
ATOM     13  C   LIG    1       -4.742  -3.060  -0.837  0.00  0.00    +0.150 C 
ATOM     14  C   LIG    1       -5.081  -3.676  -2.177  0.00  0.00    +0.520 C 
ATOM     15  N   LIG    1       -4.120  -3.370  -3.058  0.00  0.00    -0.670 N 
ATOM     16  H   LIG    1       -4.141  -3.667  -3.981  0.00  0.00    +0.440 HD
ATOM     17  O   LIG    1       -6.066  -4.341  -2.415  0.00  0.00    -0.430 OA
ATOM     18  C   LIG    1       -3.127  -2.618  -2.559  0.00  0.00    +0.520 C 
ATOM     19  O   LIG    1       -2.162  -2.228  -3.181  0.00  0.00    -0.430 OA
ENDBRANCH   1  12
TORSDOF 2
ENDMDL
MODEL      288
REMARK  Name = ZINC000004136195
REMARK                            x       y       z     vdW  Elec       q    Type
REMARK                         _______ _______ _______ _____ _____    ______ ____
ROOT
ATOM      1  O   LIG    1        0.002  -0.004   0.002  0.00  0.00    -0.890 OA
ATOM      2  S   LIG    1       -0.017   1.417   0.010  0.00  0.00    +2.410 S 
ATOM      3  C   LIG    1       -0.410   2.019   1.702  0.00  0.00    -0.300 C 
ATOM      4  C   LIG    1        0.371   3.359   1.733  0.00  0.00    +0.190 C 
ATOM      5  C   LIG    1        1.738   3.144   1.080  0.00  0.00    +0.210 C 
ATOM      6  O   LIG    1       -0.796   2.124  -0.946  0.00  0.00    -0.900 OA
ATOM      7  C   LIG    1        1.700   2.055  -0.003  0.00  0.00    -0.300 C 
ENDROOT
BRANCH   5   8
ATOM      8  N   LIG    1        2.177   4.405   0.469  0.00  0.00    -0.510 N 
ATOM      9  H   LIG    1        2.169   5.137   1.165  0.00  0.00    +0.440 HD
ATOM     10  H   LIG    1        1.552   4.651  -0.284  0.00  0.00    +0.430 HD
BRANCH   8  11
ATOM     11  C   LIG    1        3.540   4.246  -0.057  0.00  0.00    +0.270 C 
BRANCH  11  12
ATOM     12  C   LIG    1        3.998   5.560  -0.693  0.00  0.00    +0.050 C 
BRANCH  12  13
ATOM     13  C   LIG    1        5.417   5.394  -1.241  0.00  0.00    +0.200 C 
BRANCH  13  14
ATOM     14  O   LIG    1        5.845   6.621  -1.835  0.00  0.00    -0.570 OA
ATOM     15  H   LIG    1        6.738   6.588  -2.205  0.00  0.00    +0.400 HD
ENDBRANCH  13  14
ENDBRANCH  12  13
ENDBRANCH  11  12
ENDBRANCH   8  11
ENDBRANCH   5   8
BRANCH   4  16
ATOM     16  O   LIG    1        0.549   3.780   3.087  0.00  0.00    -0.540 OA
ATOM     17  H   LIG    1       -0.279   3.944   3.560  0.00  0.00    +0.420 HD
ENDBRANCH   4  16
TORSDOF 6
ENDMDL
MODEL      289
REMARK  Name = ZINC000004136199
REMARK                            x       y       z     vdW  Elec       q    Type
REMARK                         _______ _______ _______ _____ _____    ______ ____
ROOT
ATOM      1  O   LIG    1        0.002  -0.004   0.002  0.00  0.00    -0.890 OA
ATOM      2  S   LIG    1       -0.017   1.417   0.010  0.00  0.00    +2.410 S 
ATOM      3  C   LIG    1       -0.378   2.026   1.706  0.00  0.00    -0.310 C 
ATOM      4  C   LIG    1        0.974   1.855   2.427  0.00  0.00    +0.210 C 
ATOM      5  C   LIG    1        2.152   1.876   1.460  0.00  0.00    +0.220 C 
ATOM      6  O   LIG    1       -0.806   2.127  -0.935  0.00  0.00    -0.890 OA
ATOM      7  C   LIG    1        1.704   2.063  -0.003  0.00  0.00    -0.310 C 
ENDROOT
BRANCH   5   8
ATOM      8  N   LIG    1        3.049   2.980   1.826  0.00  0.00    -0.490 N 
ATOM      9  H   LIG    1        3.318   2.888   2.794  0.00  0.00    +0.440 HD
ATOM     10  H   LIG    1        2.572   3.859   1.693  0.00  0.00    +0.430 HD
BRANCH   8  11
ATOM     11  C   LIG    1        4.247   2.939   0.978  0.00  0.00    +0.270 C 
BRANCH  11  12
ATOM     12  C   LIG    1        5.182   4.089   1.359  0.00  0.00    +0.050 C 
BRANCH  12  13
ATOM     13  C   LIG    1        6.430   4.046   0.476  0.00  0.00    +0.200 C 
BRANCH  13  14
ATOM     14  O   LIG    1        7.303   5.120   0.832  0.00  0.00    -0.570 OA
ATOM     15  H   LIG    1        8.117   5.155   0.311  0.00  0.00    +0.400 HD
ENDBRANCH  13  14
ENDBRANCH  12  13
ENDBRANCH  11  12
ENDBRANCH   8  11
ENDBRANCH   5   8
BRANCH   4  16
ATOM     16  O   LIG    1        1.133   2.916   3.371  0.00  0.00    -0.580 OA
ATOM     17  H   LIG    1        0.457   2.932   4.062  0.00  0.00    +0.430 HD
ENDBRANCH   4  16
TORSDOF 6
ENDMDL
MODEL      290
REMARK  Name = ZINC000082756769
REMARK                            x       y       z     vdW  Elec       q    Type
REMARK                         _______ _______ _______ _____ _____    ______ ____
ROOT
ATOM      1  N   LIG    1       -2.339  -2.899   0.248  0.00  0.00    -0.490 N 
ATOM      2  H   LIG    1       -2.104  -3.858   0.454  0.00  0.00    +0.440 HD
ATOM      3  H   LIG    1       -2.697  -2.835  -0.693  0.00  0.00    +0.440 HD
ENDROOT
BRANCH   1   7
ATOM      4  C   LIG    1       -0.355   1.611  -0.178  0.00  0.00    +0.300 C 
ATOM      5  N   LIG    1       -0.232   0.151  -0.178  0.00  0.00    -0.610 N 
ATOM      6  C   LIG    1       -1.454  -0.638  -0.082  0.00  0.00    +0.290 C 
ATOM      7  C   LIG    1       -1.137  -2.063   0.372  0.00  0.00    +0.160 C 
ATOM      8  C   LIG    1       -0.022  -2.626  -0.518  0.00  0.00    +0.070 C 
ATOM      9  C   LIG    1        1.266  -1.849  -0.229  0.00  0.00    +0.120 C 
ATOM     10  C   LIG    1        0.991  -0.373  -0.271  0.00  0.00    +0.510 C 
ATOM     11  O   LIG    1        1.932   0.383  -0.388  0.00  0.00    -0.510 OA
ENDBRANCH   1   7
BRANCH   1  12
ATOM     12  C   LIG    1       -3.360  -2.430   1.194  0.00  0.00    +0.170 C 
ATOM     13  C   LIG    1       -2.957  -2.775   2.643  0.00  0.00    +0.130 C 
ATOM     14  C   LIG    1       -4.067  -3.690   3.112  0.00  0.00    +0.530 C 
ATOM     15  N   LIG    1       -4.954  -3.850   2.122  0.00  0.00    -0.670 N 
ATOM     16  H   LIG    1       -5.747  -4.402   2.212  0.00  0.00    +0.440 HD
ATOM     17  O   LIG    1       -4.141  -4.197   4.210  0.00  0.00    -0.430 OA
ATOM     18  C   LIG    1       -4.657  -3.184   0.995  0.00  0.00    +0.520 C 
ATOM     19  O   LIG    1       -5.321  -3.190  -0.019  0.00  0.00    -0.430 OA
ENDBRANCH   1  12
TORSDOF 2
ENDMDL
MODEL      291
REMARK  Name = ZINC000022026428
REMARK                            x       y       z     vdW  Elec       q    Type
REMARK                         _______ _______ _______ _____ _____    ______ ____
ROOT
ATOM      1  O   LIG    1        0.002  -0.004   0.002  0.00  0.00    -0.530 OA
ATOM      2  C   LIG    1       -0.014   1.209   0.009  0.00  0.00    +0.510 C 
ATOM      3  C   LIG    1       -1.322   1.957   0.032  0.00  0.00    +0.030 C 
ATOM      4  C   LIG    1       -2.394   1.089   0.694  0.00  0.00    +0.230 C 
ATOM      5  N   LIG    1       -2.480   1.422   2.122  0.00  0.00    -0.680 NA
ATOM      6  H   LIG    1       -1.782   2.105   2.377  0.00  0.00    +0.340 HD
ATOM      7  C   LIG    1       -2.362   0.216   2.952  0.00  0.00    +0.200 C 
ATOM      8  C   LIG    1       -1.772   0.588   4.314  0.00  0.00    +0.250 C 
ATOM      9  N   LIG    1       -0.720  -0.372   4.670  0.00  0.00    -0.510 N 
ATOM     10  C   LIG    1        0.506   0.355   5.029  0.00  0.00    +0.250 C 
ATOM     11  C   LIG    1        1.716  -0.349   4.411  0.00  0.00    +0.050 C 
ATOM     12  C   LIG    1        2.533   0.660   3.601  0.00  0.00    +0.180 C 
ATOM     13  N   LIG    1        2.675   0.178   2.221  0.00  0.00    -0.690 NA
ATOM     14  H   LIG    1        3.316  -0.599   2.173  0.00  0.00    +0.350 HD
ATOM     15  C   LIG    1        3.097   1.264   1.325  0.00  0.00    +0.170 C 
ATOM     16  C   LIG    1        2.393   1.114  -0.025  0.00  0.00    +0.290 C 
ATOM     17  H   LIG    1       -0.534  -0.976   3.883  0.00  0.00    +0.430 HD
ATOM     18  H   LIG    1       -1.023  -0.928   5.456  0.00  0.00    +0.430 HD
ATOM     19  N   LIG    1        1.151   1.918   0.001  0.00  0.00    -0.740 N 
ATOM     20  H   LIG    1        1.165   2.888   0.008  0.00  0.00    +0.410 HD
ENDROOT
TORSDOF 0
ENDMDL
MODEL      292
REMARK  Name = ZINC000004761042
REMARK                            x       y       z     vdW  Elec       q    Type
REMARK                         _______ _______ _______ _____ _____    ______ ____
ROOT
ATOM      1  C   LIG    1       -2.827  -2.581   0.141  0.00  0.00    +0.510 C 
ATOM      2  N   LIG    1       -3.553  -2.537   1.276  0.00  0.00    -0.690 N 
ATOM      3  H   LIG    1       -3.166  -2.169   2.085  0.00  0.00    +0.420 HD
ATOM      4  O   LIG    1       -3.312  -3.040  -0.872  0.00  0.00    -0.520 OA
ENDROOT
BRANCH   1   5
ATOM      5  C   LIG    1       -1.413  -2.059   0.130  0.00  0.00    +0.180 C 
BRANCH   5   6
ATOM      6  N   LIG    1       -0.690  -2.629  -1.014  0.00  0.00    -0.620 N 
ATOM      7  H   LIG    1       -0.677  -3.635  -0.937  0.00  0.00    +0.440 HD
ATOM      8  H   LIG    1        0.257  -2.280  -1.022  0.00  0.00    +0.440 HD
ATOM      9  H   LIG    1       -1.153  -2.363  -1.871  0.00  0.00    +0.440 HD
ENDBRANCH   5   6
BRANCH   5  10
ATOM     10  C   LIG    1       -1.433  -0.534   0.013  0.00  0.00    +0.020 C 
ATOM     11  C   LIG    1       -2.135  -0.131  -1.286  0.00  0.00    +0.050 C 
BRANCH  10  13
ATOM     12  C   LIG    1       -0.019   1.526   0.010  0.00  0.00    +0.040 C 
ATOM     13  C   LIG    1        0.002  -0.004   0.002  0.00  0.00    +0.010 C 
ENDBRANCH  10  13
ENDBRANCH   5  10
ENDBRANCH   1   5
BRANCH   2  14
ATOM     14  C   LIG    1       -4.928  -3.044   1.286  0.00  0.00    +0.340 C 
BRANCH  14  15
ATOM     15  C   LIG    1       -5.513  -2.880   2.665  0.00  0.00    +0.510 C 
ATOM     16  N   LIG    1       -6.776  -3.280   2.913  0.00  0.00    -0.710 N 
ATOM     17  H   LIG    1       -7.308  -3.673   2.204  0.00  0.00    +0.420 HD
ATOM     18  O   LIG    1       -4.848  -2.388   3.552  0.00  0.00    -0.540 OA
BRANCH  16  19
ATOM     19  C   LIG    1       -7.345  -3.121   4.253  0.00  0.00    +0.320 C 
BRANCH  19  20
ATOM     20  C   LIG    1       -8.759  -3.642   4.264  0.00  0.00    +0.510 C 
ATOM     21  O   LIG    1       -9.243  -4.102   3.252  0.00  0.00    -0.540 OA
ATOM     22  N   LIG    1       -9.485  -3.598   5.399  0.00  0.00    -0.840 N 
ATOM     23  H   LIG    1      -10.395  -3.934   5.405  0.00  0.00    +0.410 HD
ATOM     24  H   LIG    1       -9.097  -3.231   6.208  0.00  0.00    +0.410 HD
ENDBRANCH  19  20
ENDBRANCH  16  19
ENDBRANCH  14  15
ENDBRANCH   2  14
TORSDOF 8
ENDMDL
MODEL      293
REMARK  Name = ZINC000004785978
REMARK                            x       y       z     vdW  Elec       q    Type
REMARK                         _______ _______ _______ _____ _____    ______ ____
ROOT
ATOM      1  N   LIG    1        3.190   3.043   1.707  0.00  0.00    -0.490 N 
ATOM      2  H   LIG    1        3.318   3.213   2.693  0.00  0.00    +0.440 HD
ATOM      3  H   LIG    1        3.029   3.920   1.233  0.00  0.00    +0.440 HD
ENDROOT
BRANCH   1   8
ATOM      4  O   LIG    1        0.002  -0.004   0.002  0.00  0.00    -0.900 OA
ATOM      5  S   LIG    1       -0.017   1.417   0.010  0.00  0.00    +2.410 S 
ATOM      6  C   LIG    1       -0.459   2.008   1.683  0.00  0.00    -0.270 C 
ATOM      7  C   LIG    1        0.789   2.760   2.186  0.00  0.00    +0.090 C 
ATOM      8  C   LIG    1        2.033   2.160   1.508  0.00  0.00    +0.190 C 
ATOM      9  O   LIG    1       -0.784   2.119  -0.959  0.00  0.00    -0.900 OA
ATOM     10  C   LIG    1        1.704   2.048  -0.003  0.00  0.00    -0.330 C 
ENDBRANCH   1   8
BRANCH   1  11
ATOM     11  C   LIG    1        4.394   2.404   1.160  0.00  0.00    +0.240 C 
BRANCH  11  12
ATOM     12  C   LIG    1        5.599   3.324   1.367  0.00  0.00    +0.210 C 
BRANCH  12  13
ATOM     13  O   LIG    1        5.372   4.565   0.696  0.00  0.00    -0.550 OA
ATOM     14  H   LIG    1        5.240   4.478  -0.258  0.00  0.00    +0.390 HD
ENDBRANCH  12  13
BRANCH  12  15
ATOM     15  C   LIG    1        6.853   2.659   0.797  0.00  0.00    +0.180 C 
BRANCH  15  16
ATOM     16  O   LIG    1        7.996   3.463   1.093  0.00  0.00    -0.560 OA
ATOM     17  H   LIG    1        8.829   3.101   0.761  0.00  0.00    +0.400 HD
ENDBRANCH  15  16
ENDBRANCH  12  15
ENDBRANCH  11  12
ENDBRANCH   1  11
TORSDOF 6
ENDMDL
MODEL      294
REMARK  Name = ZINC000004785980
REMARK                            x       y       z     vdW  Elec       q    Type
REMARK                         _______ _______ _______ _____ _____    ______ ____
ROOT
ATOM      1  N   LIG    1        3.190   3.043   1.707  0.00  0.00    -0.490 N 
ATOM      2  H   LIG    1        3.318   3.213   2.693  0.00  0.00    +0.440 HD
ATOM      3  H   LIG    1        3.029   3.920   1.233  0.00  0.00    +0.430 HD
ENDROOT
BRANCH   1   8
ATOM      4  O   LIG    1        0.002  -0.004   0.002  0.00  0.00    -0.900 OA
ATOM      5  S   LIG    1       -0.017   1.417   0.010  0.00  0.00    +2.410 S 
ATOM      6  C   LIG    1       -0.459   2.008   1.683  0.00  0.00    -0.270 C 
ATOM      7  C   LIG    1        0.789   2.760   2.186  0.00  0.00    +0.090 C 
ATOM      8  C   LIG    1        2.033   2.160   1.508  0.00  0.00    +0.190 C 
ATOM      9  O   LIG    1       -0.784   2.119  -0.959  0.00  0.00    -0.900 OA
ATOM     10  C   LIG    1        1.704   2.048  -0.003  0.00  0.00    -0.330 C 
ENDBRANCH   1   8
BRANCH   1  11
ATOM     11  C   LIG    1        4.394   2.404   1.160  0.00  0.00    +0.240 C 
BRANCH  11  12
ATOM     12  C   LIG    1        5.599   3.324   1.367  0.00  0.00    +0.210 C 
BRANCH  12  13
ATOM     13  O   LIG    1        5.851   3.471   2.766  0.00  0.00    -0.540 OA
ATOM     14  H   LIG    1        6.046   2.639   3.220  0.00  0.00    +0.390 HD
ENDBRANCH  12  13
BRANCH  12  15
ATOM     15  C   LIG    1        6.828   2.716   0.688  0.00  0.00    +0.180 C 
BRANCH  15  16
ATOM     16  O   LIG    1        7.924   3.628   0.781  0.00  0.00    -0.560 OA
ATOM     17  H   LIG    1        8.738   3.308   0.371  0.00  0.00    +0.400 HD
ENDBRANCH  15  16
ENDBRANCH  12  15
ENDBRANCH  11  12
ENDBRANCH   1  11
TORSDOF 6
ENDMDL
MODEL      295
REMARK  Name = ZINC000004785979
REMARK                            x       y       z     vdW  Elec       q    Type
REMARK                         _______ _______ _______ _____ _____    ______ ____
ROOT
ATOM      1  N   LIG    1        3.259   2.652   1.800  0.00  0.00    -0.500 N 
ATOM      2  H   LIG    1        3.516   1.676   1.828  0.00  0.00    +0.440 HD
ATOM      3  H   LIG    1        3.346   3.049   2.724  0.00  0.00    +0.440 HD
ENDROOT
BRANCH   1   8
ATOM      4  O   LIG    1        0.002  -0.004   0.002  0.00  0.00    -0.900 OA
ATOM      5  S   LIG    1       -0.017   1.417   0.010  0.00  0.00    +2.410 S 
ATOM      6  C   LIG    1       -0.460   2.009   1.687  0.00  0.00    -0.270 C 
ATOM      7  C   LIG    1        0.923   2.140   2.374  0.00  0.00    +0.090 C 
ATOM      8  C   LIG    1        1.869   2.779   1.343  0.00  0.00    +0.200 C 
ATOM      9  O   LIG    1       -0.784   2.119  -0.959  0.00  0.00    -0.900 OA
ATOM     10  C   LIG    1        1.700   2.046  -0.003  0.00  0.00    -0.320 C 
ENDBRANCH   1   8
BRANCH   1  11
ATOM     11  C   LIG    1        4.147   3.366   0.874  0.00  0.00    +0.240 C 
BRANCH  11  12
ATOM     12  C   LIG    1        5.595   3.233   1.351  0.00  0.00    +0.210 C 
BRANCH  12  13
ATOM     13  O   LIG    1        5.996   1.863   1.279  0.00  0.00    -0.540 OA
ATOM     14  H   LIG    1        5.953   1.487   0.390  0.00  0.00    +0.390 HD
ENDBRANCH  12  13
BRANCH  12  15
ATOM     15  C   LIG    1        6.506   4.079   0.459  0.00  0.00    +0.180 C 
BRANCH  15  16
ATOM     16  O   LIG    1        7.839   4.048   0.974  0.00  0.00    -0.560 OA
ATOM     17  H   LIG    1        8.472   4.564   0.457  0.00  0.00    +0.400 HD
ENDBRANCH  15  16
ENDBRANCH  12  15
ENDBRANCH  11  12
ENDBRANCH   1  11
TORSDOF 6
ENDMDL
MODEL      296
REMARK  Name = ZINC000004785977
REMARK                            x       y       z     vdW  Elec       q    Type
REMARK                         _______ _______ _______ _____ _____    ______ ____
ROOT
ATOM      1  N   LIG    1        3.259   2.652   1.800  0.00  0.00    -0.500 N 
ATOM      2  H   LIG    1        3.516   1.676   1.828  0.00  0.00    +0.430 HD
ATOM      3  H   LIG    1        3.346   3.049   2.724  0.00  0.00    +0.440 HD
ENDROOT
BRANCH   1   8
ATOM      4  O   LIG    1        0.002  -0.004   0.002  0.00  0.00    -0.900 OA
ATOM      5  S   LIG    1       -0.017   1.417   0.010  0.00  0.00    +2.410 S 
ATOM      6  C   LIG    1       -0.460   2.009   1.687  0.00  0.00    -0.270 C 
ATOM      7  C   LIG    1        0.923   2.140   2.374  0.00  0.00    +0.090 C 
ATOM      8  C   LIG    1        1.869   2.779   1.343  0.00  0.00    +0.200 C 
ATOM      9  O   LIG    1       -0.784   2.119  -0.959  0.00  0.00    -0.900 OA
ATOM     10  C   LIG    1        1.700   2.046  -0.003  0.00  0.00    -0.320 C 
ENDBRANCH   1   8
BRANCH   1  11
ATOM     11  C   LIG    1        4.147   3.366   0.874  0.00  0.00    +0.240 C 
BRANCH  11  12
ATOM     12  C   LIG    1        5.595   3.233   1.351  0.00  0.00    +0.210 C 
BRANCH  12  13
ATOM     13  O   LIG    1        5.719   3.795   2.659  0.00  0.00    -0.550 OA
ATOM     14  H   LIG    1        5.488   4.733   2.708  0.00  0.00    +0.390 HD
ENDBRANCH  12  13
BRANCH  12  15
ATOM     15  C   LIG    1        6.520   3.977   0.387  0.00  0.00    +0.180 C 
BRANCH  15  16
ATOM     16  O   LIG    1        7.880   3.757   0.765  0.00  0.00    -0.560 OA
ATOM     17  H   LIG    1        8.524   4.200   0.196  0.00  0.00    +0.400 HD
ENDBRANCH  15  16
ENDBRANCH  12  15
ENDBRANCH  11  12
ENDBRANCH   1  11
TORSDOF 6
ENDMDL
MODEL      297
REMARK  Name = ZINC000019411125
REMARK                            x       y       z     vdW  Elec       q    Type
REMARK                         _______ _______ _______ _____ _____    ______ ____
ROOT
ATOM      1  O   LIG    1       -0.070   0.115   0.530  0.00  0.00    -0.520 OA
ATOM      2  C   LIG    1       -0.014   1.209   0.009  0.00  0.00    +0.530 C 
ATOM      3  N   LIG    1       -1.112   1.736  -0.569  0.00  0.00    -0.610 N 
ATOM      4  C   LIG    1       -2.419   1.064  -0.487  0.00  0.00    +0.300 C 
ATOM      5  C   LIG    1       -3.389   1.994   0.243  0.00  0.00    +0.270 C 
ATOM      6  N   LIG    1       -3.302   3.349  -0.284  0.00  0.00    -0.710 N 
ATOM      7  H   LIG    1       -4.061   3.937  -0.146  0.00  0.00    +0.410 HD
ATOM      8  C   LIG    1       -2.251   3.839  -0.944  0.00  0.00    +0.510 C 
ATOM      9  O   LIG    1       -2.263   5.008  -1.265  0.00  0.00    -0.530 OA
ATOM     10  C   LIG    1       -1.053   3.010  -1.302  0.00  0.00    +0.330 C 
ENDROOT
BRANCH   2  11
ATOM     11  C   LIG    1        1.283   1.975   0.002  0.00  0.00    -0.020 C 
ATOM     12  C   LIG    1        1.313   2.940   1.191  0.00  0.00    +0.060 C 
ATOM     13  C   LIG    1        2.666   3.656   1.221  0.00  0.00    +0.070 C 
ATOM     14  C   LIG    1        3.787   2.616   1.289  0.00  0.00    +0.260 C 
ATOM     15  N   LIG    1        3.720   1.741   0.113  0.00  0.00    -0.500 N 
ATOM     16  H   LIG    1        4.491   1.090   0.134  0.00  0.00    +0.440 HD
ATOM     17  H   LIG    1        3.777   2.301  -0.725  0.00  0.00    +0.430 HD
ATOM     18  C   LIG    1        2.455   0.997   0.115  0.00  0.00    +0.300 C 
ENDBRANCH   2  11
TORSDOF 1
ENDMDL
MODEL      298
REMARK  Name = ZINC000005282310
REMARK                            x       y       z     vdW  Elec       q    Type
REMARK                         _______ _______ _______ _____ _____    ______ ____
ROOT
ATOM      1  C   LIG    1       -0.546   1.621   1.265  0.00  0.00    +0.110 C 
ATOM      2  C   LIG    1       -1.976   1.084   1.170  0.00  0.00    +0.170 C 
ATOM      3  O   LIG    1       -2.674   1.375   2.382  0.00  0.00    -0.320 OA
ATOM      4  C   LIG    1       -2.099   0.777   3.546  0.00  0.00    +0.170 C 
ATOM      5  C   LIG    1       -0.673   1.302   3.736  0.00  0.00    +0.000 C 
ATOM      6  C   LIG    1        0.148   0.997   2.479  0.00  0.00    +0.190 C 
ENDROOT
BRANCH   1   7
ATOM      7  N   LIG    1        0.192   1.271   0.044  0.00  0.00    -0.630 N 
ATOM      8  H   LIG    1       -0.267   1.681  -0.756  0.00  0.00    +0.440 HD
ATOM      9  H   LIG    1        1.135   1.624   0.108  0.00  0.00    +0.440 HD
ATOM     10  H   LIG    1        0.215   0.268  -0.059  0.00  0.00    +0.440 HD
ENDBRANCH   1   7
BRANCH   6  11
ATOM     11  O   LIG    1        1.460   1.547   2.620  0.00  0.00    -0.510 OA
ATOM     12  H   LIG    1        2.035   1.391   1.859  0.00  0.00    +0.370 HD
ENDBRANCH   6  11
BRANCH   5  13
ATOM     13  C   LIG    1       -0.033   0.618   4.946  0.00  0.00    +0.190 C 
BRANCH  13  14
ATOM     14  O   LIG    1        1.259   1.180   5.182  0.00  0.00    -0.550 OA
ATOM     15  H   LIG    1        1.724   0.793   5.936  0.00  0.00    +0.390 HD
ENDBRANCH  13  14
ENDBRANCH   5  13
BRANCH   4  16
ATOM     16  C   LIG    1       -2.942   1.132   4.772  0.00  0.00    +0.210 C 
BRANCH  16  17
ATOM     17  O   LIG    1       -4.241   0.551   4.642  0.00  0.00    -0.560 OA
ATOM     18  H   LIG    1       -4.830   0.736   5.386  0.00  0.00    +0.390 HD
ENDBRANCH  16  17
ENDBRANCH   4  16
BRANCH   2  19
ATOM     19  C   LIG    1       -2.694   1.749  -0.005  0.00  0.00    +0.190 C 
BRANCH  19  20
ATOM     20  O   LIG    1       -3.988   1.164  -0.166  0.00  0.00    -0.550 OA
ATOM     21  H   LIG    1       -4.502   1.539  -0.895  0.00  0.00    +0.400 HD
ENDBRANCH  19  20
ENDBRANCH   2  19
TORSDOF 8
ENDMDL
MODEL      299
REMARK  Name = ZINC000005282313
REMARK                            x       y       z     vdW  Elec       q    Type
REMARK                         _______ _______ _______ _____ _____    ______ ____
ROOT
ATOM      1  C   LIG    1       -0.699   1.479   1.216  0.00  0.00    +0.110 C 
ATOM      2  C   LIG    1       -2.135   0.947   1.230  0.00  0.00    +0.170 C 
ATOM      3  O   LIG    1       -2.783   1.361   2.434  0.00  0.00    -0.320 OA
ATOM      4  C   LIG    1       -2.165   0.873   3.627  0.00  0.00    +0.170 C 
ATOM      5  C   LIG    1       -0.731   1.402   3.709  0.00  0.00    +0.010 C 
ATOM      6  C   LIG    1        0.039   0.969   2.458  0.00  0.00    +0.200 C 
ENDROOT
BRANCH   1   7
ATOM      7  N   LIG    1       -0.012   1.005   0.008  0.00  0.00    -0.630 N 
ATOM      8  H   LIG    1       -0.500   1.339  -0.810  0.00  0.00    +0.440 HD
ATOM      9  H   LIG    1        0.935   1.354   0.000  0.00  0.00    +0.440 HD
ATOM     10  H   LIG    1        0.002  -0.004   0.002  0.00  0.00    +0.440 HD
ENDBRANCH   1   7
BRANCH   6  11
ATOM     11  O   LIG    1        1.357   1.519   2.494  0.00  0.00    -0.530 OA
ATOM     12  H   LIG    1        1.902   1.285   1.730  0.00  0.00    +0.380 HD
ENDBRANCH   6  11
BRANCH   5  13
ATOM     13  C   LIG    1       -0.753   2.930   3.793  0.00  0.00    +0.200 C 
BRANCH  13  14
ATOM     14  O   LIG    1       -1.375   3.331   5.016  0.00  0.00    -0.560 OA
ATOM     15  H   LIG    1       -1.424   4.289   5.136  0.00  0.00    +0.390 HD
ENDBRANCH  13  14
ENDBRANCH   5  13
BRANCH   4  16
ATOM     16  C   LIG    1       -2.957   1.353   4.845  0.00  0.00    +0.240 C 
BRANCH  16  17
ATOM     17  O   LIG    1       -4.260   0.766   4.827  0.00  0.00    -0.570 OA
ATOM     18  H   LIG    1       -4.819   1.027   5.572  0.00  0.00    +0.390 HD
ENDBRANCH  16  17
ENDBRANCH   4  16
BRANCH   2  19
ATOM     19  C   LIG    1       -2.896   1.501   0.024  0.00  0.00    +0.190 C 
BRANCH  19  20
ATOM     20  O   LIG    1       -4.198   0.914  -0.029  0.00  0.00    -0.550 OA
ATOM     21  H   LIG    1       -4.737   1.220  -0.770  0.00  0.00    +0.400 HD
ENDBRANCH  19  20
ENDBRANCH   2  19
TORSDOF 8
ENDMDL
MODEL      300
REMARK  Name = ZINC000005494878
REMARK                            x       y       z     vdW  Elec       q    Type
REMARK                         _______ _______ _______ _____ _____    ______ ____
ROOT
ATOM      1  N   LIG    1       -4.157  -0.270  -2.467  0.00  0.00    -0.610 N 
ATOM      2  C   LIG    1       -4.915   0.973  -2.676  0.00  0.00    +0.280 C 
ATOM      3  C   LIG    1       -5.399   0.869  -4.135  0.00  0.00    +0.290 C 
ATOM      4  N   LIG    1       -4.864  -0.422  -4.593  0.00  0.00    -0.550 N 
ATOM      5  C   LIG    1       -4.175  -0.992  -3.595  0.00  0.00    +0.540 C 
ATOM      6  S   LIG    1       -3.399  -2.510  -3.745  0.00  0.00    -0.580 S 
ENDROOT
BRANCH   1   7
ATOM      7  C   LIG    1       -3.485  -0.656  -1.224  0.00  0.00    +0.580 C 
BRANCH   7   8
ATOM      8  N   LIG    1       -2.107  -0.147  -1.234  0.00  0.00    -0.530 N 
ATOM      9  H   LIG    1       -1.610  -0.539  -2.020  0.00  0.00    +0.430 HD
ATOM     10  H   LIG    1       -2.120   0.859  -1.311  0.00  0.00    +0.430 HD
BRANCH   8  11
ATOM     11  C   LIG    1       -1.433  -0.534   0.013  0.00  0.00    +0.290 C 
BRANCH  11  12
ATOM     12  C   LIG    1        0.002  -0.004   0.002  0.00  0.00    +0.220 C 
BRANCH  12  13
ATOM     13  O   LIG    1       -0.017   1.425   0.010  0.00  0.00    -0.580 OA
ATOM     14  H   LIG    1        0.861   1.830   0.004  0.00  0.00    +0.410 HD
ENDBRANCH  12  13
ENDBRANCH  11  12
ENDBRANCH   8  11
ENDBRANCH   7   8
ENDBRANCH   1   7
BRANCH   4  15
ATOM     15  C   LIG    1       -5.049  -0.992  -5.930  0.00  0.00    +0.500 C 
BRANCH  15  16
ATOM     16  O   LIG    1       -3.836  -0.863  -6.675  0.00  0.00    -0.580 OA
ATOM     17  H   LIG    1       -3.886  -1.220  -7.572  0.00  0.00    +0.410 HD
ENDBRANCH  15  16
ENDBRANCH   4  15
TORSDOF 7
ENDMDL
MODEL      301
REMARK  Name = ZINC000005784279
REMARK                            x       y       z     vdW  Elec       q    Type
REMARK                         _______ _______ _______ _____ _____    ______ ____
ROOT
ATOM      1  C   LIG    1        0.001  -4.173  -0.023  0.00  0.00    +0.450 C 
ATOM      2  C   LIG    1       -0.503  -4.696   1.340  0.00  0.00    +0.090 C 
ATOM      3  C   LIG    1       -2.001  -4.983   1.049  0.00  0.00    +0.150 C 
ATOM      4  C   LIG    1       -1.930  -5.448  -0.427  0.00  0.00    +0.180 C 
ATOM      5  O   LIG    1       -0.906  -4.637  -1.029  0.00  0.00    -0.330 OA
ENDROOT
BRANCH   1   9
ATOM      6  C   LIG    1        0.138  -0.007   0.030  0.00  0.00    +0.510 A 
ATOM      7  N   LIG    1        1.167  -0.729   0.454  0.00  0.00    -0.610 NA
ATOM      8  C   LIG    1        1.117  -2.060   0.434  0.00  0.00    +0.660 A 
ATOM      9  N   LIG    1        0.026  -2.708  -0.014  0.00  0.00    -0.550 N 
ATOM     10  C   LIG    1       -1.055  -2.009  -0.459  0.00  0.00    +0.350 A 
ATOM     11  O   LIG    1        2.076  -2.702   0.829  0.00  0.00    -0.540 OA
ATOM     12  C   LIG    1       -1.022  -0.655  -0.440  0.00  0.00    -0.130 A 
BRANCH   6  13
ATOM     13  N   LIG    1        0.201   1.367   0.056  0.00  0.00    -0.810 N 
ATOM     14  H   LIG    1        0.999   1.811   0.384  0.00  0.00    +0.420 HD
ATOM     15  H   LIG    1       -0.555   1.893  -0.251  0.00  0.00    +0.420 HD
ENDBRANCH   6  13
ENDBRANCH   1   9
BRANCH   3  16
ATOM     16  N   LIG    1       -2.514  -6.051   1.918  0.00  0.00    -0.620 N 
ATOM     17  H   LIG    1       -1.971  -6.890   1.775  0.00  0.00    +0.440 HD
ATOM     18  H   LIG    1       -3.480  -6.233   1.692  0.00  0.00    +0.440 HD
ATOM     19  H   LIG    1       -2.442  -5.763   2.882  0.00  0.00    +0.450 HD
ENDBRANCH   3  16
BRANCH   4  20
ATOM     20  C   LIG    1       -3.273  -5.214  -1.123  0.00  0.00    +0.210 C 
BRANCH  20  21
ATOM     21  O   LIG    1       -3.225  -5.754  -2.445  0.00  0.00    -0.550 OA
ATOM     22  H   LIG    1       -4.045  -5.641  -2.945  0.00  0.00    +0.400 HD
ENDBRANCH  20  21
ENDBRANCH   4  20
TORSDOF 5
ENDMDL
MODEL      302
REMARK  Name = ZINC000169676592
REMARK                            x       y       z     vdW  Elec       q    Type
REMARK                         _______ _______ _______ _____ _____    ______ ____
ROOT
ATOM      1  O   LIG    1        0.002  -0.004   0.002  0.00  0.00    -0.470 OA
ATOM      2  C   LIG    1       -0.014   1.209   0.009  0.00  0.00    +0.530 C 
ATOM      3  C   LIG    1       -1.311   1.993   0.032  0.00  0.00    -0.250 C 
ATOM      4  S   LIG    1       -0.756   3.668   0.546  0.00  0.00    +2.410 S 
ATOM      5  C   LIG    1        0.971   3.385   0.007  0.00  0.00    -0.320 C 
ATOM      6  C   LIG    1        1.179   3.967  -1.386  0.00  0.00    +0.100 C 
ATOM      7  C   LIG    1        2.647   3.799  -1.790  0.00  0.00    +0.280 C 
ATOM      8  N   LIG    1        3.506   4.481  -0.815  0.00  0.00    -0.510 N 
ATOM      9  C   LIG    1        3.369   3.848   0.503  0.00  0.00    +0.280 C 
ATOM     10  H   LIG    1        3.233   5.450  -0.749  0.00  0.00    +0.430 HD
ATOM     11  H   LIG    1        4.467   4.423  -1.116  0.00  0.00    +0.440 HD
ATOM     12  C   LIG    1        1.932   4.018   1.006  0.00  0.00    +0.120 C 
ATOM     13  O   LIG    1       -0.811   3.783   1.961  0.00  0.00    -0.880 OA
ATOM     14  O   LIG    1       -1.365   4.653  -0.278  0.00  0.00    -0.880 OA
ATOM     15  N   LIG    1        1.104   1.928   0.002  0.00  0.00    -0.700 N 
ATOM     16  H   LIG    1        1.976   1.503  -0.012  0.00  0.00    +0.420 HD
ENDROOT
TORSDOF 0
ENDMDL
MODEL      303
REMARK  Name = ZINC000020464847
REMARK                            x       y       z     vdW  Elec       q    Type
REMARK                         _______ _______ _______ _____ _____    ______ ____
ROOT
ATOM      1  C   LIG    1       -0.249   0.786   2.423  0.00  0.00    +0.150 C 
ATOM      2  O   LIG    1        1.086   1.255   2.136  0.00  0.00    -0.360 OA
ATOM      3  C   LIG    1        1.763   1.280   3.412  0.00  0.00    +0.150 C 
ATOM      4  C   LIG    1        0.713   1.825   4.405  0.00  0.00    +0.130 C 
ATOM      5  C   LIG    1       -0.643   1.491   3.740  0.00  0.00    +0.190 C 
ENDROOT
BRANCH   5   6
ATOM      6  N   LIG    1       -1.397   2.720   3.462  0.00  0.00    -0.520 NA
ATOM      7  C   LIG    1       -0.600   3.656   2.656  0.00  0.00    +0.170 C 
ATOM      8  C   LIG    1       -1.443   4.894   2.339  0.00  0.00    +0.210 C 
ATOM      9  O   LIG    1       -1.895   5.482   3.562  0.00  0.00    -0.380 OA
ATOM     10  C   LIG    1       -2.675   4.599   4.372  0.00  0.00    +0.220 C 
ATOM     11  C   LIG    1       -1.845   3.357   4.709  0.00  0.00    +0.170 C 
ENDBRANCH   5   6
BRANCH   4  12
ATOM     12  O   LIG    1        0.862   3.237   4.566  0.00  0.00    -0.530 OA
ATOM     13  H   LIG    1        1.719   3.504   4.925  0.00  0.00    +0.380 HD
ENDBRANCH   4  12
BRANCH   1  14
ATOM     14  C   LIG    1       -1.207   1.186   1.298  0.00  0.00    +0.300 C 
BRANCH  14  15
ATOM     15  N   LIG    1       -0.767   0.570   0.039  0.00  0.00    -0.640 N 
ATOM     16  H   LIG    1       -1.399   0.834  -0.703  0.00  0.00    +0.440 HD
ATOM     17  H   LIG    1        0.164   0.888  -0.184  0.00  0.00    +0.440 HD
ATOM     18  H   LIG    1       -0.765  -0.434   0.138  0.00  0.00    +0.430 HD
ENDBRANCH  14  15
ENDBRANCH   1  14
BRANCH   3  19
ATOM     19  C   LIG    1        2.977   2.210   3.353  0.00  0.00    +0.210 C 
BRANCH  19  20
ATOM     20  O   LIG    1        3.952   1.664   2.463  0.00  0.00    -0.570 OA
ATOM     21  H   LIG    1        4.751   2.202   2.376  0.00  0.00    +0.390 HD
ENDBRANCH  19  20
ENDBRANCH   3  19
TORSDOF 6
ENDMDL
MODEL      304
REMARK  Name = ZINC000020465678
REMARK                            x       y       z     vdW  Elec       q    Type
REMARK                         _______ _______ _______ _____ _____    ______ ____
ROOT
ATOM      1  C   LIG    1        0.019   0.957   2.450  0.00  0.00    +0.110 C 
ATOM      2  O   LIG    1        1.359   1.498   2.470  0.00  0.00    -0.360 OA
ATOM      3  C   LIG    1        1.790   1.395   3.844  0.00  0.00    +0.150 C 
ATOM      4  C   LIG    1        0.550   1.787   4.678  0.00  0.00    +0.190 C 
ATOM      5  C   LIG    1       -0.643   1.491   3.740  0.00  0.00    +0.190 C 
ENDROOT
BRANCH   5   6
ATOM      6  N   LIG    1       -1.397   2.720   3.462  0.00  0.00    -0.500 NA
ATOM      7  C   LIG    1       -2.576   2.438   2.633  0.00  0.00    +0.150 C 
ATOM      8  C   LIG    1       -3.414   3.711   2.486  0.00  0.00    +0.030 C 
ATOM      9  C   LIG    1       -2.561   4.805   1.837  0.00  0.00    -0.010 C 
ATOM     10  C   LIG    1       -1.315   5.045   2.695  0.00  0.00    +0.030 C 
ATOM     11  C   LIG    1       -0.539   3.734   2.837  0.00  0.00    +0.180 C 
ENDBRANCH   5   6
BRANCH   4  12
ATOM     12  O   LIG    1        0.594   3.175   5.017  0.00  0.00    -0.520 OA
ATOM     13  H   LIG    1        1.357   3.424   5.556  0.00  0.00    +0.380 HD
ENDBRANCH   4  12
BRANCH   1  14
ATOM     14  C   LIG    1       -0.738   1.455   1.218  0.00  0.00    +0.280 C 
BRANCH  14  15
ATOM     15  N   LIG    1        0.102   1.284   0.025  0.00  0.00    -0.640 N 
ATOM     16  H   LIG    1       -0.397   1.613  -0.788  0.00  0.00    +0.440 HD
ATOM     17  H   LIG    1        0.953   1.815   0.134  0.00  0.00    +0.440 HD
ATOM     18  H   LIG    1        0.328   0.307  -0.091  0.00  0.00    +0.430 HD
ENDBRANCH  14  15
ENDBRANCH   1  14
BRANCH   3  19
ATOM     19  C   LIG    1        2.945   2.362   4.114  0.00  0.00    +0.210 C 
BRANCH  19  20
ATOM     20  O   LIG    1        4.092   1.954   3.367  0.00  0.00    -0.570 OA
ATOM     21  H   LIG    1        4.864   2.523   3.490  0.00  0.00    +0.390 HD
ENDBRANCH  19  20
ENDBRANCH   3  19
TORSDOF 6
ENDMDL
MODEL      305
REMARK  Name = ZINC000006069509
REMARK                            x       y       z     vdW  Elec       q    Type
REMARK                         _______ _______ _______ _____ _____    ______ ____
ROOT
ATOM      1  C   LIG    1       -2.369  -2.831  -0.002  0.00  0.00    +0.460 C 
ATOM      2  C   LIG    1       -2.563  -3.524  -1.368  0.00  0.00    +0.080 C 
ATOM      3  C   LIG    1       -2.057  -4.964  -1.082  0.00  0.00    +0.150 C 
ATOM      4  C   LIG    1       -2.499  -5.144   0.392  0.00  0.00    +0.190 C 
ATOM      5  O   LIG    1       -2.316  -3.853   1.000  0.00  0.00    -0.330 OA
ENDROOT
BRANCH   1   9
ATOM      6  C   LIG    1        2.466  -2.593   0.933  0.00  0.00    +0.150 C 
ATOM      7  C   LIG    1        1.189  -1.961   0.443  0.00  0.00    -0.230 A 
ATOM      8  C   LIG    1        0.035  -2.661   0.445  0.00  0.00    +0.310 A 
ATOM      9  N   LIG    1       -1.116  -2.072  -0.004  0.00  0.00    -0.540 N 
ATOM     10  C   LIG    1       -1.108  -0.801  -0.446  0.00  0.00    +0.700 A 
ATOM     11  N   LIG    1        0.029  -0.080  -0.459  0.00  0.00    -0.660 N 
ATOM     12  H   LIG    1        0.017   0.835  -0.781  0.00  0.00    +0.440 HD
ATOM     13  O   LIG    1       -2.141  -0.297  -0.840  0.00  0.00    -0.530 OA
ATOM     14  C   LIG    1        1.183  -0.623  -0.020  0.00  0.00    +0.550 A 
ATOM     15  O   LIG    1        2.212   0.028  -0.030  0.00  0.00    -0.490 OA
ENDBRANCH   1   9
BRANCH   3  16
ATOM     16  N   LIG    1       -2.719  -5.941  -1.957  0.00  0.00    -0.620 N 
ATOM     17  H   LIG    1       -3.717  -5.896  -1.817  0.00  0.00    +0.440 HD
ATOM     18  H   LIG    1       -2.391  -6.869  -1.734  0.00  0.00    +0.440 HD
ATOM     19  H   LIG    1       -2.504  -5.730  -2.920  0.00  0.00    +0.450 HD
ENDBRANCH   3  16
BRANCH   4  20
ATOM     20  C   LIG    1       -1.623  -6.189   1.085  0.00  0.00    +0.210 C 
BRANCH  20  21
ATOM     21  O   LIG    1       -2.117  -6.426   2.405  0.00  0.00    -0.560 OA
ATOM     22  H   LIG    1       -1.608  -7.079   2.904  0.00  0.00    +0.400 HD
ENDBRANCH  20  21
ENDBRANCH   4  20
TORSDOF 4
ENDMDL
MODEL      306
REMARK  Name = ZINC000006375665
REMARK                            x       y       z     vdW  Elec       q    Type
REMARK                         _______ _______ _______ _____ _____    ______ ____
ROOT
ATOM      1  C   LIG    1       -0.656  -4.420   1.151  0.00  0.00    +0.040 C 
ENDROOT
BRANCH   1   2
ATOM      2  C   LIG    1       -1.067  -2.950   1.246  0.00  0.00    +0.080 C 
BRANCH   2   6
ATOM      3  C   LIG    1       -0.018   1.461   0.010  0.00  0.00    +0.370 C 
ATOM      4  N   LIG    1        0.002  -0.004   0.002  0.00  0.00    -0.540 N 
ATOM      5  C   LIG    1       -1.103  -0.776   0.003  0.00  0.00    +0.510 C 
ATOM      6  C   LIG    1       -0.602  -2.207  -0.008  0.00  0.00    +0.230 C 
ATOM      7  N   LIG    1        0.864  -2.061  -0.015  0.00  0.00    -0.670 N 
ATOM      8  H   LIG    1        1.517  -2.778  -0.022  0.00  0.00    +0.450 HD
ATOM      9  O   LIG    1       -2.256  -0.404   0.011  0.00  0.00    -0.440 OA
ATOM     10  C   LIG    1        1.119  -0.741  -0.013  0.00  0.00    +0.530 C 
ATOM     11  S   LIG    1        2.697  -0.076  -0.019  0.00  0.00    -0.520 S 
ENDBRANCH   2   6
ENDBRANCH   1   2
BRANCH   1  12
ATOM     12  C   LIG    1       -1.120  -5.162   2.405  0.00  0.00    +0.290 C 
BRANCH  12  13
ATOM     13  N   LIG    1       -0.727  -6.571   2.313  0.00  0.00    -0.700 N 
ATOM     14  H   LIG    1       -0.246  -6.890   1.534  0.00  0.00    +0.440 HD
ATOM     15  C   LIG    1       -1.037  -7.435   3.327  0.00  0.00    +0.740 C 
BRANCH  15  16
ATOM     16  N   LIG    1       -0.679  -8.715   3.243  0.00  0.00    -0.790 N 
ATOM     17  H   LIG    1       -0.198  -9.035   2.463  0.00  0.00    +0.440 HD
ATOM     18  H   LIG    1       -0.899  -9.328   3.962  0.00  0.00    +0.440 HD
ENDBRANCH  15  16
BRANCH  15  19
ATOM     19  N   LIG    1       -1.697  -6.997   4.397  0.00  0.00    -0.790 N 
ATOM     20  H   LIG    1       -1.917  -7.610   5.116  0.00  0.00    +0.440 HD
ATOM     21  H   LIG    1       -1.958  -6.064   4.458  0.00  0.00    +0.440 HD
ENDBRANCH  15  19
ENDBRANCH  12  13
ENDBRANCH   1  12
TORSDOF 6
ENDMDL
MODEL      307
REMARK  Name = ZINC000015675310
REMARK                            x       y       z     vdW  Elec       q    Type
REMARK                         _______ _______ _______ _____ _____    ______ ____
ROOT
ATOM      1  C   LIG    1       -0.720   3.008   1.225  0.00  0.00    +0.160 C 
ATOM      2  O   LIG    1       -1.569   3.506   0.168  0.00  0.00    -0.350 OA
ATOM      3  C   LIG    1       -1.912   4.854   0.557  0.00  0.00    +0.210 C 
ATOM      4  C   LIG    1       -2.167   4.772   2.079  0.00  0.00    +0.130 C 
ATOM      5  C   LIG    1       -1.362   3.530   2.529  0.00  0.00    +0.140 C 
ENDROOT
BRANCH   4   6
ATOM      6  O   LIG    1       -1.683   5.947   2.731  0.00  0.00    -0.540 OA
ATOM      7  H   LIG    1       -1.817   5.949   3.689  0.00  0.00    +0.390 HD
ENDBRANCH   4   6
BRANCH   5   8
ATOM      8  O   LIG    1       -0.358   3.901   3.476  0.00  0.00    -0.540 OA
ATOM      9  H   LIG    1       -0.708   4.290   4.289  0.00  0.00    +0.390 HD
ENDBRANCH   5   8
BRANCH   1  10
ATOM     10  C   LIG    1       -0.699   1.479   1.216  0.00  0.00    +0.300 C 
BRANCH  10  11
ATOM     11  N   LIG    1       -0.012   1.005   0.008  0.00  0.00    -0.640 N 
ATOM     12  H   LIG    1       -0.500   1.339  -0.810  0.00  0.00    +0.440 HD
ATOM     13  H   LIG    1        0.935   1.354   0.000  0.00  0.00    +0.440 HD
ATOM     14  H   LIG    1        0.002  -0.004   0.002  0.00  0.00    +0.440 HD
ENDBRANCH  10  11
ENDBRANCH   1  10
BRANCH   3  15
ATOM     15  C   LIG    1       -3.175   5.314  -0.173  0.00  0.00    +0.090 C 
BRANCH  15  16
ATOM     16  C   LIG    1       -2.889   5.430  -1.648  0.00  0.00    +0.520 C 
ATOM     17  N   LIG    1       -3.861   5.823  -2.495  0.00  0.00    -0.700 N 
ATOM     18  H   LIG    1       -4.745   6.031  -2.155  0.00  0.00    +0.400 HD
ATOM     19  O   LIG    1       -1.783   5.170  -2.073  0.00  0.00    -0.530 OA
BRANCH  17  20
ATOM     20  C   LIG    1       -3.582   5.936  -3.929  0.00  0.00    +0.210 C 
ATOM     21  C   LIG    1       -4.630   5.385  -4.897  0.00  0.00    +0.020 C 
ATOM     22  C   LIG    1       -4.451   6.897  -4.743  0.00  0.00    +0.020 C 
ENDBRANCH  17  20
ENDBRANCH  15  16
ENDBRANCH   3  15
TORSDOF 7
ENDMDL
MODEL      308
REMARK  Name = ZINC000002579063
REMARK                            x       y       z     vdW  Elec       q    Type
REMARK                         _______ _______ _______ _____ _____    ______ ____
ROOT
ATOM      1  C   LIG    1       -0.555  -2.666  -1.256  0.00  0.00    +0.070 C 
ENDROOT
BRANCH   1   2
ATOM      2  C   LIG    1       -1.244  -2.135   0.003  0.00  0.00    +0.290 C 
BRANCH   2   3
ATOM      3  N   LIG    1       -2.643  -2.570   0.013  0.00  0.00    -0.720 N 
ATOM      4  H   LIG    1       -3.092  -2.779  -0.820  0.00  0.00    +0.410 HD
ATOM      5  C   LIG    1       -3.306  -2.679   1.182  0.00  0.00    +0.520 C 
ATOM      6  O   LIG    1       -2.744  -2.417   2.224  0.00  0.00    -0.530 OA
ATOM      7  C   LIG    1       -4.745  -3.126   1.193  0.00  0.00    +0.110 C 
ENDBRANCH   2   3
BRANCH   2   8
ATOM      8  C   LIG    1       -1.185  -0.630   0.010  0.00  0.00    +0.440 C 
ATOM      9  O   LIG    1       -2.208   0.015   0.023  0.00  0.00    -0.490 OA
BRANCH   8  11
ATOM     10  C   LIG    1       -0.018   1.448   0.010  0.00  0.00    +0.280 C 
ATOM     11  O   LIG    1        0.002  -0.004   0.002  0.00  0.00    -0.360 OA
ENDBRANCH   8  11
ENDBRANCH   2   8
ENDBRANCH   1   2
BRANCH   1  12
ATOM     12  C   LIG    1       -0.504  -4.195  -1.204  0.00  0.00    +0.050 C 
BRANCH  12  13
ATOM     13  C   LIG    1        0.185  -4.725  -2.462  0.00  0.00    +0.280 C 
BRANCH  13  14
ATOM     14  N   LIG    1        0.234  -6.189  -2.412  0.00  0.00    -0.690 N 
ATOM     15  H   LIG    1       -0.141  -6.661  -1.652  0.00  0.00    +0.440 HD
ATOM     16  C   LIG    1        0.809  -6.889  -3.437  0.00  0.00    +0.740 C 
BRANCH  16  17
ATOM     17  N   LIG    1        0.853  -8.220  -3.391  0.00  0.00    -0.790 N 
ATOM     18  H   LIG    1        0.478  -8.692  -2.631  0.00  0.00    +0.440 HD
ATOM     19  H   LIG    1        1.261  -8.717  -4.117  0.00  0.00    +0.440 HD
ENDBRANCH  16  17
BRANCH  16  20
ATOM     20  N   LIG    1        1.324  -6.241  -4.480  0.00  0.00    -0.790 N 
ATOM     21  H   LIG    1        1.731  -6.738  -5.207  0.00  0.00    +0.440 HD
ATOM     22  H   LIG    1        1.291  -5.272  -4.513  0.00  0.00    +0.440 HD
ENDBRANCH  16  20
ENDBRANCH  13  14
ENDBRANCH  12  13
ENDBRANCH   1  12
TORSDOF 9
ENDMDL
MODEL      309
REMARK  Name = ZINC000043708030
REMARK                            x       y       z     vdW  Elec       q    Type
REMARK                         _______ _______ _______ _____ _____    ______ ____
ROOT
ATOM      1  O   LIG    1        0.002  -0.004   0.002  0.00  0.00    -0.490 OA
ATOM      2  C   LIG    1       -0.014   1.209   0.009  0.00  0.00    +0.520 C 
ATOM      3  N   LIG    1       -1.191   1.867   0.018  0.00  0.00    -0.610 N 
ATOM      4  C   LIG    1       -1.233   3.337   0.020  0.00  0.00    +0.270 C 
ATOM      5  C   LIG    1       -2.166   3.798  -1.105  0.00  0.00    +0.180 C 
ATOM      6  N   LIG    1       -3.470   3.139  -0.957  0.00  0.00    -0.530 NA
ATOM      7  C   LIG    1       -3.350   1.682  -1.099  0.00  0.00    +0.170 C 
ATOM      8  C   LIG    1       -2.466   1.133   0.020  0.00  0.00    +0.310 C 
ENDROOT
BRANCH   2   9
ATOM      9  C   LIG    1        1.280   1.980   0.001  0.00  0.00    +0.160 C 
ATOM     10  C   LIG    1        1.421   2.756   1.312  0.00  0.00    +0.250 C 
ATOM     11  N   LIG    1        2.711   3.461   1.325  0.00  0.00    -0.500 N 
ATOM     12  C   LIG    1        3.802   2.484   1.214  0.00  0.00    +0.240 C 
ATOM     13  C   LIG    1        3.657   1.708  -0.098  0.00  0.00    +0.270 C 
ATOM     14  H   LIG    1        2.805   3.974   2.189  0.00  0.00    +0.440 HD
ATOM     15  H   LIG    1        2.752   4.102   0.547  0.00  0.00    +0.430 HD
ATOM     16  O   LIG    1        2.377   1.071  -0.130  0.00  0.00    -0.330 OA
ENDBRANCH   2   9
BRANCH   6  17
ATOM     17  C   LIG    1       -4.446   3.682  -1.911  0.00  0.00    +0.190 C 
BRANCH  17  18
ATOM     18  C   LIG    1       -5.842   3.159  -1.567  0.00  0.00    +0.180 C 
BRANCH  18  19
ATOM     19  O   LIG    1       -6.239   3.665  -0.291  0.00  0.00    -0.560 OA
ATOM     20  H   LIG    1       -7.116   3.373  -0.008  0.00  0.00    +0.380 HD
ENDBRANCH  18  19
ENDBRANCH  17  18
ENDBRANCH   6  17
TORSDOF 4
ENDMDL
MODEL      310
REMARK  Name = ZINC000023477052
REMARK                            x       y       z     vdW  Elec       q    Type
REMARK                         _______ _______ _______ _____ _____    ______ ____
ROOT
ATOM      1  N   LIG    1        0.796  -0.399  -1.397  0.00  0.00    -1.010 NA
ATOM      2  C   LIG    1        0.060  -0.584  -2.656  0.00  0.00    +0.310 C 
ATOM      3  C   LIG    1        0.726   0.269  -3.740  0.00  0.00    +0.190 C 
ATOM      4  N   LIG    1        2.158  -0.056  -3.804  0.00  0.00    -0.530 NA
ATOM      5  C   LIG    1        2.837   0.280  -2.545  0.00  0.00    +0.170 C 
ATOM      6  C   LIG    1        2.257  -0.567  -1.413  0.00  0.00    +0.310 C 
ENDROOT
BRANCH   1   8
ATOM      7  C   LIG    1       -0.022   1.810   0.012  0.00  0.00    -0.290 C 
ATOM      8  S   LIG    1        0.002  -0.004   0.002  0.00  0.00    +2.610 S 
ATOM      9  O   LIG    1       -1.309  -0.519  -0.182  0.00  0.00    -0.940 OA
ATOM     10  O   LIG    1        0.845  -0.497   1.035  0.00  0.00    -0.950 OA
ENDBRANCH   1   8
BRANCH   4  11
ATOM     11  C   LIG    1        2.799   0.614  -4.943  0.00  0.00    +0.180 C 
BRANCH  11  12
ATOM     12  C   LIG    1        4.215   0.063  -5.126  0.00  0.00    +0.270 C 
BRANCH  12  13
ATOM     13  N   LIG    1        4.857   0.733  -6.266  0.00  0.00    -0.640 N 
ATOM     14  H   LIG    1        4.319   0.563  -7.102  0.00  0.00    +0.440 HD
ATOM     15  H   LIG    1        5.791   0.370  -6.386  0.00  0.00    +0.440 HD
ATOM     16  H   LIG    1        4.902   1.726  -6.090  0.00  0.00    +0.430 HD
ENDBRANCH  12  13
ENDBRANCH  11  12
ENDBRANCH   4  11
TORSDOF 4
ENDMDL
MODEL      311
REMARK  Name = ZINC000096024198
REMARK                            x       y       z     vdW  Elec       q    Type
REMARK                         _______ _______ _______ _____ _____    ______ ____
ROOT
ATOM      1  N   LIG    1       -2.820   1.421   2.432  0.00  0.00    -0.400 N 
ATOM      2  N   LIG    1       -2.772   0.660   3.606  0.00  0.00    -0.270 NA
ATOM      3  C   LIG    1       -3.380   1.067   4.693  0.00  0.00    +0.390 A 
ATOM      4  C   LIG    1       -4.093   2.280   4.701  0.00  0.00    +0.090 A 
ATOM      5  C   LIG    1       -4.152   3.036   3.572  0.00  0.00    +0.050 A 
ATOM      6  C   LIG    1       -3.491   2.591   2.409  0.00  0.00    +0.500 A 
ATOM      7  O   LIG    1       -3.532   3.256   1.386  0.00  0.00    -0.510 OA
ENDROOT
BRANCH   3   8
ATOM      8  N   LIG    1       -3.318   0.289   5.856  0.00  0.00    -0.340 N 
ATOM      9  C   LIG    1       -2.675  -0.885   6.010  0.00  0.00    +0.530 A 
ATOM     10  N   LIG    1       -2.858  -1.289   7.241  0.00  0.00    -0.520 NA
ATOM     11  C   LIG    1       -3.607  -0.406   7.900  0.00  0.00    +0.480 A 
ATOM     12  N   LIG    1       -3.909   0.580   7.097  0.00  0.00    -0.300 NA
ENDBRANCH   3   8
BRANCH   1  13
ATOM     13  C   LIG    1       -2.135   0.949   1.227  0.00  0.00    +0.360 C 
BRANCH  13  14
ATOM     14  C   LIG    1       -0.699   1.479   1.216  0.00  0.00    +0.250 C 
BRANCH  14  15
ATOM     15  N   LIG    1       -0.012   1.005   0.008  0.00  0.00    -0.630 N 
ATOM     16  H   LIG    1       -0.500   1.339  -0.810  0.00  0.00    +0.440 HD
ATOM     17  H   LIG    1        0.935   1.354   0.000  0.00  0.00    +0.450 HD
ATOM     18  H   LIG    1        0.002  -0.004   0.002  0.00  0.00    +0.440 HD
ENDBRANCH  14  15
ENDBRANCH  13  14
ENDBRANCH   1  13
TORSDOF 4
ENDMDL
MODEL      312
REMARK  Name = ZINC000008764593
REMARK                            x       y       z     vdW  Elec       q    Type
REMARK                         _______ _______ _______ _____ _____    ______ ____
ROOT
ATOM      1  C   LIG    1        0.738  -0.999  -3.621  0.00  0.00    +0.390 C 
ENDROOT
BRANCH   1   2
ATOM      2  C   LIG    1       -0.207  -0.940  -4.792  0.00  0.00    +0.160 A 
ATOM      3  C   LIG    1        0.042  -0.105  -5.824  0.00  0.00    -0.060 A 
ATOM      4  C   LIG    1       -0.862  -0.068  -6.914  0.00  0.00    +0.540 A 
ATOM      5  N   LIG    1       -1.949  -0.865  -6.899  0.00  0.00    -0.550 N 
ATOM      6  C   LIG    1       -2.173  -1.688  -5.858  0.00  0.00    +0.690 A 
ATOM      7  O   LIG    1       -3.158  -2.401  -5.858  0.00  0.00    -0.520 OA
ATOM      8  C   LIG    1       -2.890  -0.836  -8.021  0.00  0.00    +0.340 C 
ATOM      9  O   LIG    1       -0.658   0.677  -7.856  0.00  0.00    -0.490 OA
ATOM     10  N   LIG    1       -1.320  -1.736  -4.819  0.00  0.00    -0.540 N 
ATOM     11  C   LIG    1       -1.590  -2.642  -3.699  0.00  0.00    +0.330 C 
ENDBRANCH   1   2
BRANCH   1  13
ATOM     12  C   LIG    1        0.707  -0.490  -1.238  0.00  0.00    +0.500 C 
ATOM     13  N   LIG    1        0.053  -0.526  -2.415  0.00  0.00    -0.710 N 
ATOM     14  H   LIG    1       -0.873  -0.239  -2.465  0.00  0.00    +0.410 HD
ATOM     15  O   LIG    1        1.864  -0.849  -1.176  0.00  0.00    -0.510 OA
BRANCH  12  17
ATOM     16  C   LIG    1       -0.019   1.526   0.010  0.00  0.00    +0.120 C 
ATOM     17  C   LIG    1        0.002  -0.004   0.002  0.00  0.00    +0.180 C 
BRANCH  17  18
ATOM     18  N   LIG    1        0.713  -0.491   1.192  0.00  0.00    -0.620 N 
ATOM     19  H   LIG    1        1.659  -0.141   1.185  0.00  0.00    +0.440 HD
ATOM     20  H   LIG    1        0.726  -1.500   1.187  0.00  0.00    +0.440 HD
ATOM     21  H   LIG    1        0.240  -0.165   2.022  0.00  0.00    +0.450 HD
ENDBRANCH  17  18
ENDBRANCH  12  17
ENDBRANCH   1  13
TORSDOF 4
ENDMDL
MODEL      313
REMARK  Name = ZINC000958527811
REMARK                            x       y       z     vdW  Elec       q    Type
REMARK                         _______ _______ _______ _____ _____    ______ ____
ROOT
ATOM      1  C   LIG    1        1.415  -2.701  -2.195  0.00  0.00    +0.140 C 
ATOM      2  C   LIG    1        1.210  -4.217  -2.201  0.00  0.00    +0.050 C 
ATOM      3  C   LIG    1        2.480  -4.888  -2.787  0.00  0.00    -0.270 C 
ATOM      4  S   LIG    1        3.807  -3.902  -1.982  0.00  0.00    +2.390 S 
ATOM      5  O   LIG    1        4.937  -3.833  -2.841  0.00  0.00    -0.910 OA
ATOM      6  O   LIG    1        3.962  -4.322  -0.634  0.00  0.00    -0.910 OA
ATOM      7  C   LIG    1        2.893  -2.315  -2.031  0.00  0.00    -0.310 C 
ENDROOT
BRANCH   1   8
ATOM      8  O   LIG    1        0.930  -2.165  -3.427  0.00  0.00    -0.550 OA
ATOM      9  H   LIG    1        1.389  -2.500  -4.210  0.00  0.00    +0.410 HD
ENDBRANCH   1   8
BRANCH   1  10
ATOM     10  C   LIG    1        0.613  -2.097  -1.041  0.00  0.00    +0.220 C 
BRANCH  10  11
ATOM     11  N   LIG    1       -0.780  -2.557  -1.119  0.00  0.00    -0.630 N 
ATOM     12  H   LIG    1       -1.182  -2.265  -1.997  0.00  0.00    +0.440 HD
ATOM     13  H   LIG    1       -1.309  -2.158  -0.358  0.00  0.00    +0.450 HD
ATOM     14  H   LIG    1       -0.805  -3.564  -1.055  0.00  0.00    +0.430 HD
ENDBRANCH  10  11
BRANCH  10  15
ATOM     15  C   LIG    1        0.652  -0.570  -1.138  0.00  0.00    +0.220 C 
BRANCH  15  17
ATOM     16  C   LIG    1       -0.017   1.425   0.010  0.00  0.00    +0.240 C 
ATOM     17  O   LIG    1        0.002  -0.004   0.002  0.00  0.00    -0.400 OA
ENDBRANCH  15  17
ENDBRANCH  10  15
ENDBRANCH   1  10
TORSDOF 5
ENDMDL
MODEL      314
REMARK  Name = ZINC000958527880
REMARK                            x       y       z     vdW  Elec       q    Type
REMARK                         _______ _______ _______ _____ _____    ______ ____
ROOT
ATOM      1  C   LIG    1        0.025  -0.354   2.521  0.00  0.00    +0.200 C 
ATOM      2  N   LIG    1       -1.111   0.548   2.779  0.00  0.00    -0.730 N 
ATOM      3  H   LIG    1       -2.053   0.332   2.697  0.00  0.00    +0.460 HD
ATOM      4  C   LIG    1       -0.586   1.730   3.149  0.00  0.00    +0.690 C 
ATOM      5  N   LIG    1        0.752   1.713   3.165  0.00  0.00    -0.680 N 
ATOM      6  H   LIG    1        1.304   2.474   3.406  0.00  0.00    +0.450 HD
ATOM      7  O   LIG    1       -1.253   2.705   3.437  0.00  0.00    -0.490 OA
ATOM      8  C   LIG    1        1.238   0.509   2.804  0.00  0.00    +0.510 C 
ATOM      9  O   LIG    1        2.403   0.184   2.724  0.00  0.00    -0.400 OA
ENDROOT
BRANCH   1  15
ATOM     10  C   LIG    1       -0.018   1.461   0.010  0.00  0.00    +0.340 C 
ATOM     11  N   LIG    1        0.002  -0.004   0.002  0.00  0.00    -0.440 N 
ATOM     12  C   LIG    1        0.009  -0.810  -1.104  0.00  0.00    +0.180 A 
ATOM     13  C   LIG    1        0.029  -2.081  -0.660  0.00  0.00    +0.180 A 
ATOM     14  N   LIG    1        0.034  -2.052   0.681  0.00  0.00    -0.450 NA
ATOM     15  C   LIG    1        0.023  -0.811   1.085  0.00  0.00    +0.150 A 
ENDBRANCH   1  15
BRANCH   1  16
ATOM     16  C   LIG    1       -0.013  -1.557   3.466  0.00  0.00    +0.360 C 
BRANCH  16  17
ATOM     17  N   LIG    1       -0.131  -1.086   4.853  0.00  0.00    -0.640 N 
ATOM     18  H   LIG    1       -0.981  -0.551   4.955  0.00  0.00    +0.440 HD
ATOM     19  H   LIG    1        0.662  -0.504   5.079  0.00  0.00    +0.430 HD
ATOM     20  H   LIG    1       -0.156  -1.879   5.476  0.00  0.00    +0.450 HD
ENDBRANCH  16  17
ENDBRANCH   1  16
TORSDOF 3
ENDMDL
MODEL      315
REMARK  Name = ZINC000958527803
REMARK                            x       y       z     vdW  Elec       q    Type
REMARK                         _______ _______ _______ _____ _____    ______ ____
ROOT
ATOM      1  C   LIG    1        1.197  -2.704  -2.318  0.00  0.00    +0.140 C 
ATOM      2  C   LIG    1        0.405  -2.186  -3.521  0.00  0.00    +0.080 C 
ATOM      3  C   LIG    1        0.440  -3.261  -4.638  0.00  0.00    -0.270 C 
ATOM      4  S   LIG    1        0.189  -4.798  -3.662  0.00  0.00    +2.400 S 
ATOM      5  O   LIG    1        0.861  -5.879  -4.294  0.00  0.00    -0.910 OA
ATOM      6  O   LIG    1       -1.182  -4.921  -3.308  0.00  0.00    -0.910 OA
ATOM      7  C   LIG    1        1.152  -4.235  -2.208  0.00  0.00    -0.360 C 
ENDROOT
BRANCH   1   8
ATOM      8  O   LIG    1        2.558  -2.288  -2.449  0.00  0.00    -0.550 OA
ATOM      9  H   LIG    1        3.000  -2.632  -3.237  0.00  0.00    +0.410 HD
ENDBRANCH   1   8
BRANCH   1  10
ATOM     10  C   LIG    1        0.613  -2.097  -1.041  0.00  0.00    +0.220 C 
BRANCH  10  11
ATOM     11  N   LIG    1        1.406  -2.534   0.116  0.00  0.00    -0.630 N 
ATOM     12  H   LIG    1        2.361  -2.228   0.004  0.00  0.00    +0.440 HD
ATOM     13  H   LIG    1        1.381  -3.541   0.179  0.00  0.00    +0.430 HD
ATOM     14  H   LIG    1        1.021  -2.134   0.958  0.00  0.00    +0.450 HD
ENDBRANCH  10  11
BRANCH  10  15
ATOM     15  C   LIG    1        0.652  -0.570  -1.138  0.00  0.00    +0.220 C 
BRANCH  15  17
ATOM     16  C   LIG    1       -0.017   1.425   0.010  0.00  0.00    +0.240 C 
ATOM     17  O   LIG    1        0.002  -0.004   0.002  0.00  0.00    -0.400 OA
ENDBRANCH  15  17
ENDBRANCH  10  15
ENDBRANCH   1  10
TORSDOF 5
ENDMDL
MODEL      316
REMARK  Name = ZINC000958527874
REMARK                            x       y       z     vdW  Elec       q    Type
REMARK                         _______ _______ _______ _____ _____    ______ ____
ROOT
ATOM      1  C   LIG    1        0.025  -0.354   2.521  0.00  0.00    +0.200 C 
ATOM      2  N   LIG    1        1.071   0.659   2.741  0.00  0.00    -0.730 N 
ATOM      3  H   LIG    1        2.026   0.540   2.627  0.00  0.00    +0.460 HD
ATOM      4  C   LIG    1        0.441   1.783   3.131  0.00  0.00    +0.690 C 
ATOM      5  N   LIG    1       -0.886   1.629   3.194  0.00  0.00    -0.680 N 
ATOM      6  H   LIG    1       -1.504   2.330   3.456  0.00  0.00    +0.450 HD
ATOM      7  O   LIG    1        1.015   2.821   3.397  0.00  0.00    -0.490 OA
ATOM      8  C   LIG    1       -1.259   0.381   2.848  0.00  0.00    +0.500 C 
ATOM      9  O   LIG    1       -2.388  -0.061   2.806  0.00  0.00    -0.400 OA
ENDROOT
BRANCH   1  15
ATOM     10  C   LIG    1       -0.018   1.461   0.010  0.00  0.00    +0.330 C 
ATOM     11  N   LIG    1        0.002  -0.004   0.002  0.00  0.00    -0.440 N 
ATOM     12  C   LIG    1        0.009  -0.810  -1.104  0.00  0.00    +0.180 A 
ATOM     13  C   LIG    1        0.029  -2.081  -0.660  0.00  0.00    +0.180 A 
ATOM     14  N   LIG    1        0.034  -2.052   0.681  0.00  0.00    -0.450 NA
ATOM     15  C   LIG    1        0.023  -0.811   1.085  0.00  0.00    +0.150 A 
ENDBRANCH   1  15
BRANCH   1  16
ATOM     16  C   LIG    1        0.218  -1.545   3.462  0.00  0.00    +0.360 C 
BRANCH  16  17
ATOM     17  N   LIG    1        0.216  -1.074   4.854  0.00  0.00    -0.640 N 
ATOM     18  H   LIG    1       -0.665  -0.625   5.056  0.00  0.00    +0.430 HD
ATOM     19  H   LIG    1        0.968  -0.415   4.987  0.00  0.00    +0.440 HD
ATOM     20  H   LIG    1        0.343  -1.859   5.475  0.00  0.00    +0.450 HD
ENDBRANCH  16  17
ENDBRANCH   1  16
TORSDOF 3
ENDMDL
MODEL      317
REMARK  Name = ZINC000958527809
REMARK                            x       y       z     vdW  Elec       q    Type
REMARK                         _______ _______ _______ _____ _____    ______ ____
ROOT
ATOM      1  C   LIG    1        1.197  -2.704  -2.318  0.00  0.00    +0.130 C 
ATOM      2  C   LIG    1        1.143  -4.239  -2.233  0.00  0.00    +0.060 C 
ATOM      3  C   LIG    1        1.429  -4.773  -3.660  0.00  0.00    -0.290 C 
ATOM      4  S   LIG    1        0.442  -3.644  -4.714  0.00  0.00    +2.400 S 
ATOM      5  O   LIG    1       -0.860  -4.184  -4.892  0.00  0.00    -0.910 OA
ATOM      6  O   LIG    1        1.212  -3.263  -5.846  0.00  0.00    -0.910 OA
ATOM      7  C   LIG    1        0.367  -2.247  -3.535  0.00  0.00    -0.320 C 
ENDROOT
BRANCH   1   8
ATOM      8  O   LIG    1        2.553  -2.281  -2.475  0.00  0.00    -0.550 OA
ATOM      9  H   LIG    1        2.984  -2.630  -3.267  0.00  0.00    +0.410 HD
ENDBRANCH   1   8
BRANCH   1  10
ATOM     10  C   LIG    1        0.613  -2.097  -1.041  0.00  0.00    +0.230 C 
BRANCH  10  11
ATOM     11  N   LIG    1        1.406  -2.534   0.116  0.00  0.00    -0.630 N 
ATOM     12  H   LIG    1        2.361  -2.228   0.004  0.00  0.00    +0.440 HD
ATOM     13  H   LIG    1        1.381  -3.541   0.179  0.00  0.00    +0.430 HD
ATOM     14  H   LIG    1        1.021  -2.134   0.958  0.00  0.00    +0.450 HD
ENDBRANCH  10  11
BRANCH  10  15
ATOM     15  C   LIG    1        0.652  -0.570  -1.138  0.00  0.00    +0.220 C 
BRANCH  15  17
ATOM     16  C   LIG    1       -0.017   1.425   0.010  0.00  0.00    +0.240 C 
ATOM     17  O   LIG    1        0.002  -0.004   0.002  0.00  0.00    -0.400 OA
ENDBRANCH  15  17
ENDBRANCH  10  15
ENDBRANCH   1  10
TORSDOF 5
ENDMDL
MODEL      318
REMARK  Name = ZINC000958527810
REMARK                            x       y       z     vdW  Elec       q    Type
REMARK                         _______ _______ _______ _____ _____    ______ ____
ROOT
ATOM      1  C   LIG    1        1.415  -2.701  -2.195  0.00  0.00    +0.130 C 
ATOM      2  C   LIG    1        2.903  -2.339  -2.037  0.00  0.00    +0.080 C 
ATOM      3  C   LIG    1        3.687  -3.241  -3.025  0.00  0.00    -0.280 C 
ATOM      4  S   LIG    1        2.869  -4.868  -2.813  0.00  0.00    +2.400 S 
ATOM      5  O   LIG    1        3.533  -5.599  -1.792  0.00  0.00    -0.910 OA
ATOM      6  O   LIG    1        2.664  -5.461  -4.088  0.00  0.00    -0.910 OA
ATOM      7  C   LIG    1        1.276  -4.237  -2.175  0.00  0.00    -0.360 C 
ENDROOT
BRANCH   1   8
ATOM      8  O   LIG    1        0.929  -2.191  -3.438  0.00  0.00    -0.550 OA
ATOM      9  H   LIG    1        1.394  -2.534  -4.213  0.00  0.00    +0.410 HD
ENDBRANCH   1   8
BRANCH   1  10
ATOM     10  C   LIG    1        0.613  -2.097  -1.041  0.00  0.00    +0.230 C 
BRANCH  10  11
ATOM     11  N   LIG    1       -0.780  -2.557  -1.119  0.00  0.00    -0.630 N 
ATOM     12  H   LIG    1       -1.182  -2.265  -1.997  0.00  0.00    +0.440 HD
ATOM     13  H   LIG    1       -1.309  -2.158  -0.358  0.00  0.00    +0.450 HD
ATOM     14  H   LIG    1       -0.805  -3.564  -1.055  0.00  0.00    +0.430 HD
ENDBRANCH  10  11
BRANCH  10  15
ATOM     15  C   LIG    1        0.652  -0.570  -1.138  0.00  0.00    +0.220 C 
BRANCH  15  17
ATOM     16  C   LIG    1       -0.017   1.425   0.010  0.00  0.00    +0.240 C 
ATOM     17  O   LIG    1        0.002  -0.004   0.002  0.00  0.00    -0.400 OA
ENDBRANCH  15  17
ENDBRANCH  10  15
ENDBRANCH   1  10
TORSDOF 5
ENDMDL
MODEL      319
REMARK  Name = ZINC000096347477
REMARK                            x       y       z     vdW  Elec       q    Type
REMARK                         _______ _______ _______ _____ _____    ______ ____
ROOT
ATOM      1  C   LIG    1        0.394  -0.656   1.109  0.00  0.00    +0.070 A 
ATOM      2  C   LIG    1       -0.767  -1.407   1.126  0.00  0.00    +0.020 A 
ATOM      3  C   LIG    1       -1.122  -2.139  -0.011  0.00  0.00    +0.000 A 
ATOM      4  C   LIG    1       -0.311  -2.100  -1.129  0.00  0.00    +0.390 A 
ATOM      5  N   LIG    1        0.831  -1.354  -1.129  0.00  0.00    -0.610 N 
ATOM      6  H   LIG    1        1.391  -1.337  -1.921  0.00  0.00    +0.420 HD
ATOM      7  C   LIG    1        1.188  -0.638  -0.047  0.00  0.00    +0.530 A 
ATOM      8  O   LIG    1        2.216   0.024  -0.069  0.00  0.00    -0.540 OA
ENDROOT
BRANCH   3   9
ATOM      9  N   LIG    1       -2.299  -2.910  -0.018  0.00  0.00    -0.650 N 
ATOM     10  C   LIG    1       -2.243  -4.374  -0.150  0.00  0.00    +0.300 C 
ATOM     11  C   LIG    1       -3.091  -4.995   0.966  0.00  0.00    +0.250 C 
ATOM     12  N   LIG    1       -4.447  -4.434   0.920  0.00  0.00    -0.500 N 
ATOM     13  C   LIG    1       -4.402  -2.995   1.211  0.00  0.00    +0.250 C 
ATOM     14  H   LIG    1       -5.024  -4.896   1.606  0.00  0.00    +0.430 HD
ATOM     15  H   LIG    1       -4.838  -4.578   0.001  0.00  0.00    +0.430 HD
ATOM     16  C   LIG    1       -3.620  -2.276   0.113  0.00  0.00    +0.320 C 
ENDBRANCH   3   9
BRANCH   1  17
ATOM     17  N   LIG    1        0.772   0.088   2.240  0.00  0.00    -0.860 N 
ATOM     18  H   LIG    1        0.218   0.076   3.036  0.00  0.00    +0.400 HD
ATOM     19  H   LIG    1        1.585   0.617   2.223  0.00  0.00    +0.410 HD
ENDBRANCH   1  17
BRANCH   4  20
ATOM     20  N   LIG    1       -0.660  -2.822  -2.255  0.00  0.00    -0.860 N 
ATOM     21  H   LIG    1       -0.049  -2.873  -3.007  0.00  0.00    +0.400 HD
ATOM     22  H   LIG    1       -1.515  -3.279  -2.293  0.00  0.00    +0.410 HD
ENDBRANCH   4  20
TORSDOF 3
ENDMDL
MODEL      320
REMARK  Name = ZINC000095908521
REMARK                            x       y       z     vdW  Elec       q    Type
REMARK                         _______ _______ _______ _____ _____    ______ ____
ROOT
ATOM      1  S   LIG    1        1.520  -2.598  -2.637  0.00  0.00    +2.460 S 
ATOM      2  O   LIG    1        2.873  -2.173  -2.548  0.00  0.00    -0.890 OA
ATOM      3  O   LIG    1        0.738  -2.195  -3.753  0.00  0.00    -0.890 OA
ENDROOT
BRANCH   1   4
ATOM      4  C   LIG    1        1.474  -4.408  -2.522  0.00  0.00    -0.450 C 
ATOM      5  C   LIG    1        0.011  -4.923  -2.571  0.00  0.00    +0.120 C 
ATOM      6  C   LIG    1        0.203  -6.354  -3.134  0.00  0.00    +0.290 C 
ATOM      7  N   LIG    1        1.296  -6.228  -4.121  0.00  0.00    -0.510 N 
ATOM      8  H   LIG    1        0.907  -6.107  -5.044  0.00  0.00    +0.440 HD
ATOM      9  H   LIG    1        1.870  -7.057  -4.099  0.00  0.00    +0.440 HD
ATOM     10  C   LIG    1        2.115  -5.051  -3.769  0.00  0.00    +0.320 C 
ENDBRANCH   1   4
BRANCH   1  11
ATOM     11  C   LIG    1        0.657  -2.104  -1.120  0.00  0.00    -0.270 C 
BRANCH  11  12
ATOM     12  C   LIG    1        0.598  -0.600  -1.043  0.00  0.00    +0.490 C 
ATOM     13  O   LIG    1        1.088   0.070  -1.921  0.00  0.00    -0.490 OA
BRANCH  12  15
ATOM     14  C   LIG    1       -0.018   1.448   0.010  0.00  0.00    +0.280 C 
ATOM     15  O   LIG    1        0.002  -0.004   0.002  0.00  0.00    -0.340 OA
ENDBRANCH  12  15
ENDBRANCH  11  12
ENDBRANCH   1  11
TORSDOF 4
ENDMDL
MODEL      321
REMARK  Name = ZINC000006811564
REMARK                            x       y       z     vdW  Elec       q    Type
REMARK                         _______ _______ _______ _____ _____    ______ ____
ROOT
ATOM      1  N   LIG    1        3.259   2.652   1.800  0.00  0.00    -0.660 NA
ATOM      2  H   LIG    1        3.310   2.666   2.808  0.00  0.00    +0.360 HD
ENDROOT
BRANCH   1   3
ATOM      3  C   LIG    1        4.104   3.701   1.216  0.00  0.00    +0.170 C 
ATOM      4  C   LIG    1        4.018   4.966   2.074  0.00  0.00    +0.020 C 
ATOM      5  C   LIG    1        4.961   6.028   1.505  0.00  0.00    +0.260 C 
ATOM      6  N   LIG    1        6.338   5.521   1.517  0.00  0.00    -0.510 N 
ATOM      7  C   LIG    1        6.445   4.349   0.639  0.00  0.00    +0.260 C 
ATOM      8  H   LIG    1        6.591   5.258   2.458  0.00  0.00    +0.430 HD
ATOM      9  H   LIG    1        6.964   6.242   1.191  0.00  0.00    +0.430 HD
ATOM     10  C   LIG    1        5.559   3.223   1.175  0.00  0.00    +0.070 C 
ENDBRANCH   1   3
BRANCH   1  15
ATOM     11  O   LIG    1        0.002  -0.004   0.002  0.00  0.00    -0.920 OA
ATOM     12  S   LIG    1       -0.017   1.417   0.010  0.00  0.00    +2.400 S 
ATOM     13  C   LIG    1       -0.460   2.009   1.687  0.00  0.00    -0.340 C 
ATOM     14  C   LIG    1        0.923   2.140   2.374  0.00  0.00    +0.210 C 
ATOM     15  C   LIG    1        1.869   2.779   1.343  0.00  0.00    +0.180 C 
ATOM     16  O   LIG    1       -0.784   2.119  -0.959  0.00  0.00    -0.920 OA
ATOM     17  C   LIG    1        1.700   2.046  -0.003  0.00  0.00    -0.300 C 
BRANCH  14  18
ATOM     18  O   LIG    1        0.819   2.977   3.528  0.00  0.00    -0.560 OA
ATOM     19  H   LIG    1        0.220   2.638   4.207  0.00  0.00    +0.400 HD
ENDBRANCH  14  18
ENDBRANCH   1  15
TORSDOF 3
ENDMDL
MODEL      322
REMARK  Name = ZINC000252561112
REMARK                            x       y       z     vdW  Elec       q    Type
REMARK                         _______ _______ _______ _____ _____    ______ ____
ROOT
ATOM      1  N   LIG    1        1.402  -4.080   2.324  0.00  0.00    -0.490 N 
ATOM      2  H   LIG    1        1.800  -4.418   1.460  0.00  0.00    +0.440 HD
ATOM      3  H   LIG    1        0.443  -4.385   2.394  0.00  0.00    +0.440 HD
ENDROOT
BRANCH   1   4
ATOM      4  C   LIG    1        2.169  -4.612   3.458  0.00  0.00    +0.180 C 
ATOM      5  C   LIG    1        2.075  -6.151   3.502  0.00  0.00    +0.140 C 
ATOM      6  C   LIG    1        3.511  -6.598   3.334  0.00  0.00    +0.530 C 
ATOM      7  N   LIG    1        4.297  -5.521   3.214  0.00  0.00    -0.670 N 
ATOM      8  H   LIG    1        5.258  -5.583   3.096  0.00  0.00    +0.440 HD
ATOM      9  O   LIG    1        3.889  -7.750   3.312  0.00  0.00    -0.430 OA
ATOM     10  C   LIG    1        3.647  -4.348   3.271  0.00  0.00    +0.520 C 
ATOM     11  O   LIG    1        4.163  -3.255   3.184  0.00  0.00    -0.430 OA
ENDBRANCH   1   4
BRANCH   1  12
ATOM     12  C   LIG    1        1.451  -2.612   2.345  0.00  0.00    +0.300 C 
BRANCH  12  18
ATOM     13  C   LIG    1       -0.018   1.465   0.010  0.00  0.00    +0.210 C 
ATOM     14  N   LIG    1        0.002  -0.004   0.002  0.00  0.00    -0.540 NA
ATOM     15  C   LIG    1        0.607  -0.516  -1.236  0.00  0.00    +0.160 C 
ATOM     16  C   LIG    1        0.553  -2.046  -1.230  0.00  0.00    +0.250 C 
ATOM     17  O   LIG    1        1.216  -2.536  -0.061  0.00  0.00    -0.400 OA
ATOM     18  C   LIG    1        0.652  -2.058   1.164  0.00  0.00    +0.170 C 
ATOM     19  C   LIG    1        0.707  -0.528   1.181  0.00  0.00    +0.180 C 
ENDBRANCH  12  18
ENDBRANCH   1  12
TORSDOF 3
ENDMDL
MODEL      323
REMARK  Name = ZINC000013625055
REMARK                            x       y       z     vdW  Elec       q    Type
REMARK                         _______ _______ _______ _____ _____    ______ ____
ROOT
ATOM      1  C   LIG    1        0.062  -4.245   0.047  0.00  0.00    +0.380 C 
ENDROOT
BRANCH   1   6
ATOM      2  C   LIG    1       -0.018   1.461   0.010  0.00  0.00    +0.350 C 
ATOM      3  N   LIG    1        0.002  -0.004   0.002  0.00  0.00    -0.550 N 
ATOM      4  C   LIG    1        0.006  -0.669  -1.171  0.00  0.00    +0.540 A 
ATOM      5  C   LIG    1        0.025  -2.085  -1.167  0.00  0.00    -0.070 A 
ATOM      6  C   LIG    1        0.040  -2.738   0.015  0.00  0.00    +0.160 A 
ATOM      7  N   LIG    1        0.036  -2.026   1.183  0.00  0.00    -0.530 N 
ATOM      8  C   LIG    1        0.052  -2.735   2.465  0.00  0.00    +0.330 C 
ATOM      9  O   LIG    1       -0.008  -0.058  -2.224  0.00  0.00    -0.500 OA
ATOM     10  C   LIG    1        0.022  -0.681   1.165  0.00  0.00    +0.690 A 
ATOM     11  O   LIG    1        0.019  -0.067   2.215  0.00  0.00    -0.530 OA
ENDBRANCH   1   6
BRANCH   1  12
ATOM     12  N   LIG    1        1.323  -4.703   0.635  0.00  0.00    -0.720 N 
ATOM     13  H   LIG    1        1.984  -4.056   0.930  0.00  0.00    +0.410 HD
ATOM     14  C   LIG    1        1.566  -6.022   0.766  0.00  0.00    +0.520 C 
ATOM     15  O   LIG    1        0.740  -6.830   0.397  0.00  0.00    -0.520 OA
BRANCH  14  16
ATOM     16  C   LIG    1        2.863  -6.493   1.371  0.00  0.00    +0.060 C 
BRANCH  16  17
ATOM     17  C   LIG    1        2.885  -8.022   1.403  0.00  0.00    +0.290 C 
BRANCH  17  18
ATOM     18  N   LIG    1        4.150  -8.482   1.993  0.00  0.00    -0.640 N 
ATOM     19  H   LIG    1        4.922  -8.146   1.436  0.00  0.00    +0.440 HD
ATOM     20  H   LIG    1        4.164  -9.490   2.014  0.00  0.00    +0.440 HD
ATOM     21  H   LIG    1        4.232  -8.124   2.933  0.00  0.00    +0.440 HD
ENDBRANCH  17  18
ENDBRANCH  16  17
ENDBRANCH  14  16
ENDBRANCH   1  12
TORSDOF 5
ENDMDL
MODEL      324
REMARK  Name = ZINC000026442013
REMARK                            x       y       z     vdW  Elec       q    Type
REMARK                         _______ _______ _______ _____ _____    ______ ____
ROOT
ATOM      1  C   LIG    1        1.493  -3.996   2.415  0.00  0.00    +0.360 C 
ATOM      2  O   LIG    1        0.159  -4.492   2.543  0.00  0.00    -0.360 OA
ATOM      3  C   LIG    1        0.061  -5.917   2.521  0.00  0.00    +0.170 C 
ATOM      4  C   LIG    1        0.849  -6.500   3.697  0.00  0.00    +0.130 C 
ATOM      5  C   LIG    1        2.305  -6.033   3.608  0.00  0.00    +0.180 C 
ATOM      6  C   LIG    1        2.339  -4.502   3.587  0.00  0.00    +0.170 C 
ENDROOT
BRANCH   1   7
ATOM      7  N   LIG    1        1.473  -2.527   2.423  0.00  0.00    -0.500 N 
ATOM      8  H   LIG    1        1.001  -2.202   3.253  0.00  0.00    +0.430 HD
ATOM      9  H   LIG    1        2.420  -2.178   2.416  0.00  0.00    +0.450 HD
BRANCH   7  10
ATOM     10  C   LIG    1        0.763  -2.041   1.233  0.00  0.00    +0.260 C 
BRANCH  10  11
ATOM     11  C   LIG    1        0.742  -0.511   1.242  0.00  0.00    +0.030 C 
BRANCH  11  13
ATOM     12  C   LIG    1       -0.019   1.526   0.010  0.00  0.00    +0.030 C 
ATOM     13  C   LIG    1        0.002  -0.004   0.002  0.00  0.00    +0.020 C 
ENDBRANCH  11  13
ENDBRANCH  10  11
ENDBRANCH   7  10
ENDBRANCH   1   7
BRANCH   5  14
ATOM     14  O   LIG    1        3.032  -6.514   4.740  0.00  0.00    -0.550 OA
ATOM     15  H   LIG    1        3.046  -7.478   4.818  0.00  0.00    +0.410 HD
ENDBRANCH   5  14
BRANCH   4  16
ATOM     16  O   LIG    1        0.800  -7.927   3.644  0.00  0.00    -0.550 OA
ATOM     17  H   LIG    1       -0.095  -8.292   3.692  0.00  0.00    +0.400 HD
ENDBRANCH   4  16
BRANCH   6  18
ATOM     18  O   LIG    1        3.688  -4.056   3.432  0.00  0.00    -0.560 OA
ATOM     19  H   LIG    1        4.281  -4.344   4.139  0.00  0.00    +0.420 HD
ENDBRANCH   6  18
BRANCH   3  20
ATOM     20  C   LIG    1       -1.408  -6.330   2.635  0.00  0.00    +0.230 C 
BRANCH  20  21
ATOM     21  O   LIG    1       -2.119  -5.884   1.479  0.00  0.00    -0.570 OA
ATOM     22  H   LIG    1       -3.059  -6.111   1.484  0.00  0.00    +0.400 HD
ENDBRANCH  20  21
ENDBRANCH   3  20
TORSDOF 9
ENDMDL
MODEL      325
REMARK  Name = ZINC000012484080
REMARK                            x       y       z     vdW  Elec       q    Type
REMARK                         _______ _______ _______ _____ _____    ______ ____
ROOT
ATOM      1  C   LIG    1       -0.659   1.720   1.143  0.00  0.00    +0.130 C 
ATOM      2  C   LIG    1       -0.561   3.251   1.254  0.00  0.00    +0.190 C 
ATOM      3  C   LIG    1       -0.965   3.645   2.694  0.00  0.00    +0.250 C 
ATOM      4  O   LIG    1        0.264   3.627   3.442  0.00  0.00    -0.340 OA
ATOM      5  C   LIG    1        1.302   3.215   2.533  0.00  0.00    +0.380 C 
ATOM      6  C   LIG    1        1.408   1.683   2.587  0.00  0.00    +0.140 C 
ATOM      7  O   LIG    1        0.846   3.594   1.196  0.00  0.00    -0.350 OA
ATOM      8  C   LIG    1        0.002   1.095   2.376  0.00  0.00    +0.190 C 
ENDROOT
BRANCH   6   9
ATOM      9  N   LIG    1        2.283   1.212   1.506  0.00  0.00    -0.550 NA
ATOM     10  C   LIG    1        2.354  -0.256   1.487  0.00  0.00    +0.140 C 
ATOM     11  C   LIG    1        3.226  -0.705   0.311  0.00  0.00    +0.220 C 
ATOM     12  O   LIG    1        4.518  -0.103   0.426  0.00  0.00    -0.370 OA
ATOM     13  C   LIG    1        4.487   1.327   0.447  0.00  0.00    +0.230 C 
ATOM     14  C   LIG    1        3.627   1.796   1.623  0.00  0.00    +0.180 C 
ENDBRANCH   6   9
BRANCH   1  15
ATOM     15  N   LIG    1        0.033   1.268  -0.071  0.00  0.00    -0.630 N 
ATOM     16  H   LIG    1       -0.400   1.686  -0.881  0.00  0.00    +0.430 HD
ATOM     17  H   LIG    1        1.002   1.545  -0.028  0.00  0.00    +0.440 HD
ATOM     18  H   LIG    1       -0.028   0.263  -0.139  0.00  0.00    +0.430 HD
ENDBRANCH   1  15
BRANCH   8  19
ATOM     19  O   LIG    1       -0.817   1.399   3.507  0.00  0.00    -0.520 OA
ATOM     20  H   LIG    1       -1.720   1.058   3.442  0.00  0.00    +0.390 HD
ENDBRANCH   8  19
TORSDOF 3
ENDMDL
MODEL      326
REMARK  Name = ZINC000012529654
REMARK                            x       y       z     vdW  Elec       q    Type
REMARK                         _______ _______ _______ _____ _____    ______ ____
ROOT
ATOM      1  C   LIG    1       -0.592   1.873   1.123  0.00  0.00    +0.120 C 
ATOM      2  C   LIG    1       -0.322   3.367   1.364  0.00  0.00    +0.190 C 
ATOM      3  C   LIG    1       -0.753   3.696   2.812  0.00  0.00    +0.250 C 
ATOM      4  O   LIG    1        0.423   3.473   3.610  0.00  0.00    -0.340 OA
ATOM      5  C   LIG    1        1.453   3.009   2.718  0.00  0.00    +0.390 C 
ATOM      6  C   LIG    1        1.376   1.476   2.650  0.00  0.00    +0.120 C 
ATOM      7  O   LIG    1        1.117   3.541   1.397  0.00  0.00    -0.350 OA
ATOM      8  C   LIG    1       -0.076   1.079   2.329  0.00  0.00    +0.190 C 
ENDROOT
BRANCH   6   9
ATOM      9  N   LIG    1        2.247   0.986   1.574  0.00  0.00    -0.530 NA
ATOM     10  C   LIG    1        3.651   1.419   1.787  0.00  0.00    +0.190 C 
ATOM     11  C   LIG    1        4.465   0.423   0.923  0.00  0.00    +0.040 C 
ATOM     12  C   LIG    1        3.698  -0.905   1.113  0.00  0.00    +0.020 C 
ATOM     13  C   LIG    1        2.280  -0.493   1.550  0.00  0.00    +0.160 C 
ENDBRANCH   6   9
BRANCH   1  14
ATOM     14  N   LIG    1        0.107   1.434  -0.092  0.00  0.00    -0.620 N 
ATOM     15  H   LIG    1       -0.308   1.877  -0.897  0.00  0.00    +0.430 HD
ATOM     16  H   LIG    1        1.081   1.692  -0.031  0.00  0.00    +0.450 HD
ATOM     17  H   LIG    1        0.029   0.432  -0.182  0.00  0.00    +0.430 HD
ENDBRANCH   1  14
BRANCH   8  18
ATOM     18  O   LIG    1       -0.914   1.394   3.443  0.00  0.00    -0.520 OA
ATOM     19  H   LIG    1       -1.845   1.170   3.311  0.00  0.00    +0.390 HD
ENDBRANCH   8  18
TORSDOF 3
ENDMDL
MODEL      327
REMARK  Name = ZINC000067172843
REMARK                            x       y       z     vdW  Elec       q    Type
REMARK                         _______ _______ _______ _____ _____    ______ ____
ROOT
ATOM      1  O   LIG    1        0.040   0.012   0.200  0.00  0.00    -0.490 OA
ATOM      2  C   LIG    1       -0.014   1.211   0.009  0.00  0.00    +0.630 C 
ATOM      3  N   LIG    1       -1.201   1.801  -0.237  0.00  0.00    -0.620 N 
ATOM      4  C   LIG    1       -1.276   3.219  -0.622  0.00  0.00    +0.330 C 
ATOM      5  C   LIG    1       -2.143   3.335  -1.880  0.00  0.00    +0.260 C 
ATOM      6  N   LIG    1       -3.446   2.705  -1.635  0.00  0.00    -0.510 N 
ATOM      7  C   LIG    1       -3.270   1.265  -1.408  0.00  0.00    +0.270 C 
ATOM      8  H   LIG    1       -4.043   2.846  -2.436  0.00  0.00    +0.430 HD
ATOM      9  H   LIG    1       -3.873   3.122  -0.821  0.00  0.00    +0.430 HD
ATOM     10  C   LIG    1       -2.458   1.044  -0.132  0.00  0.00    +0.330 C 
ENDROOT
BRANCH   2  11
ATOM     11  C   LIG    1        1.222   2.022   0.039  0.00  0.00    +0.130 A 
ATOM     12  N   LIG    1        2.450   1.558   0.114  0.00  0.00    -0.230 NA
ATOM     13  N   LIG    1        3.268   2.553   0.117  0.00  0.00    -0.290 N 
ATOM     14  C   LIG    1        2.556   3.692   0.042  0.00  0.00    +0.460 A 
ATOM     15  N   LIG    1        1.290   3.365  -0.013  0.00  0.00    -0.500 NA
BRANCH  13  16
ATOM     16  C   LIG    1        4.729   2.460   0.190  0.00  0.00    +0.360 C 
BRANCH  16  17
ATOM     17  C   LIG    1        5.127   1.645   1.423  0.00  0.00    +0.200 C 
BRANCH  17  18
ATOM     18  O   LIG    1        6.551   1.554   1.494  0.00  0.00    -0.570 OA
ATOM     19  H   LIG    1        6.876   1.050   2.253  0.00  0.00    +0.400 HD
ENDBRANCH  17  18
ENDBRANCH  16  17
ENDBRANCH  13  16
ENDBRANCH   2  11
TORSDOF 4
ENDMDL
MODEL      328
REMARK  Name = ZINC000017000414
REMARK                            x       y       z     vdW  Elec       q    Type
REMARK                         _______ _______ _______ _____ _____    ______ ____
ROOT
ATOM      1  C   LIG    1       -2.369  -2.831  -0.002  0.00  0.00    +0.460 C 
ATOM      2  C   LIG    1       -2.448  -3.713  -1.266  0.00  0.00    +0.030 C 
ATOM      3  C   LIG    1       -3.947  -3.595  -1.657  0.00  0.00    +0.190 C 
ATOM      4  C   LIG    1       -4.247  -2.136  -1.230  0.00  0.00    +0.170 C 
ATOM      5  O   LIG    1       -3.483  -1.931  -0.029  0.00  0.00    -0.370 OA
ENDROOT
BRANCH   1   9
ATOM      6  C   LIG    1       -0.018   1.503   0.010  0.00  0.00    +0.140 C 
ATOM      7  C   LIG    1        0.002  -0.004   0.002  0.00  0.00    -0.240 A 
ATOM      8  C   LIG    1       -1.153  -0.704   0.004  0.00  0.00    +0.330 A 
ATOM      9  N   LIG    1       -1.116  -2.072  -0.004  0.00  0.00    -0.550 N 
ATOM     10  C   LIG    1        0.060  -2.726  -0.013  0.00  0.00    +0.700 A 
ATOM     11  N   LIG    1        1.226  -2.053  -0.016  0.00  0.00    -0.660 N 
ATOM     12  H   LIG    1        2.064  -2.540  -0.023  0.00  0.00    +0.440 HD
ATOM     13  O   LIG    1        0.069  -3.942  -0.020  0.00  0.00    -0.530 OA
ATOM     14  C   LIG    1        1.232  -0.705  -0.013  0.00  0.00    +0.550 A 
ATOM     15  O   LIG    1        2.287  -0.095  -0.016  0.00  0.00    -0.490 OA
ENDBRANCH   1   9
BRANCH   3  16
ATOM     16  O   LIG    1       -4.127  -3.768  -3.064  0.00  0.00    -0.550 OA
ATOM     17  H   LIG    1       -3.848  -4.633  -3.393  0.00  0.00    +0.410 HD
ENDBRANCH   3  16
BRANCH   4  18
ATOM     18  C   LIG    1       -5.741  -1.964  -0.946  0.00  0.00    +0.310 C 
BRANCH  18  19
ATOM     19  N   LIG    1       -6.025  -0.551  -0.659  0.00  0.00    -0.640 N 
ATOM     20  H   LIG    1       -5.767   0.012  -1.455  0.00  0.00    +0.440 HD
ATOM     21  H   LIG    1       -5.493  -0.258   0.147  0.00  0.00    +0.440 HD
ATOM     22  H   LIG    1       -7.009  -0.437  -0.471  0.00  0.00    +0.440 HD
ENDBRANCH  18  19
ENDBRANCH   4  18
TORSDOF 4
ENDMDL
MODEL      329
REMARK  Name = ZINC000017000410
REMARK                            x       y       z     vdW  Elec       q    Type
REMARK                         _______ _______ _______ _____ _____    ______ ____
ROOT
ATOM      1  C   LIG    1       -2.369  -2.831  -0.002  0.00  0.00    +0.460 C 
ATOM      2  C   LIG    1       -2.448  -3.713  -1.266  0.00  0.00    +0.030 C 
ATOM      3  C   LIG    1       -3.947  -3.595  -1.657  0.00  0.00    +0.180 C 
ATOM      4  C   LIG    1       -4.247  -2.136  -1.230  0.00  0.00    +0.170 C 
ATOM      5  O   LIG    1       -3.483  -1.931  -0.029  0.00  0.00    -0.370 OA
ENDROOT
BRANCH   1   9
ATOM      6  C   LIG    1       -0.018   1.503   0.010  0.00  0.00    +0.140 C 
ATOM      7  C   LIG    1        0.002  -0.004   0.002  0.00  0.00    -0.240 A 
ATOM      8  C   LIG    1       -1.153  -0.704   0.004  0.00  0.00    +0.330 A 
ATOM      9  N   LIG    1       -1.116  -2.072  -0.004  0.00  0.00    -0.550 N 
ATOM     10  C   LIG    1        0.060  -2.726  -0.013  0.00  0.00    +0.700 A 
ATOM     11  N   LIG    1        1.226  -2.053  -0.016  0.00  0.00    -0.660 N 
ATOM     12  H   LIG    1        2.064  -2.540  -0.023  0.00  0.00    +0.440 HD
ATOM     13  O   LIG    1        0.069  -3.942  -0.020  0.00  0.00    -0.530 OA
ATOM     14  C   LIG    1        1.232  -0.705  -0.013  0.00  0.00    +0.550 A 
ATOM     15  O   LIG    1        2.287  -0.095  -0.016  0.00  0.00    -0.490 OA
ENDBRANCH   1   9
BRANCH   3  16
ATOM     16  O   LIG    1       -4.746  -4.523  -0.922  0.00  0.00    -0.560 OA
ATOM     17  H   LIG    1       -4.517  -5.450  -1.079  0.00  0.00    +0.410 HD
ENDBRANCH   3  16
BRANCH   4  18
ATOM     18  C   LIG    1       -5.741  -1.964  -0.946  0.00  0.00    +0.300 C 
BRANCH  18  19
ATOM     19  N   LIG    1       -6.025  -0.551  -0.659  0.00  0.00    -0.640 N 
ATOM     20  H   LIG    1       -5.767   0.012  -1.455  0.00  0.00    +0.430 HD
ATOM     21  H   LIG    1       -5.493  -0.258   0.147  0.00  0.00    +0.440 HD
ATOM     22  H   LIG    1       -7.009  -0.437  -0.471  0.00  0.00    +0.440 HD
ENDBRANCH  18  19
ENDBRANCH   4  18
TORSDOF 4
ENDMDL
MODEL      330
REMARK  Name = ZINC000104145242
REMARK                            x       y       z     vdW  Elec       q    Type
REMARK                         _______ _______ _______ _____ _____    ______ ____
ROOT
ATOM      1  C   LIG    1       -1.503  -0.578  -0.018  0.00  0.00    +0.280 C 
ATOM      2  C   LIG    1       -1.588  -2.068  -0.211  0.00  0.00    +0.510 C 
ATOM      3  N   LIG    1       -1.948  -2.907   0.761  0.00  0.00    -0.720 N 
ATOM      4  H   LIG    1       -1.916  -3.857   0.571  0.00  0.00    +0.410 HD
ATOM      5  C   LIG    1       -2.385  -2.496   2.089  0.00  0.00    +0.260 C 
ATOM      6  C   LIG    1       -1.883  -1.088   2.414  0.00  0.00    +0.270 C 
ATOM      7  O   LIG    1       -1.318  -2.526  -1.300  0.00  0.00    -0.520 OA
ATOM      8  N   LIG    1       -2.155  -0.222   1.251  0.00  0.00    -0.610 N 
ATOM      9  C   LIG    1       -2.967   0.850   1.349  0.00  0.00    +0.530 C 
ATOM     10  O   LIG    1       -3.109   1.592   0.401  0.00  0.00    -0.470 OA
ENDROOT
BRANCH   9  11
ATOM     11  C   LIG    1       -3.699   1.125   2.638  0.00  0.00    +0.160 C 
ATOM     12  C   LIG    1       -2.718   1.680   3.674  0.00  0.00    +0.260 C 
ATOM     13  N   LIG    1       -3.445   2.002   4.910  0.00  0.00    -0.500 N 
ATOM     14  C   LIG    1       -4.477   3.007   4.622  0.00  0.00    +0.250 C 
ATOM     15  C   LIG    1       -5.454   2.450   3.584  0.00  0.00    +0.270 C 
ATOM     16  H   LIG    1       -2.800   2.368   5.594  0.00  0.00    +0.440 HD
ATOM     17  H   LIG    1       -3.880   1.167   5.271  0.00  0.00    +0.430 HD
ATOM     18  O   LIG    1       -4.733   2.085   2.404  0.00  0.00    -0.330 OA
ENDBRANCH   9  11
BRANCH   1  20
ATOM     19  C   LIG    1        0.050   1.376   0.100  0.00  0.00    +0.040 C 
ATOM     20  C   LIG    1       -0.034  -0.150   0.023  0.00  0.00    +0.040 C 
ENDBRANCH   1  20
TORSDOF 2
ENDMDL
MODEL      331
REMARK  Name = ZINC000104145234
REMARK                            x       y       z     vdW  Elec       q    Type
REMARK                         _______ _______ _______ _____ _____    ______ ____
ROOT
ATOM      1  C   LIG    1       -1.462  -0.433  -0.057  0.00  0.00    +0.260 C 
ATOM      2  C   LIG    1       -1.597  -1.922   0.113  0.00  0.00    +0.510 C 
ATOM      3  N   LIG    1       -2.372  -2.675  -0.669  0.00  0.00    -0.720 N 
ATOM      4  H   LIG    1       -2.452  -3.617  -0.452  0.00  0.00    +0.410 HD
ATOM      5  C   LIG    1       -3.106  -2.183  -1.827  0.00  0.00    +0.260 C 
ATOM      6  C   LIG    1       -3.324  -0.671  -1.728  0.00  0.00    +0.270 C 
ATOM      7  O   LIG    1       -0.973  -2.462   1.001  0.00  0.00    -0.520 OA
ATOM      8  N   LIG    1       -2.046  -0.043  -1.349  0.00  0.00    -0.610 N 
ATOM      9  C   LIG    1       -1.436   0.848  -2.155  0.00  0.00    +0.520 C 
ATOM     10  O   LIG    1       -0.351   1.297  -1.851  0.00  0.00    -0.460 OA
ENDROOT
BRANCH   9  11
ATOM     11  C   LIG    1       -2.102   1.287  -3.434  0.00  0.00    +0.160 C 
ATOM     12  C   LIG    1       -2.077   0.136  -4.443  0.00  0.00    +0.250 C 
ATOM     13  N   LIG    1       -2.675   0.585  -5.708  0.00  0.00    -0.500 N 
ATOM     14  C   LIG    1       -1.904   1.719  -6.237  0.00  0.00    +0.240 C 
ATOM     15  C   LIG    1       -1.929   2.867  -5.224  0.00  0.00    +0.270 C 
ATOM     16  H   LIG    1       -3.628   0.872  -5.547  0.00  0.00    +0.430 HD
ATOM     17  H   LIG    1       -2.659  -0.172  -6.375  0.00  0.00    +0.440 HD
ATOM     18  O   LIG    1       -1.399   2.408  -3.978  0.00  0.00    -0.330 OA
ENDBRANCH   9  11
BRANCH   1  20
ATOM     19  C   LIG    1        0.763  -0.788  -1.136  0.00  0.00    +0.010 C 
ATOM     20  C   LIG    1        0.018  -0.046  -0.025  0.00  0.00    +0.070 C 
ENDBRANCH   1  20
TORSDOF 2
ENDMDL
MODEL      332
REMARK  Name = ZINC000104145239
REMARK                            x       y       z     vdW  Elec       q    Type
REMARK                         _______ _______ _______ _____ _____    ______ ____
ROOT
ATOM      1  C   LIG    1       -1.375  -0.575  -0.151  0.00  0.00    +0.260 C 
ATOM      2  C   LIG    1       -1.304  -2.076  -0.089  0.00  0.00    +0.510 C 
ATOM      3  N   LIG    1       -1.927  -2.870  -0.961  0.00  0.00    -0.720 N 
ATOM      4  H   LIG    1       -1.882  -3.828  -0.811  0.00  0.00    +0.410 HD
ATOM      5  C   LIG    1       -2.670  -2.401  -2.122  0.00  0.00    +0.260 C 
ATOM      6  C   LIG    1       -3.105  -0.946  -1.936  0.00  0.00    +0.270 C 
ATOM      7  O   LIG    1       -0.650  -2.588   0.795  0.00  0.00    -0.520 OA
ATOM      8  N   LIG    1       -1.949  -0.176  -1.445  0.00  0.00    -0.610 N 
ATOM      9  C   LIG    1       -1.436   0.848  -2.155  0.00  0.00    +0.520 C 
ATOM     10  O   LIG    1       -0.438   1.417  -1.764  0.00  0.00    -0.460 OA
ENDROOT
BRANCH   9  11
ATOM     11  C   LIG    1       -2.102   1.287  -3.434  0.00  0.00    +0.160 C 
ATOM     12  C   LIG    1       -3.459   1.917  -3.113  0.00  0.00    +0.260 C 
ATOM     13  N   LIG    1       -4.080   2.396  -4.356  0.00  0.00    -0.500 N 
ATOM     14  C   LIG    1       -3.208   3.399  -4.982  0.00  0.00    +0.250 C 
ATOM     15  C   LIG    1       -1.851   2.766  -5.299  0.00  0.00    +0.270 C 
ATOM     16  H   LIG    1       -4.975   2.812  -4.146  0.00  0.00    +0.440 HD
ATOM     17  H   LIG    1       -4.209   1.621  -4.988  0.00  0.00    +0.430 HD
ATOM     18  O   LIG    1       -1.277   2.251  -4.095  0.00  0.00    -0.330 OA
ENDBRANCH   9  11
BRANCH   1  20
ATOM     19  C   LIG    1        0.924  -0.536  -1.127  0.00  0.00    +0.020 C 
ATOM     20  C   LIG    1        0.031   0.011  -0.012  0.00  0.00    +0.070 C 
ENDBRANCH   1  20
TORSDOF 2
ENDMDL
MODEL      333
REMARK  Name = ZINC000065431787
REMARK                            x       y       z     vdW  Elec       q    Type
REMARK                         _______ _______ _______ _____ _____    ______ ____
ROOT
ATOM      1  O   LIG    1        0.002  -0.004   0.002  0.00  0.00    -0.530 OA
ATOM      2  C   LIG    1       -0.014   1.209   0.009  0.00  0.00    +0.530 C 
ATOM      3  N   LIG    1       -1.195   1.841   0.029  0.00  0.00    -0.710 N 
ATOM      4  H   LIG    1       -2.003   1.306   0.081  0.00  0.00    +0.420 HD
ATOM      5  C   LIG    1       -1.327   3.293  -0.024  0.00  0.00    +0.300 C 
ATOM      6  C   LIG    1        0.004   3.966   0.322  0.00  0.00    +0.220 C 
ATOM      7  N   LIG    1        1.068   3.331  -0.464  0.00  0.00    -0.530 NA
ATOM      8  C   LIG    1        2.321   4.092  -0.433  0.00  0.00    +0.220 C 
ATOM      9  C   LIG    1        3.342   3.402  -1.343  0.00  0.00    +0.270 C 
ATOM     10  N   LIG    1        3.561   2.023  -0.892  0.00  0.00    -0.370 N 
ATOM     11  C   LIG    1        2.297   1.274  -0.931  0.00  0.00    +0.310 C 
ATOM     12  H   LIG    1        4.234   1.576  -1.497  0.00  0.00    +0.440 HD
ATOM     13  C   LIG    1        1.288   1.952   0.000  0.00  0.00    +0.130 C 
ENDROOT
BRANCH  10  14
ATOM     14  C   LIG    1        4.076   2.036   0.484  0.00  0.00    +0.170 C 
BRANCH  14  15
ATOM     15  C   LIG    1        5.398   2.804   0.527  0.00  0.00    +0.220 C 
BRANCH  15  16
ATOM     16  O   LIG    1        6.381   2.103  -0.238  0.00  0.00    -0.550 OA
ATOM     17  H   LIG    1        7.247   2.534  -0.255  0.00  0.00    +0.400 HD
ENDBRANCH  15  16
ENDBRANCH  14  15
BRANCH  14  18
ATOM     18  C   LIG    1        4.305   0.599   0.956  0.00  0.00    +0.210 C 
BRANCH  18  19
ATOM     19  O   LIG    1        5.338  -0.001   0.172  0.00  0.00    -0.550 OA
ATOM     20  H   LIG    1        5.537  -0.915   0.417  0.00  0.00    +0.400 HD
ENDBRANCH  18  19
ENDBRANCH  14  18
ENDBRANCH  10  14
TORSDOF 5
ENDMDL
MODEL      334
REMARK  Name = ZINC000001771394
REMARK                            x       y       z     vdW  Elec       q    Type
REMARK                         _______ _______ _______ _____ _____    ______ ____
ROOT
ATOM      1  N   LIG    1       -2.683  -4.071  -0.485  0.00  0.00    -0.490 N 
ATOM      2  H   LIG    1       -2.137  -4.518   0.236  0.00  0.00    +0.430 HD
ATOM      3  H   LIG    1       -2.258  -4.243  -1.384  0.00  0.00    +0.440 HD
ENDROOT
BRANCH   1   4
ATOM      4  C   LIG    1       -4.047  -4.616  -0.475  0.00  0.00    +0.220 C 
ATOM      5  C   LIG    1       -4.644  -4.444   0.936  0.00  0.00    -0.310 C 
ATOM      6  S   LIG    1       -5.698  -5.939   1.120  0.00  0.00    +2.410 S 
ATOM      7  C   LIG    1       -4.559  -7.025   0.170  0.00  0.00    -0.310 C 
ATOM      8  O   LIG    1       -6.910  -5.764   0.400  0.00  0.00    -0.890 OA
ATOM      9  O   LIG    1       -5.726  -6.344   2.481  0.00  0.00    -0.890 OA
ATOM     10  C   LIG    1       -3.998  -6.077  -0.906  0.00  0.00    +0.210 C 
BRANCH  10  11
ATOM     11  O   LIG    1       -2.642  -6.433  -1.176  0.00  0.00    -0.580 OA
ATOM     12  H   LIG    1       -2.532  -7.330  -1.521  0.00  0.00    +0.420 HD
ENDBRANCH  10  11
ENDBRANCH   1   4
BRANCH   1  13
ATOM     13  C   LIG    1       -2.732  -2.624  -0.236  0.00  0.00    +0.250 C 
BRANCH  13  14
ATOM     14  C   LIG    1       -1.311  -2.056  -0.247  0.00  0.00    +0.040 C 
BRANCH  14  15
ATOM     15  C   LIG    1       -1.362  -0.549   0.012  0.00  0.00    +0.190 C 
BRANCH  15  17
ATOM     16  C   LIG    1       -0.018   1.465   0.010  0.00  0.00    +0.200 C 
ATOM     17  N   LIG    1        0.002  -0.004   0.002  0.00  0.00    -0.550 NA
ATOM     18  C   LIG    1        0.786  -0.526   1.129  0.00  0.00    +0.190 C 
ENDBRANCH  15  17
ENDBRANCH  14  15
ENDBRANCH  13  14
ENDBRANCH   1  13
TORSDOF 6
ENDMDL
MODEL      335
REMARK  Name = ZINC000001771393
REMARK                            x       y       z     vdW  Elec       q    Type
REMARK                         _______ _______ _______ _____ _____    ______ ____
ROOT
ATOM      1  N   LIG    1       -2.683  -4.071  -0.485  0.00  0.00    -0.500 N 
ATOM      2  H   LIG    1       -2.137  -4.518   0.236  0.00  0.00    +0.440 HD
ATOM      3  H   LIG    1       -2.258  -4.243  -1.384  0.00  0.00    +0.430 HD
ENDROOT
BRANCH   1   4
ATOM      4  C   LIG    1       -4.047  -4.616  -0.475  0.00  0.00    +0.200 C 
ATOM      5  C   LIG    1       -4.845  -4.047  -1.677  0.00  0.00    -0.300 C 
ATOM      6  S   LIG    1       -6.231  -5.250  -1.787  0.00  0.00    +2.420 S 
ATOM      7  C   LIG    1       -5.227  -6.709  -1.315  0.00  0.00    -0.300 C 
ATOM      8  O   LIG    1       -6.651  -5.372  -3.139  0.00  0.00    -0.890 OA
ATOM      9  O   LIG    1       -7.182  -4.976  -0.767  0.00  0.00    -0.890 OA
ATOM     10  C   LIG    1       -3.993  -6.139  -0.603  0.00  0.00    +0.200 C 
BRANCH  10  11
ATOM     11  O   LIG    1       -3.912  -6.705   0.707  0.00  0.00    -0.550 OA
ATOM     12  H   LIG    1       -3.810  -7.667   0.714  0.00  0.00    +0.410 HD
ENDBRANCH  10  11
ENDBRANCH   1   4
BRANCH   1  13
ATOM     13  C   LIG    1       -2.732  -2.624  -0.236  0.00  0.00    +0.270 C 
BRANCH  13  14
ATOM     14  C   LIG    1       -1.311  -2.056  -0.247  0.00  0.00    +0.040 C 
BRANCH  14  15
ATOM     15  C   LIG    1       -1.362  -0.549   0.012  0.00  0.00    +0.190 C 
BRANCH  15  17
ATOM     16  C   LIG    1       -0.018   1.465   0.010  0.00  0.00    +0.200 C 
ATOM     17  N   LIG    1        0.002  -0.004   0.002  0.00  0.00    -0.550 NA
ATOM     18  C   LIG    1        0.786  -0.526   1.129  0.00  0.00    +0.190 C 
ENDBRANCH  15  17
ENDBRANCH  14  15
ENDBRANCH  13  14
ENDBRANCH   1  13
TORSDOF 6
ENDMDL
MODEL      336
REMARK  Name = ZINC000379341096
REMARK                            x       y       z     vdW  Elec       q    Type
REMARK                         _______ _______ _______ _____ _____    ______ ____
ROOT
ATOM      1  C   LIG    1        1.565  -3.321  -0.025  0.00  0.00    +0.290 C 
ENDROOT
BRANCH   1   8
ATOM      2  N   LIG    1       -0.017   1.381   0.010  0.00  0.00    -0.800 N 
ATOM      3  H   LIG    1       -0.863   1.854   0.016  0.00  0.00    +0.440 HD
ATOM      4  H   LIG    1        0.817   1.877   0.004  0.00  0.00    +0.440 HD
ATOM      5  C   LIG    1        0.002  -0.004   0.002  0.00  0.00    +0.600 A 
ATOM      6  N   LIG    1       -1.052  -0.786   0.002  0.00  0.00    -0.520 N 
ATOM      7  C   LIG    1       -0.653  -2.069  -0.007  0.00  0.00    +0.250 A 
ATOM      8  C   LIG    1        0.691  -2.094  -0.014  0.00  0.00    +0.030 A 
ATOM      9  H   LIG    1       -1.974  -0.485   0.008  0.00  0.00    +0.460 HD
ATOM     10  N   LIG    1        1.116  -0.784  -0.013  0.00  0.00    -0.550 N 
ATOM     11  H   LIG    1        2.036  -0.477  -0.017  0.00  0.00    +0.460 HD
ENDBRANCH   1   8
BRANCH   1  12
ATOM     12  O   LIG    1        0.939  -4.345  -0.801  0.00  0.00    -0.500 OA
ATOM     13  H   LIG    1        0.072  -4.615  -0.469  0.00  0.00    +0.370 HD
ENDBRANCH   1  12
BRANCH   1  14
ATOM     14  C   LIG    1        1.766  -3.818   1.408  0.00  0.00    +0.170 C 
BRANCH  14  15
ATOM     15  O   LIG    1        0.493  -4.031   2.021  0.00  0.00    -0.550 OA
ATOM     16  H   LIG    1       -0.058  -4.684   1.567  0.00  0.00    +0.380 HD
ENDBRANCH  14  15
BRANCH  14  17
ATOM     17  C   LIG    1        2.549  -5.133   1.387  0.00  0.00    +0.200 C 
BRANCH  17  18
ATOM     18  O   LIG    1        1.877  -6.073   0.546  0.00  0.00    -0.520 OA
ATOM     19  H   LIG    1        0.977  -6.282   0.830  0.00  0.00    +0.370 HD
ENDBRANCH  17  18
BRANCH  17  20
ATOM     20  C   LIG    1        2.641  -5.693   2.807  0.00  0.00    +0.160 C 
BRANCH  20  21
ATOM     21  O   LIG    1        3.470  -6.858   2.806  0.00  0.00    -0.560 OA
ATOM     22  H   LIG    1        3.574  -7.267   3.676  0.00  0.00    +0.390 HD
ENDBRANCH  20  21
ENDBRANCH  17  20
ENDBRANCH  14  17
ENDBRANCH   1  14
TORSDOF 8
ENDMDL
MODEL      337
REMARK  Name = ZINC000379341095
REMARK                            x       y       z     vdW  Elec       q    Type
REMARK                         _______ _______ _______ _____ _____    ______ ____
ROOT
ATOM      1  C   LIG    1        1.565  -3.321  -0.025  0.00  0.00    +0.280 C 
ENDROOT
BRANCH   1   8
ATOM      2  N   LIG    1       -0.017   1.381   0.010  0.00  0.00    -0.800 N 
ATOM      3  H   LIG    1       -0.863   1.854   0.016  0.00  0.00    +0.440 HD
ATOM      4  H   LIG    1        0.817   1.877   0.004  0.00  0.00    +0.440 HD
ATOM      5  C   LIG    1        0.002  -0.004   0.002  0.00  0.00    +0.600 A 
ATOM      6  N   LIG    1       -1.052  -0.786   0.002  0.00  0.00    -0.520 N 
ATOM      7  C   LIG    1       -0.653  -2.069  -0.007  0.00  0.00    +0.230 A 
ATOM      8  C   LIG    1        0.691  -2.094  -0.014  0.00  0.00    +0.030 A 
ATOM      9  H   LIG    1       -1.974  -0.485   0.008  0.00  0.00    +0.460 HD
ATOM     10  N   LIG    1        1.116  -0.784  -0.013  0.00  0.00    -0.540 N 
ATOM     11  H   LIG    1        2.036  -0.477  -0.017  0.00  0.00    +0.460 HD
ENDBRANCH   1   8
BRANCH   1  12
ATOM     12  O   LIG    1        0.939  -4.345  -0.801  0.00  0.00    -0.520 OA
ATOM     13  H   LIG    1        0.072  -4.615  -0.469  0.00  0.00    +0.390 HD
ENDBRANCH   1  12
BRANCH   1  14
ATOM     14  C   LIG    1        1.766  -3.818   1.408  0.00  0.00    +0.170 C 
BRANCH  14  15
ATOM     15  O   LIG    1        2.392  -2.794   2.184  0.00  0.00    -0.550 OA
ATOM     16  H   LIG    1        3.259  -2.524   1.852  0.00  0.00    +0.380 HD
ENDBRANCH  14  15
BRANCH  14  17
ATOM     17  C   LIG    1        2.654  -5.064   1.396  0.00  0.00    +0.210 C 
BRANCH  17  18
ATOM     18  O   LIG    1        3.877  -4.771   0.718  0.00  0.00    -0.540 OA
ATOM     19  H   LIG    1        4.390  -4.059   1.123  0.00  0.00    +0.370 HD
ENDBRANCH  17  18
BRANCH  17  20
ATOM     20  C   LIG    1        2.957  -5.488   2.834  0.00  0.00    +0.170 C 
BRANCH  20  21
ATOM     21  O   LIG    1        3.687  -6.716   2.825  0.00  0.00    -0.560 OA
ATOM     22  H   LIG    1        3.914  -7.045   3.705  0.00  0.00    +0.390 HD
ENDBRANCH  20  21
ENDBRANCH  17  20
ENDBRANCH  14  17
ENDBRANCH   1  14
TORSDOF 8
ENDMDL
MODEL      338
REMARK  Name = ZINC000019411123
REMARK                            x       y       z     vdW  Elec       q    Type
REMARK                         _______ _______ _______ _____ _____    ______ ____
ROOT
ATOM      1  O   LIG    1        0.002  -0.004   0.002  0.00  0.00    -0.520 OA
ATOM      2  C   LIG    1       -0.014   1.209   0.009  0.00  0.00    +0.530 C 
ATOM      3  N   LIG    1       -1.191   1.867   0.018  0.00  0.00    -0.610 N 
ATOM      4  C   LIG    1       -2.473   1.143   0.026  0.00  0.00    +0.300 C 
ATOM      5  C   LIG    1       -3.221   1.511   1.309  0.00  0.00    +0.270 C 
ATOM      6  N   LIG    1       -3.199   2.951   1.525  0.00  0.00    -0.720 N 
ATOM      7  H   LIG    1       -3.885   3.332   2.095  0.00  0.00    +0.410 HD
ATOM      8  C   LIG    1       -2.301   3.783   0.994  0.00  0.00    +0.510 C 
ATOM      9  O   LIG    1       -2.338   4.953   1.311  0.00  0.00    -0.530 OA
ATOM     10  C   LIG    1       -1.245   3.336   0.026  0.00  0.00    +0.330 C 
ENDROOT
BRANCH   2  11
ATOM     11  C   LIG    1        1.280   1.980   0.001  0.00  0.00    -0.020 C 
ATOM     12  C   LIG    1        1.339   2.867  -1.247  0.00  0.00    +0.060 C 
ATOM     13  C   LIG    1        2.691   3.586  -1.286  0.00  0.00    +0.070 C 
ATOM     14  C   LIG    1        3.816   2.549  -1.258  0.00  0.00    +0.260 C 
ATOM     15  N   LIG    1        3.720   1.751  -0.030  0.00  0.00    -0.500 N 
ATOM     16  H   LIG    1        3.752   2.363   0.771  0.00  0.00    +0.430 HD
ATOM     17  H   LIG    1        4.493   1.104   0.011  0.00  0.00    +0.440 HD
ATOM     18  C   LIG    1        2.457   1.002  -0.018  0.00  0.00    +0.290 C 
ENDBRANCH   2  11
TORSDOF 1
ENDMDL
MODEL      339
REMARK  Name = ZINC000019413544
REMARK                            x       y       z     vdW  Elec       q    Type
REMARK                         _______ _______ _______ _____ _____    ______ ____
ROOT
ATOM      1  O   LIG    1       -0.066   0.114   0.529  0.00  0.00    -0.520 OA
ATOM      2  C   LIG    1       -0.014   1.209   0.009  0.00  0.00    +0.530 C 
ATOM      3  N   LIG    1       -1.114   1.734  -0.567  0.00  0.00    -0.610 N 
ATOM      4  C   LIG    1       -2.420   1.058  -0.483  0.00  0.00    +0.300 C 
ATOM      5  C   LIG    1       -3.391   1.986   0.251  0.00  0.00    +0.260 C 
ATOM      6  N   LIG    1       -3.308   3.341  -0.276  0.00  0.00    -0.710 N 
ATOM      7  H   LIG    1       -4.068   3.927  -0.136  0.00  0.00    +0.410 HD
ATOM      8  C   LIG    1       -2.259   3.834  -0.938  0.00  0.00    +0.510 C 
ATOM      9  O   LIG    1       -2.275   5.003  -1.258  0.00  0.00    -0.540 OA
ATOM     10  C   LIG    1       -1.060   3.008  -1.299  0.00  0.00    +0.320 C 
ENDROOT
BRANCH   2  11
ATOM     11  C   LIG    1        1.281   1.978   0.000  0.00  0.00    -0.020 C 
ATOM     12  C   LIG    1        1.314   2.939   1.193  0.00  0.00    +0.080 C 
ATOM     13  C   LIG    1        2.664   3.659   1.223  0.00  0.00    +0.280 C 
ATOM     14  N   LIG    1        3.745   2.674   1.356  0.00  0.00    -0.510 N 
ATOM     15  C   LIG    1        3.764   1.795   0.181  0.00  0.00    +0.260 C 
ATOM     16  H   LIG    1        3.594   2.120   2.186  0.00  0.00    +0.430 HD
ATOM     17  H   LIG    1        4.629   3.155   1.430  0.00  0.00    +0.440 HD
ATOM     18  C   LIG    1        2.457   1.003   0.110  0.00  0.00    +0.090 C 
ENDBRANCH   2  11
TORSDOF 1
ENDMDL
MODEL      340
REMARK  Name = ZINC000019432529
REMARK                            x       y       z     vdW  Elec       q    Type
REMARK                         _______ _______ _______ _____ _____    ______ ____
ROOT
ATOM      1  O   LIG    1        0.002  -0.004   0.002  0.00  0.00    -0.500 OA
ATOM      2  C   LIG    1       -0.014   1.209   0.009  0.00  0.00    +0.510 C 
ATOM      3  N   LIG    1       -1.191   1.867   0.018  0.00  0.00    -0.630 N 
ATOM      4  C   LIG    1       -1.235   3.337   0.020  0.00  0.00    +0.310 C 
ATOM      5  C   LIG    1       -2.183   3.796  -1.093  0.00  0.00    +0.270 C 
ATOM      6  N   LIG    1       -3.490   3.150  -0.919  0.00  0.00    -0.510 N 
ATOM      7  C   LIG    1       -3.356   1.698  -1.088  0.00  0.00    +0.270 C 
ATOM      8  H   LIG    1       -4.135   3.508  -1.607  0.00  0.00    +0.440 HD
ATOM      9  H   LIG    1       -3.841   3.349   0.005  0.00  0.00    +0.430 HD
ATOM     10  C   LIG    1       -2.467   1.135   0.020  0.00  0.00    +0.330 C 
ENDROOT
BRANCH   2  11
ATOM     11  C   LIG    1        1.280   1.980   0.001  0.00  0.00    +0.340 C 
BRANCH  11  12
ATOM     12  N   LIG    1        2.407   1.043  -0.015  0.00  0.00    -0.570 N 
ATOM     13  C   LIG    1        2.971   0.569   1.103  0.00  0.00    +0.530 C 
ATOM     14  C   LIG    1        4.099  -0.368   0.732  0.00  0.00    +0.100 C 
ATOM     15  C   LIG    1        4.090  -0.354  -0.810  0.00  0.00    +0.100 C 
ATOM     16  O   LIG    1        2.631   0.847   2.233  0.00  0.00    -0.470 OA
ATOM     17  C   LIG    1        2.953   0.586  -1.149  0.00  0.00    +0.530 C 
ATOM     18  O   LIG    1        2.598   0.883  -2.269  0.00  0.00    -0.480 OA
ENDBRANCH  11  12
ENDBRANCH   2  11
TORSDOF 2
ENDMDL
MODEL      341
REMARK  Name = ZINC000019685371
REMARK                            x       y       z     vdW  Elec       q    Type
REMARK                         _______ _______ _______ _____ _____    ______ ____
ROOT
ATOM      1  O   LIG    1       -0.006   0.018   0.260  0.00  0.00    -0.490 OA
ATOM      2  C   LIG    1       -0.015   1.211   0.042  0.00  0.00    +0.520 C 
ATOM      3  N   LIG    1       -1.184   1.849  -0.167  0.00  0.00    -0.640 N 
ATOM      4  C   LIG    1       -1.219   3.294  -0.438  0.00  0.00    +0.310 C 
ATOM      5  C   LIG    1       -2.068   3.533  -1.692  0.00  0.00    +0.270 C 
ATOM      6  N   LIG    1       -3.389   2.918  -1.511  0.00  0.00    -0.510 N 
ATOM      7  C   LIG    1       -3.251   1.460  -1.399  0.00  0.00    +0.260 C 
ATOM      8  H   LIG    1       -3.972   3.138  -2.304  0.00  0.00    +0.440 HD
ATOM      9  H   LIG    1       -3.815   3.280  -0.671  0.00  0.00    +0.430 HD
ATOM     10  C   LIG    1       -2.460   1.118  -0.137  0.00  0.00    +0.330 C 
ENDROOT
BRANCH   2  11
ATOM     11  C   LIG    1        1.280   1.980   0.001  0.00  0.00    +0.220 C 
BRANCH  11  12
ATOM     12  N   LIG    1        2.408   1.044   0.105  0.00  0.00    -0.520 NA
ATOM     13  C   LIG    1        3.674   1.765   0.306  0.00  0.00    +0.160 C 
ATOM     14  C   LIG    1        4.811   0.753   0.470  0.00  0.00    +0.230 C 
ATOM     15  O   LIG    1        4.850  -0.101  -0.676  0.00  0.00    -0.380 OA
ATOM     16  C   LIG    1        3.634  -0.819  -0.902  0.00  0.00    +0.220 C 
ATOM     17  C   LIG    1        2.485   0.177  -1.079  0.00  0.00    +0.150 C 
ENDBRANCH  11  12
ENDBRANCH   2  11
TORSDOF 2
ENDMDL
MODEL      342
REMARK  Name = ZINC000019702177
REMARK                            x       y       z     vdW  Elec       q    Type
REMARK                         _______ _______ _______ _____ _____    ______ ____
ROOT
ATOM      1  C   LIG    1        1.280   1.980   0.001  0.00  0.00    +0.240 C 
ENDROOT
BRANCH   1   3
ATOM      2  O   LIG    1       -0.006   0.018   0.260  0.00  0.00    -0.520 OA
ATOM      3  C   LIG    1       -0.015   1.211   0.042  0.00  0.00    +0.520 C 
ATOM      4  N   LIG    1       -1.184   1.849  -0.167  0.00  0.00    -0.610 N 
ATOM      5  C   LIG    1       -1.220   3.295  -0.439  0.00  0.00    +0.250 C 
ATOM      6  C   LIG    1       -2.068   3.530  -1.694  0.00  0.00    +0.220 C 
ATOM      7  O   LIG    1       -3.332   2.882  -1.537  0.00  0.00    -0.370 OA
ATOM      8  C   LIG    1       -3.249   1.461  -1.402  0.00  0.00    +0.220 C 
ATOM      9  C   LIG    1       -2.461   1.119  -0.137  0.00  0.00    +0.270 C 
ENDBRANCH   1   3
BRANCH   1  10
ATOM     10  N   LIG    1        2.408   1.044   0.105  0.00  0.00    -0.520 NA
ATOM     11  C   LIG    1        3.673   1.765   0.308  0.00  0.00    +0.210 C 
ATOM     12  C   LIG    1        4.811   0.755   0.471  0.00  0.00    +0.280 C 
ATOM     13  N   LIG    1        4.895  -0.087  -0.729  0.00  0.00    -0.510 N 
ATOM     14  C   LIG    1        3.633  -0.819  -0.904  0.00  0.00    +0.280 C 
ATOM     15  H   LIG    1        5.653  -0.745  -0.626  0.00  0.00    +0.440 HD
ATOM     16  H   LIG    1        5.061   0.494  -1.537  0.00  0.00    +0.430 HD
ATOM     17  C   LIG    1        2.485   0.177  -1.079  0.00  0.00    +0.210 C 
ENDBRANCH   1  10
TORSDOF 2
ENDMDL
MODEL      343
REMARK  Name = ZINC000216185927
REMARK                            x       y       z     vdW  Elec       q    Type
REMARK                         _______ _______ _______ _____ _____    ______ ____
ROOT
ATOM      1  C   LIG    1       -2.794  -2.566  -0.111  0.00  0.00    +0.180 C 
ENDROOT
BRANCH   1   2
ATOM      2  O   LIG    1       -3.426  -2.203   1.118  0.00  0.00    -0.540 OA
ATOM      3  H   LIG    1       -2.987  -2.554   1.905  0.00  0.00    +0.380 HD
ENDBRANCH   1   2
BRANCH   1   4
ATOM      4  C   LIG    1       -1.358  -2.037  -0.122  0.00  0.00    +0.180 C 
BRANCH   4   5
ATOM      5  O   LIG    1       -0.726  -2.399  -1.351  0.00  0.00    -0.530 OA
ATOM      6  H   LIG    1       -1.166  -2.049  -2.138  0.00  0.00    +0.390 HD
ENDBRANCH   4   5
BRANCH   4   7
ATOM      7  C   LIG    1       -1.376  -0.512   0.012  0.00  0.00    +0.230 C 
BRANCH   7   9
ATOM      8  C   LIG    1       -0.018   1.465   0.010  0.00  0.00    +0.320 C 
ATOM      9  N   LIG    1        0.002  -0.004   0.002  0.00  0.00    -0.380 N 
ATOM     10  C   LIG    1        0.713  -0.491   1.192  0.00  0.00    +0.320 C 
ATOM     11  H   LIG    1        0.474  -0.330  -0.828  0.00  0.00    +0.430 HD
ENDBRANCH   7   9
ENDBRANCH   4   7
ENDBRANCH   1   4
BRANCH   1  12
ATOM     12  C   LIG    1       -2.776  -4.090  -0.245  0.00  0.00    +0.160 C 
BRANCH  12  13
ATOM     13  O   LIG    1       -2.144  -4.453  -1.474  0.00  0.00    -0.530 OA
ATOM     14  H   LIG    1       -2.583  -4.102  -2.261  0.00  0.00    +0.370 HD
ENDBRANCH  12  13
BRANCH  12  15
ATOM     15  C   LIG    1       -4.212  -4.620  -0.234  0.00  0.00    +0.200 C 
BRANCH  15  16
ATOM     16  O   LIG    1       -4.968  -3.967  -1.255  0.00  0.00    -0.540 OA
ATOM     17  H   LIG    1       -4.621  -4.101  -2.148  0.00  0.00    +0.370 HD
ENDBRANCH  15  16
BRANCH  15  18
ATOM     18  C   LIG    1       -4.201  -6.128  -0.493  0.00  0.00    +0.170 C 
BRANCH  18  19
ATOM     19  O   LIG    1       -5.528  -6.642  -0.367  0.00  0.00    -0.560 OA
ATOM     20  H   LIG    1       -5.597  -7.595  -0.519  0.00  0.00    +0.390 HD
ENDBRANCH  18  19
ENDBRANCH  15  18
ENDBRANCH  12  15
ENDBRANCH   1  12
TORSDOF 11
ENDMDL
MODEL      344
REMARK  Name = ZINC000019757708
REMARK                            x       y       z     vdW  Elec       q    Type
REMARK                         _______ _______ _______ _____ _____    ______ ____
ROOT
ATOM      1  N   LIG    1        1.253  -2.850   1.269  0.00  0.00    -0.370 N 
ATOM      2  C   LIG    1        1.310  -4.233   0.782  0.00  0.00    +0.270 C 
ATOM      3  C   LIG    1        2.616  -4.886   1.241  0.00  0.00    +0.100 C 
ATOM      4  C   LIG    1        2.673  -4.878   2.772  0.00  0.00    -0.010 C 
ATOM      5  C   LIG    1        2.538  -3.437   3.271  0.00  0.00    +0.080 C 
ATOM      6  C   LIG    1        1.234  -2.840   2.737  0.00  0.00    +0.270 C 
ATOM      7  H   LIG    1        2.062  -2.345   0.941  0.00  0.00    +0.430 HD
ENDROOT
BRANCH   1  12
ATOM      8  C   LIG    1       -0.018   1.461   0.010  0.00  0.00    +0.350 C 
ATOM      9  N   LIG    1        0.002  -0.004   0.002  0.00  0.00    -0.560 N 
ATOM     10  C   LIG    1        0.007  -0.722  -1.128  0.00  0.00    +0.520 C 
ATOM     11  C   LIG    1        0.028  -2.195  -0.781  0.00  0.00    +0.130 C 
ATOM     12  C   LIG    1        0.035  -2.204   0.761  0.00  0.00    +0.180 C 
ATOM     13  O   LIG    1       -0.004  -0.265  -2.251  0.00  0.00    -0.430 OA
ATOM     14  C   LIG    1        0.023  -0.735   1.124  0.00  0.00    +0.520 C 
ATOM     15  O   LIG    1        0.024  -0.290   2.252  0.00  0.00    -0.430 OA
ENDBRANCH   1  12
BRANCH   4  16
ATOM     16  C   LIG    1        3.991  -5.449   3.229  0.00  0.00    +0.520 C 
ATOM     17  O   LIG    1        4.806  -5.824   2.413  0.00  0.00    -0.530 OA
ATOM     18  N   LIG    1        4.264  -5.541   4.546  0.00  0.00    -0.850 N 
ATOM     19  H   LIG    1        5.113  -5.908   4.840  0.00  0.00    +0.410 HD
ATOM     20  H   LIG    1        3.613  -5.241   5.199  0.00  0.00    +0.400 HD
ENDBRANCH   4  16
TORSDOF 2
ENDMDL
MODEL      345
REMARK  Name = ZINC000005859828
REMARK                            x       y       z     vdW  Elec       q    Type
REMARK                         _______ _______ _______ _____ _____    ______ ____
ROOT
ATOM      1  N   LIG    1       -1.491  -2.014  -0.054  0.00  0.00    -0.380 N 
ATOM      2  H   LIG    1       -0.987  -2.542  -0.750  0.00  0.00    +0.420 HD
ENDROOT
BRANCH   1   3
ATOM      3  C   LIG    1       -1.249  -0.580  -0.256  0.00  0.00    +0.220 C 
BRANCH   3   5
ATOM      4  C   LIG    1       -1.476   1.681   0.784  0.00  0.00    +0.050 C 
ATOM      5  C   LIG    1       -1.897   0.213   0.881  0.00  0.00    +0.210 C 
BRANCH   5   6
ATOM      6  O   LIG    1       -3.319   0.117   0.778  0.00  0.00    -0.540 OA
ATOM      7  H   LIG    1       -3.685   0.534  -0.014  0.00  0.00    +0.390 HD
ENDBRANCH   5   6
ENDBRANCH   3   5
ENDBRANCH   1   3
BRANCH   1   8
ATOM      8  C   LIG    1       -2.929  -2.290  -0.177  0.00  0.00    +0.300 C 
BRANCH   8   9
ATOM      9  C   LIG    1       -3.397  -1.936  -1.590  0.00  0.00    +0.050 C 
BRANCH   9  10
ATOM     10  C   LIG    1       -4.871  -2.219  -1.717  0.00  0.00    +0.520 C 
ATOM     11  O   LIG    1       -5.488  -2.660  -0.770  0.00  0.00    -0.530 OA
ATOM     12  N   LIG    1       -5.505  -1.982  -2.882  0.00  0.00    -0.850 N 
ATOM     13  H   LIG    1       -6.455  -2.164  -2.964  0.00  0.00    +0.410 HD
ATOM     14  H   LIG    1       -5.012  -1.629  -3.640  0.00  0.00    +0.410 HD
ENDBRANCH   9  10
ENDBRANCH   8   9
ENDBRANCH   1   8
BRANCH   1  15
ATOM     15  C   LIG    1       -1.031  -2.404   1.286  0.00  0.00    +0.290 C 
BRANCH  15  16
ATOM     16  C   LIG    1        0.477  -2.170   1.395  0.00  0.00    +0.070 C 
BRANCH  16  17
ATOM     17  C   LIG    1        0.971  -2.687   2.722  0.00  0.00    +0.520 C 
ATOM     18  O   LIG    1        0.193  -3.192   3.503  0.00  0.00    -0.530 OA
ATOM     19  N   LIG    1        2.276  -2.587   3.041  0.00  0.00    -0.840 N 
ATOM     20  H   LIG    1        2.594  -2.920   3.895  0.00  0.00    +0.420 HD
ATOM     21  H   LIG    1        2.898  -2.183   2.416  0.00  0.00    +0.410 HD
ENDBRANCH  16  17
ENDBRANCH  15  16
ENDBRANCH   1  15
TORSDOF 9
ENDMDL
MODEL      346
REMARK  Name = ZINC000001611597
REMARK                            x       y       z     vdW  Elec       q    Type
REMARK                         _______ _______ _______ _____ _____    ______ ____
ROOT
ATOM      1  C   LIG    1       -0.668  -4.406  -1.192  0.00  0.00    +0.040 C 
ENDROOT
BRANCH   1   2
ATOM      2  C   LIG    1       -1.080  -2.934  -1.266  0.00  0.00    +0.080 C 
BRANCH   2   6
ATOM      3  C   LIG    1       -0.018   1.461   0.010  0.00  0.00    +0.370 C 
ATOM      4  N   LIG    1        0.002  -0.004   0.002  0.00  0.00    -0.540 N 
ATOM      5  C   LIG    1       -1.103  -0.776   0.003  0.00  0.00    +0.510 C 
ATOM      6  C   LIG    1       -0.602  -2.207  -0.008  0.00  0.00    +0.230 C 
ATOM      7  N   LIG    1        0.864  -2.061  -0.015  0.00  0.00    -0.670 N 
ATOM      8  H   LIG    1        1.517  -2.778  -0.022  0.00  0.00    +0.450 HD
ATOM      9  O   LIG    1       -2.256  -0.404   0.011  0.00  0.00    -0.440 OA
ATOM     10  C   LIG    1        1.119  -0.741  -0.013  0.00  0.00    +0.530 C 
ATOM     11  S   LIG    1        2.697  -0.076  -0.019  0.00  0.00    -0.520 S 
ENDBRANCH   2   6
ENDBRANCH   1   2
BRANCH   1  12
ATOM     12  C   LIG    1       -1.145  -5.134  -2.451  0.00  0.00    +0.290 C 
BRANCH  12  13
ATOM     13  N   LIG    1       -0.751  -6.543  -2.380  0.00  0.00    -0.700 N 
ATOM     14  H   LIG    1       -0.262  -6.871  -1.609  0.00  0.00    +0.440 HD
ATOM     15  C   LIG    1       -1.071  -7.395  -3.400  0.00  0.00    +0.740 C 
BRANCH  15  16
ATOM     16  N   LIG    1       -0.713  -8.676  -3.336  0.00  0.00    -0.790 N 
ATOM     17  H   LIG    1       -0.224  -9.005  -2.565  0.00  0.00    +0.440 HD
ATOM     18  H   LIG    1       -0.940  -9.281  -4.059  0.00  0.00    +0.440 HD
ENDBRANCH  15  16
BRANCH  15  19
ATOM     19  N   LIG    1       -1.743  -6.944  -4.458  0.00  0.00    -0.790 N 
ATOM     20  H   LIG    1       -1.970  -7.548  -5.182  0.00  0.00    +0.440 HD
ATOM     21  H   LIG    1       -2.004  -6.011  -4.506  0.00  0.00    +0.440 HD
ENDBRANCH  15  19
ENDBRANCH  12  13
ENDBRANCH   1  12
TORSDOF 6
ENDMDL
MODEL      347
REMARK  Name = ZINC000085863775
REMARK                            x       y       z     vdW  Elec       q    Type
REMARK                         _______ _______ _______ _____ _____    ______ ____
ROOT
ATOM      1  C   LIG    1       -0.599   0.405   2.153  0.00  0.00    +0.170 C 
ATOM      2  C   LIG    1       -0.271  -0.520   1.009  0.00  0.00    +0.210 A 
ATOM      3  C   LIG    1       -1.196  -0.779   0.056  0.00  0.00    -0.040 A 
ATOM      4  C   LIG    1       -0.859  -1.655  -1.011  0.00  0.00    +0.550 A 
ATOM      5  N   LIG    1        0.370  -2.207  -1.051  0.00  0.00    -0.650 N 
ATOM      6  H   LIG    1        0.606  -2.806  -1.777  0.00  0.00    +0.440 HD
ATOM      7  C   LIG    1        1.271  -1.932  -0.090  0.00  0.00    +0.700 A 
ATOM      8  O   LIG    1        2.375  -2.439  -0.142  0.00  0.00    -0.520 OA
ATOM      9  O   LIG    1       -1.674  -1.905  -1.881  0.00  0.00    -0.520 OA
ATOM     10  N   LIG    1        0.971  -1.101   0.924  0.00  0.00    -0.630 N 
ATOM     11  H   LIG    1        1.635  -0.916   1.607  0.00  0.00    +0.440 HD
ENDROOT
BRANCH   3  12
ATOM     12  N   LIG    1       -2.472  -0.190   0.121  0.00  0.00    -0.630 N 
ATOM     13  C   LIG    1       -2.640   1.265  -0.009  0.00  0.00    +0.320 C 
ATOM     14  C   LIG    1       -3.719   1.538  -1.062  0.00  0.00    +0.250 C 
ATOM     15  N   LIG    1       -4.946   0.815  -0.704  0.00  0.00    -0.500 N 
ATOM     16  C   LIG    1       -4.705  -0.633  -0.750  0.00  0.00    +0.260 C 
ATOM     17  H   LIG    1       -5.677   1.053  -1.357  0.00  0.00    +0.430 HD
ATOM     18  H   LIG    1       -5.229   1.078   0.228  0.00  0.00    +0.430 HD
ATOM     19  C   LIG    1       -3.676  -1.013   0.314  0.00  0.00    +0.320 C 
ENDBRANCH   3  12
TORSDOF 1
ENDMDL
MODEL      348
REMARK  Name = ZINC000020181677
REMARK                            x       y       z     vdW  Elec       q    Type
REMARK                         _______ _______ _______ _____ _____    ______ ____
ROOT
ATOM      1  N   LIG    1       -1.532  -2.279   0.004  0.00  0.00    -1.010 NA
ATOM      2  C   LIG    1       -1.462  -3.023  -1.263  0.00  0.00    +0.310 C 
ATOM      3  C   LIG    1       -0.231  -3.935  -1.224  0.00  0.00    +0.190 C 
ATOM      4  N   LIG    1       -0.282  -4.770  -0.016  0.00  0.00    -0.530 NA
ATOM      5  C   LIG    1       -0.220  -3.949   1.201  0.00  0.00    +0.170 C 
ATOM      6  C   LIG    1       -1.444  -3.037   1.262  0.00  0.00    +0.310 C 
ENDROOT
BRANCH   1   7
ATOM      7  S   LIG    1       -1.700  -0.632   0.015  0.00  0.00    +2.600 S 
ATOM      8  O   LIG    1       -2.349  -0.338  -1.214  0.00  0.00    -0.940 OA
ATOM      9  O   LIG    1       -2.325  -0.351   1.259  0.00  0.00    -0.940 OA
BRANCH   7  11
ATOM     10  C   LIG    1       -0.019   1.526   0.010  0.00  0.00    +0.100 C 
ATOM     11  C   LIG    1        0.002  -0.004   0.002  0.00  0.00    -0.370 C 
ENDBRANCH   7  11
ENDBRANCH   1   7
BRANCH   4  12
ATOM     12  C   LIG    1        0.787  -5.777  -0.027  0.00  0.00    +0.180 C 
BRANCH  12  13
ATOM     13  C   LIG    1        0.557  -6.777   1.107  0.00  0.00    +0.270 C 
BRANCH  13  14
ATOM     14  N   LIG    1        1.626  -7.785   1.096  0.00  0.00    -0.640 N 
ATOM     15  H   LIG    1        2.518  -7.330   1.225  0.00  0.00    +0.430 HD
ATOM     16  H   LIG    1        1.621  -8.271   0.212  0.00  0.00    +0.440 HD
ATOM     17  H   LIG    1        1.474  -8.445   1.844  0.00  0.00    +0.440 HD
ENDBRANCH  13  14
ENDBRANCH  12  13
ENDBRANCH   4  12
TORSDOF 5
ENDMDL
MODEL      349
REMARK  Name = ZINC000002562523
REMARK                            x       y       z     vdW  Elec       q    Type
REMARK                         _______ _______ _______ _____ _____    ______ ____
ROOT
ATOM      1  CA  ARG A  1       -3.465  -1.164  -1.134  0.00  0.00    +0.180 C 
ENDROOT
BRANCH   1   4
ATOM      2  N   ALA A  2       -1.372  -0.511   0.012  0.00  0.00    -0.650 N 
ATOM      3  H   ALA A  2       -1.794  -0.752   0.852  0.00  0.00    +0.410 HD
ATOM      4  C   ARG A  1       -2.051  -0.643  -1.145  0.00  0.00    +0.480 C 
ATOM      5  O   ARG A  1       -1.524  -0.341  -2.194  0.00  0.00    -0.540 OA
BRANCH   2   7
ATOM      6  CB  ALA A  2       -0.019   1.526   0.010  0.00  0.00    +0.050 C 
ATOM      7  CA  ALA A  2        0.002  -0.004   0.002  0.00  0.00    +0.150 C 
BRANCH   7   8
ATOM      8  C   ALA A  2        0.731  -0.503   1.223  0.00  0.00    +0.490 C 
ATOM      9  OXT ALA A  2        1.937  -0.350   1.318  0.00  0.00    -0.660 OA
ATOM     10  O   ALA A  2        0.115  -1.060   2.115  0.00  0.00    -0.690 OA
ENDBRANCH   7   8
ENDBRANCH   2   7
ENDBRANCH   1   4
BRANCH   1  11
ATOM     11  N   ARG A  1       -4.139  -0.778  -2.381  0.00  0.00    -0.620 N 
ATOM     12  H1  ARG A  1       -3.642  -1.169  -3.167  0.00  0.00    +0.440 HD
ATOM     13  H2  ARG A  1       -4.152   0.228  -2.458  0.00  0.00    +0.450 HD
ATOM     14  H3  ARG A  1       -5.085  -1.127  -2.374  0.00  0.00    +0.430 HD
ENDBRANCH   1  11
BRANCH   1  15
ATOM     15  CB  ARG A  1       -3.445  -2.690  -1.017  0.00  0.00    +0.100 C 
BRANCH  15  16
ATOM     16  CG  ARG A  1       -4.877  -3.210  -0.880  0.00  0.00    +0.030 C 
BRANCH  16  17
ATOM     17  CD  ARG A  1       -4.857  -4.735  -0.763  0.00  0.00    +0.290 C 
BRANCH  17  18
ATOM     18  NE  ARG A  1       -6.229  -5.233  -0.632  0.00  0.00    -0.700 N 
ATOM     19  HE  ARG A  1       -6.973  -4.610  -0.631  0.00  0.00    +0.440 HD
ATOM     20  CZ  ARG A  1       -6.460  -6.575  -0.512  0.00  0.00    +0.740 C 
BRANCH  20  21
ATOM     21  NH2 ARG A  1       -7.707  -7.028  -0.394  0.00  0.00    -0.790 N 
ATOM     22 HH21 ARG A  1       -8.451  -6.405  -0.393  0.00  0.00    +0.440 HD
ATOM     23 HH22 ARG A  1       -7.872  -7.980  -0.309  0.00  0.00    +0.440 HD
ENDBRANCH  20  21
BRANCH  20  24
ATOM     24  NH1 ARG A  1       -5.439  -7.430  -0.514  0.00  0.00    -0.790 N 
ATOM     25 HH11 ARG A  1       -5.603  -8.383  -0.429  0.00  0.00    +0.440 HD
ATOM     26 HH12 ARG A  1       -4.531  -7.101  -0.601  0.00  0.00    +0.440 HD
ENDBRANCH  20  24
ENDBRANCH  17  18
ENDBRANCH  16  17
ENDBRANCH  15  16
ENDBRANCH   1  15
TORSDOF 10
ENDMDL
MODEL      350
REMARK  Name = ZINC000002560000
REMARK                            x       y       z     vdW  Elec       q    Type
REMARK                         _______ _______ _______ _____ _____    ______ ____
ROOT
ATOM      1  C   LIG    1       -0.595  -2.648  -2.481  0.00  0.00    +0.060 C 
ENDROOT
BRANCH   1   2
ATOM      2  C   LIG    1        0.020  -2.136  -1.177  0.00  0.00    +0.250 C 
BRANCH   2   5
ATOM      3  C   LIG    1       -0.018   1.503   0.010  0.00  0.00    +0.110 C 
ATOM      4  C   LIG    1        0.002  -0.004   0.002  0.00  0.00    +0.520 C 
ATOM      5  N   LIG    1        0.000  -0.672  -1.169  0.00  0.00    -0.720 N 
ATOM      6  H   LIG    1       -0.015  -0.182  -2.006  0.00  0.00    +0.400 HD
ATOM      7  O   LIG    1        0.020  -0.616   1.049  0.00  0.00    -0.540 OA
ENDBRANCH   2   5
BRANCH   2   8
ATOM      8  C   LIG    1        1.443  -2.620  -1.069  0.00  0.00    +0.500 C 
ATOM      9  O   LIG    1        2.351  -1.820  -0.993  0.00  0.00    -0.520 OA
ATOM     10  N   LIG    1        1.707  -3.942  -1.057  0.00  0.00    -0.850 N 
ATOM     11  H   LIG    1        2.623  -4.253  -0.988  0.00  0.00    +0.410 HD
ATOM     12  H   LIG    1        0.980  -4.582  -1.118  0.00  0.00    +0.400 HD
ENDBRANCH   2   8
ENDBRANCH   1   2
BRANCH   1  13
ATOM     13  C   LIG    1       -2.075  -2.263  -2.532  0.00  0.00    +0.050 C 
BRANCH  13  14
ATOM     14  C   LIG    1       -2.690  -2.774  -3.837  0.00  0.00    +0.270 C 
BRANCH  14  15
ATOM     15  N   LIG    1       -4.107  -2.405  -3.886  0.00  0.00    -0.690 N 
ATOM     16  H   LIG    1       -4.505  -1.911  -3.152  0.00  0.00    +0.440 HD
ATOM     17  C   LIG    1       -4.869  -2.758  -4.966  0.00  0.00    +0.740 C 
BRANCH  17  18
ATOM     18  N   LIG    1       -6.157  -2.423  -5.010  0.00  0.00    -0.790 N 
ATOM     19  H   LIG    1       -6.555  -1.929  -4.277  0.00  0.00    +0.440 HD
ATOM     20  H   LIG    1       -6.697  -2.674  -5.776  0.00  0.00    +0.440 HD
ENDBRANCH  17  18
BRANCH  17  21
ATOM     21  N   LIG    1       -4.322  -3.437  -5.973  0.00  0.00    -0.790 N 
ATOM     22  H   LIG    1       -4.862  -3.688  -6.739  0.00  0.00    +0.440 HD
ATOM     23  H   LIG    1       -3.384  -3.682  -5.940  0.00  0.00    +0.440 HD
ENDBRANCH  17  21
ENDBRANCH  14  15
ENDBRANCH  13  14
ENDBRANCH   1  13
TORSDOF 8
ENDMDL
MODEL      351
REMARK  Name = ZINC000020256111
REMARK                            x       y       z     vdW  Elec       q    Type
REMARK                         _______ _______ _______ _____ _____    ______ ____
ROOT
ATOM      1  C   LIG    1       -0.699   1.479   1.216  0.00  0.00    +0.160 C 
ATOM      2  C   LIG    1       -2.135   0.948   1.228  0.00  0.00    +0.040 C 
ATOM      3  C   LIG    1       -2.862   1.468   2.471  0.00  0.00    +0.050 C 
ATOM      4  C   LIG    1       -2.147   0.958   3.726  0.00  0.00    +0.300 C 
ATOM      5  N   LIG    1       -0.731   1.341   3.652  0.00  0.00    -1.000 NA
ATOM      6  C   LIG    1        0.040   0.970   2.458  0.00  0.00    +0.300 C 
ENDROOT
BRANCH   1   7
ATOM      7  N   LIG    1       -0.012   1.005   0.008  0.00  0.00    -0.630 N 
ATOM      8  H   LIG    1       -0.500   1.339  -0.810  0.00  0.00    +0.440 HD
ATOM      9  H   LIG    1        0.935   1.354   0.000  0.00  0.00    +0.440 HD
ATOM     10  H   LIG    1        0.002  -0.004   0.002  0.00  0.00    +0.430 HD
ENDBRANCH   1   7
BRANCH   5  11
ATOM     11  S   LIG    1       -0.016   2.175   4.892  0.00  0.00    +2.780 S 
ATOM     12  O   LIG    1       -1.063   2.841   5.583  0.00  0.00    -0.950 OA
ATOM     13  O   LIG    1        1.099   2.853   4.329  0.00  0.00    -0.960 OA
BRANCH  11  14
ATOM     14  N   LIG    1        0.601   1.054   5.944  0.00  0.00    -1.010 NA
ATOM     15  C   LIG    1       -0.211   0.532   7.055  0.00  0.00    +0.270 C 
ATOM     16  C   LIG    1       -0.143  -0.999   7.025  0.00  0.00    +0.210 C 
ATOM     17  O   LIG    1        1.226  -1.410   6.990  0.00  0.00    -0.370 OA
ATOM     18  C   LIG    1        1.937  -0.980   5.827  0.00  0.00    +0.210 C 
ATOM     19  C   LIG    1        1.974   0.548   5.793  0.00  0.00    +0.270 C 
ENDBRANCH  11  14
ENDBRANCH   5  11
TORSDOF 3
ENDMDL
MODEL      352
REMARK  Name = ZINC000020268547
REMARK                            x       y       z     vdW  Elec       q    Type
REMARK                         _______ _______ _______ _____ _____    ______ ____
ROOT
ATOM      1  O   LIG    1        0.144   0.006  -0.007  0.00  0.00    -0.490 OA
ATOM      2  C   LIG    1       -0.014   1.209   0.009  0.00  0.00    +0.540 C 
ATOM      3  N   LIG    1       -1.260   1.724   0.012  0.00  0.00    -0.640 N 
ATOM      4  C   LIG    1       -1.478   3.175  -0.094  0.00  0.00    +0.310 C 
ATOM      5  C   LIG    1       -2.503   3.433  -1.203  0.00  0.00    +0.270 C 
ATOM      6  N   LIG    1       -3.719   2.655  -0.934  0.00  0.00    -0.510 N 
ATOM      7  C   LIG    1       -3.419   1.220  -0.999  0.00  0.00    +0.270 C 
ATOM      8  H   LIG    1       -4.421   2.882  -1.623  0.00  0.00    +0.440 HD
ATOM      9  H   LIG    1       -4.066   2.884  -0.015  0.00  0.00    +0.430 HD
ATOM     10  C   LIG    1       -2.439   0.852   0.114  0.00  0.00    +0.320 C 
ENDROOT
BRANCH   2  11
ATOM     11  C   LIG    1        1.181   2.126   0.018  0.00  0.00    +0.000 C 
ATOM     12  C   LIG    1        1.712   2.315  -1.414  0.00  0.00    +0.100 C 
ATOM     13  C   LIG    1        3.109   2.963  -1.342  0.00  0.00    -0.310 C 
ATOM     14  S   LIG    1        3.797   2.432   0.267  0.00  0.00    +2.400 S 
ATOM     15  O   LIG    1        3.981   3.570   1.099  0.00  0.00    -0.920 OA
ATOM     16  O   LIG    1        4.878   1.536   0.045  0.00  0.00    -0.920 OA
ATOM     17  C   LIG    1        2.333   1.489   0.838  0.00  0.00    -0.280 C 
ENDBRANCH   2  11
TORSDOF 1
ENDMDL
MODEL      353
REMARK  Name = ZINC000020268549
REMARK                            x       y       z     vdW  Elec       q    Type
REMARK                         _______ _______ _______ _____ _____    ______ ____
ROOT
ATOM      1  O   LIG    1        0.139   0.006  -0.006  0.00  0.00    -0.500 OA
ATOM      2  C   LIG    1       -0.014   1.209   0.009  0.00  0.00    +0.540 C 
ATOM      3  N   LIG    1       -1.257   1.730   0.013  0.00  0.00    -0.630 N 
ATOM      4  C   LIG    1       -1.469   3.182  -0.092  0.00  0.00    +0.310 C 
ATOM      5  C   LIG    1       -2.494   3.444  -1.201  0.00  0.00    +0.270 C 
ATOM      6  N   LIG    1       -3.714   2.672  -0.931  0.00  0.00    -0.510 N 
ATOM      7  C   LIG    1       -3.420   1.235  -0.996  0.00  0.00    +0.270 C 
ATOM      8  H   LIG    1       -4.415   2.901  -1.619  0.00  0.00    +0.440 HD
ATOM      9  H   LIG    1       -4.059   2.902  -0.011  0.00  0.00    +0.430 HD
ATOM     10  C   LIG    1       -2.441   0.862   0.116  0.00  0.00    +0.320 C 
ENDROOT
BRANCH   2  11
ATOM     11  C   LIG    1        1.185   2.121   0.017  0.00  0.00    +0.020 C 
ATOM     12  C   LIG    1        2.327   1.467   0.814  0.00  0.00    +0.110 C 
ATOM     13  C   LIG    1        3.608   2.284   0.505  0.00  0.00    -0.300 C 
ATOM     14  S   LIG    1        3.478   2.562  -1.302  0.00  0.00    +2.400 S 
ATOM     15  O   LIG    1        4.124   1.498  -1.989  0.00  0.00    -0.920 OA
ATOM     16  O   LIG    1        3.824   3.908  -1.597  0.00  0.00    -0.920 OA
ATOM     17  C   LIG    1        1.667   2.356  -1.429  0.00  0.00    -0.310 C 
ENDBRANCH   2  11
TORSDOF 1
ENDMDL
MODEL      354
REMARK  Name = ZINC000020281999
REMARK                            x       y       z     vdW  Elec       q    Type
REMARK                         _______ _______ _______ _____ _____    ______ ____
ROOT
ATOM      1  C   LIG    1       -0.018   1.461   0.010  0.00  0.00    +0.350 C 
ATOM      2  N   LIG    1        0.001  -0.004   0.002  0.00  0.00    -0.390 N 
ATOM      3  C   LIG    1       -0.090  -0.790  -1.098  0.00  0.00    +0.340 A 
ATOM      4  C   LIG    1       -0.036  -2.088  -0.716  0.00  0.00    -0.760 A 
ATOM      5  C   LIG    1        0.093  -2.120   0.676  0.00  0.00    +0.100 A 
ATOM      6  C   LIG    1        0.120  -0.812   1.111  0.00  0.00    -0.050 A 
ENDROOT
BRANCH   6   7
ATOM      7  C   LIG    1        0.244  -0.362   2.501  0.00  0.00    +0.590 C 
ATOM      8  O   LIG    1        0.165   0.823   2.767  0.00  0.00    -0.540 OA
ATOM      9  N   LIG    1        0.447  -1.261   3.485  0.00  0.00    -0.840 N 
ATOM     10  H   LIG    1        0.456  -0.973   4.411  0.00  0.00    +0.420 HD
ATOM     11  H   LIG    1        0.583  -2.196   3.266  0.00  0.00    +0.400 HD
ENDBRANCH   6   7
BRANCH   4  12
ATOM     12  S   LIG    1       -0.115  -3.488  -1.782  0.00  0.00    +2.730 S 
ATOM     13  O   LIG    1       -0.777  -3.057  -2.963  0.00  0.00    -0.940 OA
ATOM     14  O   LIG    1       -0.573  -4.573  -0.987  0.00  0.00    -0.950 OA
BRANCH  12  15
ATOM     15  N   LIG    1        1.438  -3.856  -2.224  0.00  0.00    -1.120 NA
ATOM     16  H   LIG    1        1.711  -3.772  -3.151  0.00  0.00    +0.430 HD
BRANCH  15  17
ATOM     17  C   LIG    1        2.400  -4.307  -1.215  0.00  0.00    +0.280 C 
BRANCH  17  18
ATOM     18  C   LIG    1        3.614  -4.927  -1.909  0.00  0.00    +0.260 C 
BRANCH  18  19
ATOM     19  N   LIG    1        4.578  -5.379  -0.897  0.00  0.00    -0.630 N 
ATOM     20  H   LIG    1        5.379  -5.788  -1.355  0.00  0.00    +0.440 HD
ATOM     21  H   LIG    1        4.143  -6.068  -0.302  0.00  0.00    +0.440 HD
ATOM     22  H   LIG    1        4.875  -4.592  -0.340  0.00  0.00    +0.440 HD
ENDBRANCH  18  19
ENDBRANCH  17  18
ENDBRANCH  15  17
ENDBRANCH  12  15
ENDBRANCH   4  12
TORSDOF 6
ENDMDL
