MODEL        1
REMARK  Name = ZINC000034979053
REMARK                            x       y       z     vdW  Elec       q    Type
REMARK                         _______ _______ _______ _____ _____    ______ ____
ROOT
ATOM      1  C   LIG    1       -0.018   1.465   0.010  0.00  0.00    +0.320 C 
ATOM      2  N   LIG    1        0.002  -0.004   0.002  0.00  0.00    -0.370 N 
ATOM      3  C   LIG    1       -1.377  -0.483  -0.050  0.00  0.00    +0.260 C 
ATOM      4  C   LIG    1       -1.415  -1.819  -0.759  0.00  0.00    +0.070 C 
ATOM      5  C   LIG    1       -1.327  -2.953   0.279  0.00  0.00    +0.300 C 
ATOM      6  N   LIG    1       -0.368  -2.618   1.351  0.00  0.00    -1.000 NA
ATOM      7  C   LIG    1        0.906  -1.984   1.081  0.00  0.00    +0.330 C 
ATOM      8  C   LIG    1        0.741  -0.446   1.122  0.00  0.00    +0.240 C 
ATOM      9  H   LIG    1        0.477  -0.310  -0.834  0.00  0.00    +0.420 HD
ENDROOT
BRANCH   6  10
ATOM     10  S   LIG    1       -0.762  -2.982   2.918  0.00  0.00    +2.610 S 
ATOM     11  O   LIG    1       -2.183  -2.984   2.930  0.00  0.00    -0.920 OA
ATOM     12  O   LIG    1       -0.024  -2.046   3.691  0.00  0.00    -0.920 OA
BRANCH  10  13
ATOM     13  C   LIG    1       -0.120  -4.660   3.168  0.00  0.00    -0.370 C 
BRANCH  13  14
ATOM     14  C   LIG    1       -0.426  -5.116   4.596  0.00  0.00    +0.310 C 
BRANCH  14  15
ATOM     15  N   LIG    1        0.094  -6.475   4.799  0.00  0.00    -0.630 N 
ATOM     16  H   LIG    1        1.092  -6.479   4.651  0.00  0.00    +0.440 HD
ATOM     17  H   LIG    1       -0.346  -7.104   4.144  0.00  0.00    +0.440 HD
ATOM     18  H   LIG    1       -0.108  -6.775   5.741  0.00  0.00    +0.450 HD
ENDBRANCH  14  15
ENDBRANCH  13  14
ENDBRANCH  10  13
ENDBRANCH   6  10
TORSDOF 4
ENDMDL
MODEL        2
REMARK  Name = ZINC000034979053
REMARK                            x       y       z     vdW  Elec       q    Type
REMARK                         _______ _______ _______ _____ _____    ______ ____
ROOT
ATOM      1  C   LIG    1       -0.018   1.465   0.010  0.00  0.00    +0.340 C 
ATOM      2  N   LIG    1        0.002  -0.004   0.002  0.00  0.00    -0.370 N 
ATOM      3  C   LIG    1        0.723  -0.492  -1.150  0.00  0.00    +0.240 C 
ATOM      4  C   LIG    1        0.012  -1.741  -1.723  0.00  0.00    +0.060 C 
ATOM      5  C   LIG    1       -0.523  -2.623  -0.571  0.00  0.00    +0.300 C 
ATOM      6  N   LIG    1        0.349  -2.786   0.561  0.00  0.00    -1.000 NA
ATOM      7  C   LIG    1        0.276  -1.791   1.683  0.00  0.00    +0.360 C 
ATOM      8  C   LIG    1        0.753  -0.510   1.147  0.00  0.00    +0.240 C 
ATOM      9  H   LIG    1       -0.939  -0.368   0.009  0.00  0.00    +0.430 HD
ENDROOT
BRANCH   6  10
ATOM     10  S   LIG    1        1.417  -4.051   0.625  0.00  0.00    +2.620 S 
ATOM     11  O   LIG    1        0.823  -5.052  -0.189  0.00  0.00    -0.910 OA
ATOM     12  O   LIG    1        1.625  -4.264   2.014  0.00  0.00    -0.910 OA
BRANCH  10  13
ATOM     13  C   LIG    1        2.925  -3.409  -0.153  0.00  0.00    -0.390 C 
BRANCH  13  14
ATOM     14  C   LIG    1        4.000  -4.497  -0.154  0.00  0.00    +0.310 C 
BRANCH  14  15
ATOM     15  N   LIG    1        5.222  -3.978  -0.784  0.00  0.00    -0.630 N 
ATOM     16  H   LIG    1        5.553  -3.178  -0.267  0.00  0.00    +0.440 HD
ATOM     17  H   LIG    1        5.020  -3.704  -1.734  0.00  0.00    +0.440 HD
ATOM     18  H   LIG    1        5.931  -4.696  -0.785  0.00  0.00    +0.450 HD
ENDBRANCH  14  15
ENDBRANCH  13  14
ENDBRANCH  10  13
ENDBRANCH   6  10
TORSDOF 4
ENDMDL
MODEL        3
REMARK  Name = ZINC000022933404
REMARK                            x       y       z     vdW  Elec       q    Type
REMARK                         _______ _______ _______ _____ _____    ______ ____
ROOT
ATOM      1  C   LIG    1       -0.793   1.071  -0.170  0.00  0.00    +0.330 C 
ATOM      2  N   LIG    1       -0.527  -0.370  -0.071  0.00  0.00    -0.390 N 
ATOM      3  C   LIG    1        0.342  -0.627   1.084  0.00  0.00    +0.260 C 
ATOM      4  C   LIG    1        0.527  -2.138   1.257  0.00  0.00    +0.330 C 
ATOM      5  N   LIG    1        1.021  -2.696  -0.011  0.00  0.00    -0.630 N 
ATOM      6  C   LIG    1        0.300  -2.353  -1.247  0.00  0.00    +0.310 C 
ATOM      7  C   LIG    1        2.104  -3.498  -0.040  0.00  0.00    +0.520 C 
ATOM      8  O   LIG    1        2.685  -3.770   0.989  0.00  0.00    -0.490 OA
ATOM      9  C   LIG    1        0.128  -0.831  -1.301  0.00  0.00    +0.270 C 
ATOM     10  H   LIG    1       -1.399  -0.864   0.050  0.00  0.00    +0.430 HD
ENDROOT
BRANCH   7  11
ATOM     11  C   LIG    1        2.592  -4.058  -1.352  0.00  0.00    +0.230 C 
BRANCH  11  12
ATOM     12  N   LIG    1        3.682  -5.010  -1.102  0.00  0.00    -0.530 NA
ATOM     13  C   LIG    1        4.343  -5.395  -2.357  0.00  0.00    +0.230 C 
ATOM     14  C   LIG    1        5.507  -6.339  -2.049  0.00  0.00    +0.280 C 
ATOM     15  N   LIG    1        5.002  -7.531  -1.355  0.00  0.00    -0.510 N 
ATOM     16  C   LIG    1        4.367  -7.132  -0.092  0.00  0.00    +0.280 C 
ATOM     17  H   LIG    1        5.768  -8.158  -1.163  0.00  0.00    +0.440 HD
ATOM     18  H   LIG    1        4.324  -7.997  -1.940  0.00  0.00    +0.430 HD
ATOM     19  C   LIG    1        3.193  -6.195  -0.384  0.00  0.00    +0.210 C 
ENDBRANCH  11  12
ENDBRANCH   7  11
TORSDOF 2
ENDMDL
MODEL        4
REMARK  Name = ZINC000072344462
REMARK                            x       y       z     vdW  Elec       q    Type
REMARK                         _______ _______ _______ _____ _____    ______ ____
ROOT
ATOM      1  C   LIG    1        0.001   1.472   0.025  0.00  0.00    +0.330 C 
ATOM      2  N   LIG    1        0.015   0.004   0.009  0.00  0.00    -0.390 N 
ATOM      3  C   LIG    1        0.713  -0.490   1.203  0.00  0.00    +0.270 C 
ATOM      4  C   LIG    1        0.629  -2.020   1.246  0.00  0.00    +0.340 C 
ATOM      5  N   LIG    1        1.148  -2.551  -0.024  0.00  0.00    -0.630 N 
ATOM      6  C   LIG    1        0.619  -1.992  -1.278  0.00  0.00    +0.310 C 
ATOM      7  C   LIG    1        2.081  -3.523  -0.038  0.00  0.00    +0.530 C 
ATOM      8  O   LIG    1        2.576  -3.904   1.001  0.00  0.00    -0.490 OA
ATOM      9  C   LIG    1        0.705  -0.464  -1.200  0.00  0.00    +0.270 C 
ATOM     10  H   LIG    1       -0.933  -0.341   0.008  0.00  0.00    +0.430 HD
ENDROOT
BRANCH   7  11
ATOM     11  C   LIG    1        2.510  -4.137  -1.346  0.00  0.00    -0.040 C 
ATOM     12  C   LIG    1        2.746  -5.641  -1.136  0.00  0.00    +0.300 C 
ATOM     13  N   LIG    1        2.627  -6.290  -2.416  0.00  0.00    -0.500 N 
ATOM     14  C   LIG    1        3.937  -6.456  -3.093  0.00  0.00    +0.260 C 
ATOM     15  C   LIG    1        4.833  -5.211  -2.939  0.00  0.00    +0.250 C 
ATOM     16  O   LIG    1        4.149  -3.999  -3.087  0.00  0.00    -0.350 OA
ATOM     17  H   LIG    1        2.023  -5.738  -3.007  0.00  0.00    +0.430 HD
ATOM     18  H   LIG    1        2.210  -7.200  -2.284  0.00  0.00    +0.440 HD
ATOM     19  C   LIG    1        3.707  -3.446  -1.823  0.00  0.00    +0.250 C 
ENDBRANCH   7  11
TORSDOF 1
ENDMDL
MODEL        5
REMARK  Name = ZINC000072344463
REMARK                            x       y       z     vdW  Elec       q    Type
REMARK                         _______ _______ _______ _____ _____    ______ ____
ROOT
ATOM      1  C   LIG    1       -0.018   1.465   0.010  0.00  0.00    +0.330 C 
ATOM      2  N   LIG    1        0.002  -0.004   0.002  0.00  0.00    -0.390 N 
ATOM      3  C   LIG    1        0.709  -0.489   1.194  0.00  0.00    +0.260 C 
ATOM      4  C   LIG    1        0.631  -2.018   1.246  0.00  0.00    +0.340 C 
ATOM      5  N   LIG    1        1.144  -2.555  -0.024  0.00  0.00    -0.630 N 
ATOM      6  C   LIG    1        0.605  -2.005  -1.277  0.00  0.00    +0.310 C 
ATOM      7  C   LIG    1        2.081  -3.523  -0.038  0.00  0.00    +0.540 C 
ATOM      8  O   LIG    1        2.514  -3.965   1.005  0.00  0.00    -0.500 OA
ATOM      9  C   LIG    1        0.686  -0.476  -1.209  0.00  0.00    +0.260 C 
ATOM     10  H   LIG    1       -0.945  -0.352   0.009  0.00  0.00    +0.430 HD
ENDROOT
BRANCH   7  11
ATOM     11  C   LIG    1        2.592  -4.058  -1.352  0.00  0.00    -0.050 C 
ATOM     12  C   LIG    1        3.623  -5.130  -1.095  0.00  0.00    +0.290 C 
ATOM     13  N   LIG    1        4.684  -5.183  -2.124  0.00  0.00    -0.510 N 
ATOM     14  C   LIG    1        4.156  -5.034  -3.490  0.00  0.00    +0.240 C 
ATOM     15  C   LIG    1        2.874  -5.810  -3.682  0.00  0.00    +0.280 C 
ATOM     16  O   LIG    1        1.787  -4.904  -3.447  0.00  0.00    -0.360 OA
ATOM     17  H   LIG    1        5.161  -6.069  -2.055  0.00  0.00    +0.440 HD
ATOM     18  H   LIG    1        5.346  -4.442  -1.947  0.00  0.00    +0.430 HD
ATOM     19  C   LIG    1        1.417  -4.670  -2.154  0.00  0.00    +0.250 C 
ENDBRANCH   7  11
TORSDOF 1
ENDMDL
MODEL        6
REMARK  Name = ZINC000036056723
REMARK                            x       y       z     vdW  Elec       q    Type
REMARK                         _______ _______ _______ _____ _____    ______ ____
ROOT
ATOM      1  C   LIG    1       -0.019   1.526   0.010  0.00  0.00    +0.100 C 
ATOM      2  C   LIG    1        0.002  -0.004   0.002  0.00  0.00    -0.080 C 
ATOM      3  C   LIG    1       -1.419  -0.527  -0.006  0.00  0.00    +0.270 C 
ATOM      4  N   LIG    1       -1.606  -1.923  -0.292  0.00  0.00    -0.540 NA
ATOM      5  C   LIG    1       -0.812  -2.396  -1.440  0.00  0.00    +0.270 C 
ATOM      6  C   LIG    1        0.653  -2.026  -1.233  0.00  0.00    -0.060 C 
ATOM      7  C   LIG    1        1.218  -2.590   0.060  0.00  0.00    +0.270 C 
ATOM      8  N   LIG    1        0.725  -1.954   1.267  0.00  0.00    -0.360 N 
ATOM      9  C   LIG    1       -0.459  -2.554   1.817  0.00  0.00    +0.240 C 
ATOM     10  H   LIG    1        1.435  -2.175   1.949  0.00  0.00    +0.420 HD
ATOM     11  C   LIG    1       -1.506  -2.867   0.793  0.00  0.00    +0.260 C 
ATOM     12  C   LIG    1        0.766  -0.498  -1.234  0.00  0.00    +0.120 C 
ATOM     13  C   LIG    1        0.743  -0.511   1.244  0.00  0.00    +0.280 C 
ENDROOT
BRANCH  12  14
ATOM     14  O   LIG    1        0.176   0.037  -2.420  0.00  0.00    -0.510 OA
ATOM     15  H   LIG    1        0.587  -0.274  -3.239  0.00  0.00    +0.380 HD
ENDBRANCH  12  14
BRANCH  12  16
ATOM     16  C   LIG    1        2.235  -0.080  -1.141  0.00  0.00    +0.250 C 
BRANCH  16  17
ATOM     17  N   LIG    1        2.971  -0.618  -2.293  0.00  0.00    -0.640 N 
ATOM     18  H   LIG    1        3.939  -0.342  -2.232  0.00  0.00    +0.450 HD
ATOM     19  H   LIG    1        2.571  -0.257  -3.146  0.00  0.00    +0.440 HD
ATOM     20  H   LIG    1        2.907  -1.625  -2.292  0.00  0.00    +0.430 HD
ENDBRANCH  16  17
ENDBRANCH  12  16
TORSDOF 3
ENDMDL
MODEL        7
REMARK  Name = ZINC000022924039
REMARK                            x       y       z     vdW  Elec       q    Type
REMARK                         _______ _______ _______ _____ _____    ______ ____
ROOT
ATOM      1  C   LIG    1       -0.019   1.526   0.010  0.00  0.00    +0.110 C 
ATOM      2  C   LIG    1        0.002  -0.004   0.002  0.00  0.00    -0.080 C 
ATOM      3  C   LIG    1       -1.419  -0.527  -0.006  0.00  0.00    +0.260 C 
ATOM      4  N   LIG    1       -1.606  -1.923  -0.292  0.00  0.00    -0.540 NA
ATOM      5  C   LIG    1       -0.812  -2.396  -1.440  0.00  0.00    +0.250 C 
ATOM      6  C   LIG    1        0.653  -2.026  -1.233  0.00  0.00    -0.060 C 
ATOM      7  C   LIG    1        1.218  -2.590   0.060  0.00  0.00    +0.280 C 
ATOM      8  N   LIG    1        0.725  -1.954   1.267  0.00  0.00    -0.360 N 
ATOM      9  C   LIG    1       -0.459  -2.554   1.817  0.00  0.00    +0.240 C 
ATOM     10  H   LIG    1        1.435  -2.175   1.949  0.00  0.00    +0.430 HD
ATOM     11  C   LIG    1       -1.506  -2.867   0.793  0.00  0.00    +0.260 C 
ATOM     12  C   LIG    1        0.766  -0.498  -1.234  0.00  0.00    +0.110 C 
ATOM     13  C   LIG    1        0.743  -0.511   1.244  0.00  0.00    +0.290 C 
ENDROOT
BRANCH  12  14
ATOM     14  O   LIG    1        2.138  -0.107  -1.147  0.00  0.00    -0.530 OA
ATOM     15  H   LIG    1        2.685  -0.428  -1.877  0.00  0.00    +0.390 HD
ENDBRANCH  12  14
BRANCH  12  16
ATOM     16  C   LIG    1        0.135   0.075  -2.504  0.00  0.00    +0.280 C 
BRANCH  16  17
ATOM     17  N   LIG    1        0.751  -0.550  -3.682  0.00  0.00    -0.640 N 
ATOM     18  H   LIG    1        0.334  -0.173  -4.520  0.00  0.00    +0.450 HD
ATOM     19  H   LIG    1        0.599  -1.548  -3.651  0.00  0.00    +0.430 HD
ATOM     20  H   LIG    1        1.742  -0.361  -3.684  0.00  0.00    +0.440 HD
ENDBRANCH  16  17
ENDBRANCH  12  16
TORSDOF 3
ENDMDL
MODEL        8
REMARK  Name = ZINC000022922167
REMARK                            x       y       z     vdW  Elec       q    Type
REMARK                         _______ _______ _______ _____ _____    ______ ____
ROOT
ATOM      1  C   LIG    1        1.978  -3.953  -0.089  0.00  0.00    +0.140 C 
ATOM      2  C   LIG    1        0.558  -4.495   0.138  0.00  0.00    +0.380 C 
ATOM      3  O   LIG    1        0.578  -5.917  -0.086  0.00  0.00    -0.340 OA
ATOM      4  C   LIG    1        0.316  -6.125  -1.485  0.00  0.00    +0.250 C 
ATOM      5  C   LIG    1        0.097  -4.708  -2.065  0.00  0.00    +0.190 C 
ATOM      6  C   LIG    1        1.460  -4.182  -2.543  0.00  0.00    +0.140 C 
ATOM      7  O   LIG    1       -0.293  -3.927  -0.882  0.00  0.00    -0.360 OA
ATOM      8  C   LIG    1        2.491  -4.455  -1.443  0.00  0.00    +0.190 C 
ENDROOT
BRANCH   1  13
ATOM      9  C   LIG    1        2.510   1.563   0.928  0.00  0.00    +0.330 C 
ATOM     10  N   LIG    1        2.567   0.096   0.972  0.00  0.00    -0.390 N 
ATOM     11  C   LIG    1        3.233  -0.405  -0.237  0.00  0.00    +0.280 C 
ATOM     12  C   LIG    1        3.309  -1.933  -0.182  0.00  0.00    +0.210 C 
ATOM     13  N   LIG    1        1.951  -2.485  -0.087  0.00  0.00    -0.550 NA
ATOM     14  C   LIG    1        1.262  -1.972   1.106  0.00  0.00    +0.240 C 
ATOM     15  C   LIG    1        1.203  -0.445   1.040  0.00  0.00    +0.290 C 
ATOM     16  H   LIG    1        3.085  -0.196   1.787  0.00  0.00    +0.430 HD
ENDBRANCH   1  13
BRANCH   6  17
ATOM     17  N   LIG    1        1.380  -2.732  -2.764  0.00  0.00    -0.620 N 
ATOM     18  H   LIG    1        0.767  -2.544  -3.544  0.00  0.00    +0.440 HD
ATOM     19  H   LIG    1        2.300  -2.371  -2.965  0.00  0.00    +0.430 HD
ATOM     20  H   LIG    1        1.016  -2.285  -1.936  0.00  0.00    +0.440 HD
ENDBRANCH   6  17
BRANCH   8  21
ATOM     21  O   LIG    1        2.703  -5.864  -1.327  0.00  0.00    -0.520 OA
ATOM     22  H   LIG    1        3.031  -6.281  -2.135  0.00  0.00    +0.400 HD
ENDBRANCH   8  21
TORSDOF 3
ENDMDL
MODEL        9
REMARK  Name = ZINC000020465104
REMARK                            x       y       z     vdW  Elec       q    Type
REMARK                         _______ _______ _______ _____ _____    ______ ____
ROOT
ATOM      1  C   LIG    1        1.529  -3.939  -0.013  0.00  0.00    +0.200 C 
ATOM      2  C   LIG    1        2.080  -4.476  -1.353  0.00  0.00    +0.150 C 
ATOM      3  O   LIG    1        3.486  -4.701  -1.110  0.00  0.00    -0.360 OA
ATOM      4  C   LIG    1        3.557  -5.268   0.216  0.00  0.00    +0.150 C 
ATOM      5  C   LIG    1        2.521  -4.472   1.045  0.00  0.00    +0.150 C 
ENDROOT
BRANCH   1  10
ATOM      6  C   LIG    1        2.189   1.574   0.946  0.00  0.00    +0.330 C 
ATOM      7  N   LIG    1        2.233   0.106   0.991  0.00  0.00    -0.390 N 
ATOM      8  C   LIG    1        2.809  -0.405  -0.260  0.00  0.00    +0.260 C 
ATOM      9  C   LIG    1        2.873  -1.933  -0.206  0.00  0.00    +0.220 C 
ATOM     10  N   LIG    1        1.518  -2.470  -0.014  0.00  0.00    -0.520 NA
ATOM     11  C   LIG    1        0.919  -1.947   1.222  0.00  0.00    +0.230 C 
ATOM     12  C   LIG    1        0.872  -0.419   1.156  0.00  0.00    +0.270 C 
ATOM     13  H   LIG    1        2.804  -0.189   1.769  0.00  0.00    +0.430 HD
ENDBRANCH   1  10
BRANCH   5  14
ATOM     14  O   LIG    1        3.154  -3.390   1.732  0.00  0.00    -0.550 OA
ATOM     15  H   LIG    1        3.830  -3.668   2.364  0.00  0.00    +0.390 HD
ENDBRANCH   5  14
BRANCH   4  16
ATOM     16  C   LIG    1        4.961  -5.088   0.798  0.00  0.00    +0.210 C 
BRANCH  16  17
ATOM     17  O   LIG    1        5.892  -5.868   0.045  0.00  0.00    -0.560 OA
ATOM     18  H   LIG    1        6.805  -5.801   0.359  0.00  0.00    +0.400 HD
ENDBRANCH  16  17
ENDBRANCH   4  16
BRANCH   2  19
ATOM     19  C   LIG    1        1.888  -3.440  -2.462  0.00  0.00    +0.310 C 
BRANCH  19  20
ATOM     20  N   LIG    1        2.271  -4.028  -3.753  0.00  0.00    -0.640 N 
ATOM     21  H   LIG    1        3.240  -4.309  -3.720  0.00  0.00    +0.440 HD
ATOM     22  H   LIG    1        2.144  -3.345  -4.484  0.00  0.00    +0.440 HD
ATOM     23  H   LIG    1        1.693  -4.833  -3.941  0.00  0.00    +0.440 HD
ENDBRANCH  19  20
ENDBRANCH   2  19
TORSDOF 6
ENDMDL
MODEL       10
REMARK  Name = ZINC000004955833
REMARK                            x       y       z     vdW  Elec       q    Type
REMARK                         _______ _______ _______ _____ _____    ______ ____
ROOT
ATOM      1  C   LIG    1        0.136   2.361   0.031  0.00  0.00    +0.340 C 
ATOM      2  N   LIG    1        0.137   0.893   0.080  0.00  0.00    -0.380 N 
ATOM      3  H   LIG    1       -0.804   0.560   0.223  0.00  0.00    +0.440 HD
ENDROOT
BRANCH   2   4
ATOM      4  C   LIG    1        0.658   0.361  -1.187  0.00  0.00    +0.230 C 
BRANCH   4   5
ATOM      5  C   LIG    1       -0.297   0.727  -2.324  0.00  0.00    +0.170 C 
BRANCH   5   6
ATOM      6  O   LIG    1       -1.584   0.164  -2.065  0.00  0.00    -0.540 OA
ATOM      7  H   LIG    1       -1.584  -0.800  -1.991  0.00  0.00    +0.390 HD
ENDBRANCH   5   6
BRANCH   5   8
ATOM      8  C   LIG    1        0.246   0.173  -3.643  0.00  0.00    +0.220 C 
BRANCH   8   9
ATOM      9  N   LIG    1       -0.610   0.620  -4.751  0.00  0.00    -0.520 NA
ATOM     10  C   LIG    1       -0.888   2.060  -4.654  0.00  0.00    +0.150 C 
ATOM     11  C   LIG    1       -1.731   2.494  -5.856  0.00  0.00    +0.230 C 
ATOM     12  O   LIG    1       -2.928   1.713  -5.900  0.00  0.00    -0.380 OA
ATOM     13  C   LIG    1       -2.694   0.305  -5.995  0.00  0.00    +0.220 C 
ATOM     14  C   LIG    1       -1.861  -0.151  -4.794  0.00  0.00    +0.150 C 
ENDBRANCH   8   9
ENDBRANCH   5   8
ENDBRANCH   4   5
ENDBRANCH   2   4
BRANCH   2  15
ATOM     15  C   LIG    1        0.989   0.441   1.188  0.00  0.00    +0.260 C 
BRANCH  15  16
ATOM     16  C   LIG    1        0.896  -1.081   1.315  0.00  0.00    +0.190 C 
BRANCH  16  17
ATOM     17  O   LIG    1       -0.461  -1.456   1.559  0.00  0.00    -0.550 OA
ATOM     18  H   LIG    1       -0.835  -1.079   2.367  0.00  0.00    +0.410 HD
ENDBRANCH  16  17
BRANCH  16  19
ATOM     19  C   LIG    1        1.772  -1.550   2.479  0.00  0.00    +0.270 C 
BRANCH  19  20
ATOM     20  N   LIG    1        1.777  -3.018   2.527  0.00  0.00    -0.630 N 
ATOM     21  H   LIG    1        0.835  -3.354   2.659  0.00  0.00    +0.440 HD
ATOM     22  H   LIG    1        2.354  -3.327   3.295  0.00  0.00    +0.450 HD
ATOM     23  H   LIG    1        2.146  -3.381   1.661  0.00  0.00    +0.440 HD
ENDBRANCH  19  20
ENDBRANCH  16  19
ENDBRANCH  15  16
ENDBRANCH   2  15
TORSDOF 10
ENDMDL
MODEL       11
REMARK  Name = ZINC000004955833
REMARK                            x       y       z     vdW  Elec       q    Type
REMARK                         _______ _______ _______ _____ _____    ______ ____
ROOT
ATOM      1  C   LIG    1        0.515  -0.996  -1.230  0.00  0.00    +0.320 C 
ATOM      2  N   LIG    1       -0.296  -0.732  -0.034  0.00  0.00    -0.380 N 
ATOM      3  H   LIG    1       -0.605   0.228  -0.042  0.00  0.00    +0.440 HD
ENDROOT
BRANCH   2   4
ATOM      4  C   LIG    1        0.510  -0.977   1.169  0.00  0.00    +0.250 C 
BRANCH   4   5
ATOM      5  C   LIG    1       -0.294  -0.587   2.411  0.00  0.00    +0.160 C 
BRANCH   5   6
ATOM      6  O   LIG    1       -0.650   0.795   2.333  0.00  0.00    -0.550 OA
ATOM      7  H   LIG    1        0.108   1.394   2.284  0.00  0.00    +0.400 HD
ENDBRANCH   5   6
BRANCH   5   8
ATOM      8  C   LIG    1        0.552  -0.826   3.663  0.00  0.00    +0.230 C 
BRANCH   8   9
ATOM      9  N   LIG    1       -0.258  -0.560   4.859  0.00  0.00    -0.520 NA
ATOM     10  C   LIG    1       -1.571  -1.213   4.762  0.00  0.00    +0.140 C 
ATOM     11  C   LIG    1       -2.357  -0.961   6.051  0.00  0.00    +0.230 C 
ATOM     12  O   LIG    1       -2.467   0.449   6.268  0.00  0.00    -0.380 OA
ATOM     13  C   LIG    1       -1.207   1.116   6.369  0.00  0.00    +0.230 C 
ATOM     14  C   LIG    1       -0.409   0.885   5.082  0.00  0.00    +0.160 C 
ENDBRANCH   8   9
ENDBRANCH   5   8
ENDBRANCH   4   5
ENDBRANCH   2   4
BRANCH   2  15
ATOM     15  C   LIG    1       -1.465  -1.622  -0.029  0.00  0.00    +0.240 C 
BRANCH  15  16
ATOM     16  C   LIG    1       -2.370  -1.283  -1.215  0.00  0.00    +0.210 C 
BRANCH  16  17
ATOM     17  O   LIG    1       -2.804   0.074  -1.109  0.00  0.00    -0.550 OA
ATOM     18  H   LIG    1       -3.305   0.265  -0.305  0.00  0.00    +0.410 HD
ENDBRANCH  16  17
BRANCH  16  19
ATOM     19  C   LIG    1       -3.587  -2.210  -1.210  0.00  0.00    +0.270 C 
BRANCH  19  20
ATOM     20  N   LIG    1       -4.394  -1.966  -2.413  0.00  0.00    -0.630 N 
ATOM     21  H   LIG    1       -4.703  -1.005  -2.421  0.00  0.00    +0.440 HD
ATOM     22  H   LIG    1       -5.196  -2.577  -2.409  0.00  0.00    +0.450 HD
ATOM     23  H   LIG    1       -3.837  -2.147  -3.234  0.00  0.00    +0.440 HD
ENDBRANCH  19  20
ENDBRANCH  16  19
ENDBRANCH  15  16
ENDBRANCH   2  15
TORSDOF 10
ENDMDL
MODEL       12
REMARK  Name = ZINC000004955834
REMARK                            x       y       z     vdW  Elec       q    Type
REMARK                         _______ _______ _______ _____ _____    ______ ____
ROOT
ATOM      1  C   LIG    1       -0.037   1.984   0.621  0.00  0.00    +0.320 C 
ATOM      2  N   LIG    1       -0.130   0.535   0.394  0.00  0.00    -0.380 N 
ATOM      3  H   LIG    1        0.246   0.313  -0.515  0.00  0.00    +0.440 HD
ENDROOT
BRANCH   2   4
ATOM      4  C   LIG    1       -1.538   0.119   0.457  0.00  0.00    +0.260 C 
BRANCH   4   5
ATOM      5  C   LIG    1       -2.311   0.761  -0.697  0.00  0.00    +0.200 C 
BRANCH   5   6
ATOM      6  O   LIG    1       -1.822   0.252  -1.939  0.00  0.00    -0.550 OA
ATOM      7  H   LIG    1       -1.911  -0.707  -2.034  0.00  0.00    +0.410 HD
ENDBRANCH   5   6
BRANCH   5   8
ATOM      8  C   LIG    1       -3.799   0.429  -0.559  0.00  0.00    +0.270 C 
BRANCH   8   9
ATOM      9  N   LIG    1       -4.542   1.045  -1.667  0.00  0.00    -0.630 N 
ATOM     10  H   LIG    1       -5.522   0.826  -1.577  0.00  0.00    +0.450 HD
ATOM     11  H   LIG    1       -4.196   0.685  -2.545  0.00  0.00    +0.440 HD
ATOM     12  H   LIG    1       -4.416   2.046  -1.641  0.00  0.00    +0.440 HD
ENDBRANCH   8   9
ENDBRANCH   5   8
ENDBRANCH   4   5
ENDBRANCH   2   4
BRANCH   2  13
ATOM     13  C   LIG    1        0.637  -0.173   1.428  0.00  0.00    +0.250 C 
BRANCH  13  14
ATOM     14  C   LIG    1        2.122   0.165   1.282  0.00  0.00    +0.170 C 
BRANCH  14  15
ATOM     15  O   LIG    1        2.578  -0.240  -0.010  0.00  0.00    -0.550 OA
ATOM     16  H   LIG    1        2.482  -1.186  -0.182  0.00  0.00    +0.390 HD
ENDBRANCH  14  15
BRANCH  14  17
ATOM     17  C   LIG    1        2.921  -0.572   2.359  0.00  0.00    +0.220 C 
BRANCH  17  18
ATOM     18  N   LIG    1        4.330  -0.164   2.288  0.00  0.00    -0.520 NA
ATOM     19  C   LIG    1        4.451   1.298   2.200  0.00  0.00    +0.150 C 
ATOM     20  C   LIG    1        5.933   1.682   2.189  0.00  0.00    +0.230 C 
ATOM     21  O   LIG    1        6.585   1.018   1.103  0.00  0.00    -0.380 OA
ATOM     22  C   LIG    1        6.487  -0.408   1.158  0.00  0.00    +0.220 C 
ATOM     23  C   LIG    1        5.011  -0.813   1.159  0.00  0.00    +0.160 C 
ENDBRANCH  17  18
ENDBRANCH  14  17
ENDBRANCH  13  14
ENDBRANCH   2  13
TORSDOF 10
ENDMDL
MODEL       13
REMARK  Name = ZINC000004955834
REMARK                            x       y       z     vdW  Elec       q    Type
REMARK                         _______ _______ _______ _____ _____    ______ ____
ROOT
ATOM      1  C   LIG    1        0.096  -0.944   1.844  0.00  0.00    +0.340 C 
ATOM      2  N   LIG    1       -0.076  -0.526   0.446  0.00  0.00    -0.380 N 
ATOM      3  H   LIG    1        0.029   0.475   0.379  0.00  0.00    +0.430 HD
ENDROOT
BRANCH   2   4
ATOM      4  C   LIG    1        0.938  -1.182  -0.390  0.00  0.00    +0.250 C 
BRANCH   4   5
ATOM      5  C   LIG    1        2.324  -0.643  -0.028  0.00  0.00    +0.210 C 
BRANCH   5   6
ATOM      6  O   LIG    1        2.662  -1.052   1.299  0.00  0.00    -0.550 OA
ATOM      7  H   LIG    1        2.689  -2.011   1.420  0.00  0.00    +0.410 HD
ENDBRANCH   5   6
BRANCH   5   8
ATOM      8  C   LIG    1        3.358  -1.195  -1.012  0.00  0.00    +0.270 C 
BRANCH   8   9
ATOM      9  N   LIG    1        4.688  -0.677  -0.664  0.00  0.00    -0.630 N 
ATOM     10  H   LIG    1        5.370  -1.041  -1.313  0.00  0.00    +0.450 HD
ATOM     11  H   LIG    1        4.928  -0.966   0.273  0.00  0.00    +0.440 HD
ATOM     12  H   LIG    1        4.681   0.330  -0.714  0.00  0.00    +0.440 HD
ENDBRANCH   8   9
ENDBRANCH   5   8
ENDBRANCH   4   5
ENDBRANCH   2   4
BRANCH   2  13
ATOM     13  C   LIG    1       -1.416  -0.909  -0.018  0.00  0.00    +0.230 C 
BRANCH  13  14
ATOM     14  C   LIG    1       -1.653  -0.339  -1.418  0.00  0.00    +0.160 C 
BRANCH  14  15
ATOM     15  O   LIG    1       -1.610   1.089  -1.364  0.00  0.00    -0.550 OA
ATOM     16  H   LIG    1       -2.273   1.480  -0.780  0.00  0.00    +0.400 HD
ENDBRANCH  14  15
BRANCH  14  17
ATOM     17  C   LIG    1       -3.025  -0.788  -1.926  0.00  0.00    +0.230 C 
BRANCH  17  18
ATOM     18  N   LIG    1       -3.199  -0.351  -3.317  0.00  0.00    -0.520 NA
ATOM     19  C   LIG    1       -2.015  -0.680  -4.125  0.00  0.00    +0.140 C 
ATOM     20  C   LIG    1       -2.262  -0.263  -5.577  0.00  0.00    +0.230 C 
ATOM     21  O   LIG    1       -2.576   1.132  -5.620  0.00  0.00    -0.380 OA
ATOM     22  C   LIG    1       -3.724   1.488  -4.844  0.00  0.00    +0.230 C 
ATOM     23  C   LIG    1       -3.492   1.088  -3.385  0.00  0.00    +0.160 C 
ENDBRANCH  17  18
ENDBRANCH  14  17
ENDBRANCH  13  14
ENDBRANCH   2  13
TORSDOF 10
ENDMDL
MODEL       14
REMARK  Name = ZINC000035609633
REMARK                            x       y       z     vdW  Elec       q    Type
REMARK                         _______ _______ _______ _____ _____    ______ ____
ROOT
ATOM      1  C   LIG    1        0.733  -1.998   1.184  0.00  0.00    +0.261 C 
ATOM      2  N   LIG    1        1.335  -2.669   2.185  0.00  0.00    -0.287 N 
ATOM      3  C   LIG    1        1.974  -1.952   3.300  0.00  0.00    +0.159 C 
ATOM      4  C   LIG    1        1.460  -2.544   4.616  0.00  0.00    +0.150 C 
ATOM      5  N   LIG    1        1.686  -3.995   4.620  0.00  0.00    +0.239 N 
ATOM      6  C   LIG    1        0.887  -4.628   3.564  0.00  0.00    +0.150 C 
ATOM      7  H   LIG    1        2.664  -4.182   4.459  0.00  0.00    +0.204 HD
ATOM      8  C   LIG    1        1.368  -4.139   2.198  0.00  0.00    +0.159 C 
ATOM      9  O   LIG    1        0.207  -2.606   0.276  0.00  0.00    -0.270 OA
ENDROOT
BRANCH   1  10
ATOM     10  C   LIG    1        0.713  -0.491   1.192  0.00  0.00    +0.227 C 
BRANCH  10  12
ATOM     11  C   LIG    1       -0.018   1.465   0.010  0.00  0.00    +0.189 C 
ATOM     12  N   LIG    1        0.002  -0.004   0.002  0.00  0.00    +0.231 N 
ATOM     13  H   LIG    1        0.474  -0.330  -0.828  0.00  0.00    +0.202 HD
ATOM     14  H   LIG    1       -0.945  -0.353   0.009  0.00  0.00    +0.202 HD
ENDBRANCH  10  12
ENDBRANCH   1  10
BRANCH   5  15
ATOM     15  C   LIG    1        1.293  -4.546   5.924  0.00  0.00    +0.159 C 
BRANCH  15  16
ATOM     16  C   LIG    1        1.643  -6.035   5.975  0.00  0.00    +0.206 C 
BRANCH  16  17
ATOM     17  O   LIG    1        3.061  -6.193   5.910  0.00  0.00    -0.390 OA
ATOM     18  H   LIG    1        3.356  -7.113   5.937  0.00  0.00    +0.210 HD
ENDBRANCH  16  17
ENDBRANCH  15  16
ENDBRANCH   5  15
TORSDOF 5
ENDMDL
MODEL       15
REMARK  Name = ZINC000015440565
REMARK                            x       y       z     vdW  Elec       q    Type
REMARK                         _______ _______ _______ _____ _____    ______ ____
ROOT
ATOM      1  C   LIG    1       -2.840   1.435   2.467  0.00  0.00    +0.221 C 
ATOM      2  N   LIG    1       -4.124   1.091   2.691  0.00  0.00    -0.291 N 
ATOM      3  C   LIG    1       -4.854   0.236   1.742  0.00  0.00    +0.158 C 
ATOM      4  C   LIG    1       -5.506  -0.909   2.522  0.00  0.00    +0.150 C 
ATOM      5  N   LIG    1       -6.335  -0.356   3.601  0.00  0.00    +0.239 N 
ATOM      6  C   LIG    1       -5.487   0.350   4.570  0.00  0.00    +0.150 C 
ATOM      7  H   LIG    1       -7.006   0.288   3.211  0.00  0.00    +0.204 HD
ATOM      8  C   LIG    1       -4.832   1.553   3.894  0.00  0.00    +0.158 C 
ATOM      9  O   LIG    1       -2.252   2.136   3.264  0.00  0.00    -0.275 OA
ENDROOT
BRANCH   1  10
ATOM     10  C   LIG    1       -2.135   0.949   1.227  0.00  0.00    +0.146 C 
BRANCH  10  11
ATOM     11  C   LIG    1       -0.699   1.479   1.216  0.00  0.00    +0.137 C 
BRANCH  11  12
ATOM     12  N   LIG    1       -0.012   1.005   0.008  0.00  0.00    +0.219 N 
ATOM     13  H   LIG    1       -0.500   1.339  -0.810  0.00  0.00    +0.199 HD
ATOM     14  H   LIG    1        0.935   1.354   0.000  0.00  0.00    +0.199 HD
ATOM     15  H   LIG    1        0.002  -0.004   0.002  0.00  0.00    +0.199 HD
ENDBRANCH  11  12
ENDBRANCH  10  11
ENDBRANCH   1  10
BRANCH   5  16
ATOM     16  C   LIG    1       -7.044  -1.448   4.280  0.00  0.00    +0.159 C 
BRANCH  16  17
ATOM     17  C   LIG    1       -8.002  -0.865   5.321  0.00  0.00    +0.206 C 
BRANCH  17  18
ATOM     18  O   LIG    1       -9.018  -0.107   4.662  0.00  0.00    -0.390 OA
ATOM     19  H   LIG    1       -9.662   0.294   5.262  0.00  0.00    +0.210 HD
ENDBRANCH  17  18
ENDBRANCH  16  17
ENDBRANCH   5  16
TORSDOF 6
ENDMDL
MODEL       16
REMARK  Name = ZINC000002924334
REMARK                            x       y       z     vdW  Elec       q    Type
REMARK                         _______ _______ _______ _____ _____    ______ ____
ROOT
ATOM      1  C   LIG    1        0.657  -0.234   1.361  0.00  0.00    +0.180 C 
ENDROOT
BRANCH   1   3
ATOM      2  C   LIG    1       -1.558   0.356   0.581  0.00  0.00    +0.210 C 
ATOM      3  N   LIG    1       -0.116   0.447   0.314  0.00  0.00    -0.520 NA
BRANCH   3   4
ATOM      4  C   LIG    1        0.208  -0.091  -1.014  0.00  0.00    +0.160 C 
BRANCH   4   5
ATOM      5  C   LIG    1       -0.419   0.797  -2.091  0.00  0.00    +0.210 C 
BRANCH   5   6
ATOM      6  O   LIG    1        0.184   2.092  -2.050  0.00  0.00    -0.540 OA
ATOM      7  H   LIG    1        1.138   2.087  -2.205  0.00  0.00    +0.390 HD
ENDBRANCH   5   6
BRANCH   5   8
ATOM      8  C   LIG    1       -0.188   0.170  -3.467  0.00  0.00    +0.240 C 
BRANCH   8   9
ATOM      9  N   LIG    1       -0.789   1.023  -4.501  0.00  0.00    -0.630 N 
ATOM     10  H   LIG    1       -0.637   0.610  -5.409  0.00  0.00    +0.440 HD
ATOM     11  H   LIG    1       -0.364   1.937  -4.472  0.00  0.00    +0.440 HD
ATOM     12  H   LIG    1       -1.781   1.108  -4.332  0.00  0.00    +0.440 HD
ENDBRANCH   8   9
ENDBRANCH   5   8
ENDBRANCH   4   5
ENDBRANCH   3   4
ENDBRANCH   1   3
BRANCH   1  13
ATOM     13  C   LIG    1        2.118   0.218   1.291  0.00  0.00    +0.210 C 
BRANCH  13  14
ATOM     14  O   LIG    1        2.196   1.618   1.566  0.00  0.00    -0.540 OA
ATOM     15  H   LIG    1        1.862   1.867   2.439  0.00  0.00    +0.390 HD
ENDBRANCH  13  14
BRANCH  13  16
ATOM     16  C   LIG    1        2.939  -0.552   2.327  0.00  0.00    +0.230 C 
BRANCH  16  17
ATOM     17  N   LIG    1        4.353  -0.168   2.214  0.00  0.00    -0.380 N 
ATOM     18  C   LIG    1        4.822  -0.421   0.845  0.00  0.00    +0.230 C 
ATOM     19  C   LIG    1        6.295  -0.019   0.731  0.00  0.00    +0.260 C 
ATOM     20  O   LIG    1        7.059  -0.752   1.692  0.00  0.00    -0.350 OA
ATOM     21  C   LIG    1        6.625  -0.557   3.040  0.00  0.00    +0.260 C 
ATOM     22  C   LIG    1        5.153  -0.959   3.159  0.00  0.00    +0.250 C 
ATOM     23  H   LIG    1        4.453   0.813   2.428  0.00  0.00    +0.430 HD
ENDBRANCH  16  17
ENDBRANCH  13  16
ENDBRANCH   1  13
TORSDOF 10
ENDMDL
MODEL       17
REMARK  Name = ZINC000002924334
REMARK                            x       y       z     vdW  Elec       q    Type
REMARK                         _______ _______ _______ _____ _____    ______ ____
ROOT
ATOM      1  C   LIG    1       -0.039   1.482  -0.027  0.00  0.00    +0.330 C 
ATOM      2  N   LIG    1       -0.104   0.015  -0.060  0.00  0.00    -0.380 N 
ATOM      3  H   LIG    1       -1.069  -0.278  -0.079  0.00  0.00    +0.440 HD
ENDROOT
BRANCH   2   4
ATOM      4  C   LIG    1        0.550  -0.531   1.137  0.00  0.00    +0.220 C 
BRANCH   4   5
ATOM      5  C   LIG    1       -0.237  -0.118   2.382  0.00  0.00    +0.210 C 
BRANCH   5   6
ATOM      6  O   LIG    1       -1.531  -0.724   2.349  0.00  0.00    -0.540 OA
ATOM      7  H   LIG    1       -1.513  -1.690   2.330  0.00  0.00    +0.390 HD
ENDBRANCH   5   6
BRANCH   5   8
ATOM      8  C   LIG    1        0.510  -0.580   3.634  0.00  0.00    +0.170 C 
BRANCH   8   9
ATOM      9  N   LIG    1       -0.246  -0.184   4.830  0.00  0.00    -0.520 NA
ATOM     10  C   LIG    1       -0.689   1.215   4.733  0.00  0.00    +0.150 C 
ATOM     11  C   LIG    1       -1.522   1.567   5.969  0.00  0.00    +0.220 C 
ATOM     12  O   LIG    1       -0.746   1.325   7.146  0.00  0.00    -0.380 OA
ATOM     13  C   LIG    1       -0.298  -0.028   7.272  0.00  0.00    +0.240 C 
ATOM     14  C   LIG    1        0.547  -0.396   6.049  0.00  0.00    +0.160 C 
ENDBRANCH   8   9
ENDBRANCH   5   8
ENDBRANCH   4   5
ENDBRANCH   2   4
BRANCH   2  15
ATOM     15  C   LIG    1        0.582  -0.479  -1.261  0.00  0.00    +0.260 C 
BRANCH  15  16
ATOM     16  C   LIG    1        0.378  -1.991  -1.380  0.00  0.00    +0.190 C 
BRANCH  16  17
ATOM     17  O   LIG    1       -1.008  -2.269  -1.591  0.00  0.00    -0.550 OA
ATOM     18  H   LIG    1       -1.372  -1.868  -2.392  0.00  0.00    +0.410 HD
ENDBRANCH  16  17
BRANCH  16  19
ATOM     19  C   LIG    1        1.190  -2.524  -2.561  0.00  0.00    +0.270 C 
BRANCH  19  20
ATOM     20  N   LIG    1        0.994  -3.975  -2.675  0.00  0.00    -0.630 N 
ATOM     21  H   LIG    1        1.302  -4.424  -1.825  0.00  0.00    +0.440 HD
ATOM     22  H   LIG    1        1.530  -4.327  -3.454  0.00  0.00    +0.450 HD
ATOM     23  H   LIG    1        0.015  -4.172  -2.824  0.00  0.00    +0.440 HD
ENDBRANCH  19  20
ENDBRANCH  16  19
ENDBRANCH  15  16
ENDBRANCH   2  15
TORSDOF 10
ENDMDL
MODEL       18
REMARK  Name = ZINC000022205855
REMARK                            x       y       z     vdW  Elec       q    Type
REMARK                         _______ _______ _______ _____ _____    ______ ____
ROOT
ATOM      1  C   LIG    1        0.108   1.490   0.043  0.00  0.00    +0.340 C 
ATOM      2  N   LIG    1        0.024   0.024   0.076  0.00  0.00    -0.380 N 
ATOM      3  H   LIG    1       -0.944  -0.257   0.112  0.00  0.00    +0.430 HD
ENDROOT
BRANCH   2   4
ATOM      4  C   LIG    1        0.650  -0.529  -1.133  0.00  0.00    +0.220 C 
BRANCH   4   5
ATOM      5  C   LIG    1       -0.175  -0.135  -2.360  0.00  0.00    +0.210 C 
BRANCH   5   6
ATOM      6  O   LIG    1       -0.102   1.280  -2.548  0.00  0.00    -0.540 OA
ATOM      7  H   LIG    1        0.796   1.612  -2.688  0.00  0.00    +0.390 HD
ENDBRANCH   5   6
BRANCH   5   8
ATOM      8  C   LIG    1        0.381  -0.843  -3.597  0.00  0.00    +0.170 C 
BRANCH   8   9
ATOM      9  N   LIG    1       -0.411  -0.464  -4.775  0.00  0.00    -0.520 NA
ATOM     10  C   LIG    1       -1.851  -0.542  -4.490  0.00  0.00    +0.140 C 
ATOM     11  C   LIG    1       -2.636  -0.083  -5.721  0.00  0.00    +0.230 C 
ATOM     12  O   LIG    1       -2.262  -0.885  -6.845  0.00  0.00    -0.380 OA
ATOM     13  C   LIG    1       -0.866  -0.832  -7.152  0.00  0.00    +0.240 C 
ATOM     14  C   LIG    1       -0.064  -1.299  -5.934  0.00  0.00    +0.160 C 
ENDBRANCH   8   9
ENDBRANCH   5   8
ENDBRANCH   4   5
ENDBRANCH   2   4
BRANCH   2  15
ATOM     15  C   LIG    1        0.725  -0.481   1.264  0.00  0.00    +0.260 C 
BRANCH  15  16
ATOM     16  C   LIG    1        0.502  -1.990   1.385  0.00  0.00    +0.190 C 
BRANCH  16  17
ATOM     17  O   LIG    1       -0.888  -2.252   1.588  0.00  0.00    -0.550 OA
ATOM     18  H   LIG    1       -1.252  -1.845   2.386  0.00  0.00    +0.410 HD
ENDBRANCH  16  17
BRANCH  16  19
ATOM     19  C   LIG    1        1.302  -2.530   2.573  0.00  0.00    +0.270 C 
BRANCH  19  20
ATOM     20  N   LIG    1        1.184  -3.993   2.617  0.00  0.00    -0.630 N 
ATOM     21  H   LIG    1        0.214  -4.250   2.720  0.00  0.00    +0.440 HD
ATOM     22  H   LIG    1        1.711  -4.349   3.400  0.00  0.00    +0.450 HD
ATOM     23  H   LIG    1        1.547  -4.386   1.761  0.00  0.00    +0.440 HD
ENDBRANCH  19  20
ENDBRANCH  16  19
ENDBRANCH  15  16
ENDBRANCH   2  15
TORSDOF 10
ENDMDL
MODEL       19
REMARK  Name = ZINC000022205855
REMARK                            x       y       z     vdW  Elec       q    Type
REMARK                         _______ _______ _______ _____ _____    ______ ____
ROOT
ATOM      1  C   LIG    1       -0.018   1.465   0.010  0.00  0.00    +0.330 C 
ATOM      2  N   LIG    1        0.002  -0.004   0.002  0.00  0.00    -0.380 N 
ATOM      3  H   LIG    1       -0.945  -0.353   0.009  0.00  0.00    +0.440 HD
ENDROOT
BRANCH   2   4
ATOM      4  C   LIG    1        0.713  -0.491   1.192  0.00  0.00    +0.230 C 
BRANCH   4   5
ATOM      5  C   LIG    1       -0.071  -0.103   2.448  0.00  0.00    +0.210 C 
BRANCH   5   6
ATOM      6  O   LIG    1       -1.328  -0.783   2.454  0.00  0.00    -0.540 OA
ATOM      7  H   LIG    1       -1.254  -1.748   2.450  0.00  0.00    +0.390 HD
ENDBRANCH   5   6
BRANCH   5   8
ATOM      8  C   LIG    1        0.729  -0.500   3.691  0.00  0.00    +0.170 C 
BRANCH   8   9
ATOM      9  N   LIG    1       -0.024  -0.128   4.896  0.00  0.00    -0.520 NA
ATOM     10  C   LIG    1       -0.550   1.241   4.788  0.00  0.00    +0.140 C 
ATOM     11  C   LIG    1       -1.375   1.565   6.036  0.00  0.00    +0.220 C 
ATOM     12  O   LIG    1       -0.561   1.388   7.199  0.00  0.00    -0.380 OA
ATOM     13  C   LIG    1       -0.033   0.066   7.336  0.00  0.00    +0.240 C 
ATOM     14  C   LIG    1        0.806  -0.273   6.101  0.00  0.00    +0.160 C 
ENDBRANCH   8   9
ENDBRANCH   5   8
ENDBRANCH   4   5
ENDBRANCH   2   4
BRANCH   2  15
ATOM     15  C   LIG    1        0.690  -0.478  -1.207  0.00  0.00    +0.260 C 
BRANCH  15  16
ATOM     16  C   LIG    1       -0.118  -0.077  -2.443  0.00  0.00    +0.200 C 
BRANCH  16  17
ATOM     17  O   LIG    1       -1.418  -0.665  -2.373  0.00  0.00    -0.550 OA
ATOM     18  H   LIG    1       -1.412  -1.631  -2.338  0.00  0.00    +0.410 HD
ENDBRANCH  16  17
BRANCH  16  19
ATOM     19  C   LIG    1        0.598  -0.571  -3.702  0.00  0.00    +0.270 C 
BRANCH  19  20
ATOM     20  N   LIG    1       -0.112  -0.084  -4.892  0.00  0.00    -0.630 N 
ATOM     21  H   LIG    1       -1.059  -0.433  -4.885  0.00  0.00    +0.440 HD
ATOM     22  H   LIG    1        0.360  -0.409  -5.722  0.00  0.00    +0.450 HD
ATOM     23  H   LIG    1       -0.126   0.925  -4.886  0.00  0.00    +0.440 HD
ENDBRANCH  19  20
ENDBRANCH  16  19
ENDBRANCH  15  16
ENDBRANCH   2  15
TORSDOF 10
ENDMDL
MODEL       20
REMARK  Name = ZINC000084248216
REMARK                            x       y       z     vdW  Elec       q    Type
REMARK                         _______ _______ _______ _____ _____    ______ ____
ROOT
ATOM      1  C   LIG    1        0.628  -2.104  -1.133  0.00  0.00    -0.090 C 
ATOM      2  C   LIG    1       -0.763  -2.770  -1.094  0.00  0.00    +0.360 C 
ATOM      3  N   LIG    1       -0.628  -3.978  -1.946  0.00  0.00    -0.520 N 
ATOM      4  C   LIG    1        0.209  -3.528  -3.087  0.00  0.00    +0.360 C 
ATOM      5  H   LIG    1       -1.533  -4.285  -2.270  0.00  0.00    +0.470 HD
ATOM      6  H   LIG    1       -0.165  -4.718  -1.439  0.00  0.00    +0.420 HD
ATOM      7  C   LIG    1        1.509  -2.696  -0.013  0.00  0.00    +0.360 C 
ATOM      8  N   LIG    1        2.131  -3.903  -0.628  0.00  0.00    -0.520 N 
ATOM      9  H   LIG    1        2.965  -4.163  -0.123  0.00  0.00    +0.470 HD
ATOM     10  H   LIG    1        1.479  -4.673  -0.653  0.00  0.00    +0.420 HD
ATOM     11  C   LIG    1        2.473  -3.466  -2.006  0.00  0.00    +0.360 C 
ATOM     12  C   LIG    1        1.273  -2.607  -2.453  0.00  0.00    -0.090 C 
ENDROOT
BRANCH   1  13
ATOM     13  C   LIG    1        0.547  -0.601  -1.067  0.00  0.00    +0.470 C 
ATOM     14  O   LIG    1        1.193   0.003  -0.243  0.00  0.00    -0.440 OA
BRANCH  13  16
ATOM     15  C   LIG    1       -0.271   1.514  -1.800  0.00  0.00    +0.320 C 
ATOM     16  O   LIG    1       -0.242   0.067  -1.922  0.00  0.00    -0.350 OA
ENDBRANCH  13  16
ENDBRANCH   1  13
BRANCH  12  17
ATOM     17  C   LIG    1        1.671  -1.477  -3.368  0.00  0.00    +0.470 C 
ATOM     18  O   LIG    1        1.086  -1.309  -4.411  0.00  0.00    -0.440 OA
BRANCH  17  19
ATOM     19  O   LIG    1        2.676  -0.657  -3.022  0.00  0.00    -0.350 OA
ATOM     20  C   LIG    1        3.005   0.410  -3.951  0.00  0.00    +0.310 C 
ENDBRANCH  17  19
ENDBRANCH  12  17
TORSDOF 4
ENDMDL
MODEL       21
REMARK  Name = ZINC000022590370
REMARK                            x       y       z     vdW  Elec       q    Type
REMARK                         _______ _______ _______ _____ _____    ______ ____
ROOT
ATOM      1  N   LIG    1       -6.295   0.899   3.715  0.00  0.00    -0.530 NA
ATOM      2  C   LIG    1       -6.934   1.083   2.405  0.00  0.00    +0.180 C 
ATOM      3  C   LIG    1       -8.336   0.471   2.434  0.00  0.00    +0.200 C 
ATOM      4  N   LIG    1       -9.125   1.110   3.496  0.00  0.00    -0.530 NA
ATOM      5  C   LIG    1       -8.486   0.926   4.806  0.00  0.00    +0.190 C 
ATOM      6  C   LIG    1       -7.084   1.539   4.777  0.00  0.00    +0.220 C 
ENDROOT
BRANCH   1   7
ATOM      7  C   LIG    1       -4.917   1.408   3.705  0.00  0.00    +0.210 C 
BRANCH   7   8
ATOM      8  C   LIG    1       -4.200   0.914   2.446  0.00  0.00    +0.270 C 
BRANCH   8   9
ATOM      9  N   LIG    1       -2.822   1.423   2.436  0.00  0.00    -0.500 N 
ATOM     10  H   LIG    1       -2.836   2.432   2.441  0.00  0.00    +0.440 HD
ATOM     11  H   LIG    1       -2.334   1.089   3.253  0.00  0.00    +0.440 HD
BRANCH   9  12
ATOM     12  C   LIG    1       -2.135   0.949   1.227  0.00  0.00    +0.270 C 
BRANCH  12  13
ATOM     13  C   LIG    1       -0.699   1.479   1.216  0.00  0.00    +0.290 C 
BRANCH  13  14
ATOM     14  N   LIG    1       -0.012   1.005   0.008  0.00  0.00    -0.630 N 
ATOM     15  H   LIG    1       -0.500   1.339  -0.810  0.00  0.00    +0.450 HD
ATOM     16  H   LIG    1        0.935   1.354   0.000  0.00  0.00    +0.460 HD
ATOM     17  H   LIG    1        0.002  -0.004   0.002  0.00  0.00    +0.450 HD
ENDBRANCH  13  14
ENDBRANCH  12  13
ENDBRANCH   9  12
ENDBRANCH   8   9
ENDBRANCH   7   8
ENDBRANCH   1   7
BRANCH   4  18
ATOM     18  C   LIG    1      -10.503   0.602   3.506  0.00  0.00    +0.180 C 
BRANCH  18  19
ATOM     19  C   LIG    1      -11.355   1.457   4.446  0.00  0.00    +0.260 C 
BRANCH  19  20
ATOM     20  N   LIG    1      -12.734   0.948   4.457  0.00  0.00    -0.640 N 
ATOM     21  H   LIG    1      -13.115   0.992   3.524  0.00  0.00    +0.440 HD
ATOM     22  H   LIG    1      -13.296   1.512   5.077  0.00  0.00    +0.450 HD
ATOM     23  H   LIG    1      -12.737  -0.009   4.777  0.00  0.00    +0.440 HD
ENDBRANCH  19  20
ENDBRANCH  18  19
ENDBRANCH   4  18
TORSDOF 9
ENDMDL
MODEL       22
REMARK  Name = ZINC000022026428
REMARK                            x       y       z     vdW  Elec       q    Type
REMARK                         _______ _______ _______ _____ _____    ______ ____
ROOT
ATOM      1  O   LIG    1        0.002  -0.004   0.002  0.00  0.00    -0.520 OA
ATOM      2  C   LIG    1       -0.014   1.209   0.009  0.00  0.00    +0.510 C 
ATOM      3  C   LIG    1       -1.322   1.957   0.032  0.00  0.00    +0.090 C 
ATOM      4  C   LIG    1       -2.392   1.094   0.705  0.00  0.00    +0.290 C 
ATOM      5  N   LIG    1       -2.479   1.445   2.128  0.00  0.00    -0.510 N 
ATOM      6  C   LIG    1       -2.350   0.229   2.942  0.00  0.00    +0.260 C 
ATOM      7  C   LIG    1       -1.781   0.592   4.315  0.00  0.00    +0.200 C 
ATOM      8  N   LIG    1       -0.716  -0.355   4.670  0.00  0.00    -0.690 NA
ATOM      9  H   LIG    1       -1.015  -0.975   5.408  0.00  0.00    +0.370 HD
ATOM     10  C   LIG    1        0.515   0.352   5.043  0.00  0.00    +0.200 C 
ATOM     11  C   LIG    1        1.718  -0.345   4.403  0.00  0.00    +0.060 C 
ATOM     12  C   LIG    1        2.516   0.668   3.579  0.00  0.00    +0.250 C 
ATOM     13  N   LIG    1        2.687   0.160   2.211  0.00  0.00    -0.510 N 
ATOM     14  C   LIG    1        3.094   1.260   1.327  0.00  0.00    +0.260 C 
ATOM     15  C   LIG    1        2.393   1.114  -0.025  0.00  0.00    +0.320 C 
ATOM     16  H   LIG    1        1.814  -0.228   1.885  0.00  0.00    +0.430 HD
ATOM     17  H   LIG    1        3.397  -0.557   2.205  0.00  0.00    +0.440 HD
ATOM     18  H   LIG    1       -3.371   1.880   2.313  0.00  0.00    +0.440 HD
ATOM     19  H   LIG    1       -1.737   2.087   2.363  0.00  0.00    +0.420 HD
ATOM     20  N   LIG    1        1.151   1.918   0.001  0.00  0.00    -0.740 N 
ATOM     21  H   LIG    1        1.165   2.888   0.008  0.00  0.00    +0.430 HD
ENDROOT
TORSDOF 0
ENDMDL
MODEL       23
REMARK  Name = ZINC000020465678
REMARK                            x       y       z     vdW  Elec       q    Type
REMARK                         _______ _______ _______ _____ _____    ______ ____
ROOT
ATOM      1  C   LIG    1       -0.167   0.837   2.424  0.00  0.00    +0.170 C 
ATOM      2  O   LIG    1        1.176   1.331   2.228  0.00  0.00    -0.350 OA
ATOM      3  C   LIG    1        1.780   1.319   3.540  0.00  0.00    +0.170 C 
ATOM      4  C   LIG    1        0.669   1.818   4.490  0.00  0.00    +0.200 C 
ATOM      5  C   LIG    1       -0.643   1.491   3.740  0.00  0.00    +0.190 C 
ENDROOT
BRANCH   5   6
ATOM      6  N   LIG    1       -1.397   2.720   3.462  0.00  0.00    -0.370 N 
ATOM      7  C   LIG    1       -0.544   3.660   2.725  0.00  0.00    +0.250 C 
ATOM      8  C   LIG    1       -1.349   4.910   2.362  0.00  0.00    +0.050 C 
ATOM      9  C   LIG    1       -1.855   5.575   3.646  0.00  0.00    +0.050 C 
ATOM     10  C   LIG    1       -2.682   4.562   4.442  0.00  0.00    +0.060 C 
ATOM     11  C   LIG    1       -1.826   3.326   4.728  0.00  0.00    +0.270 C 
ATOM     12  H   LIG    1       -2.209   2.497   2.905  0.00  0.00    +0.410 HD
ENDBRANCH   5   6
BRANCH   4  13
ATOM     13  O   LIG    1        0.790   3.225   4.707  0.00  0.00    -0.550 OA
ATOM     14  H   LIG    1        1.622   3.489   5.123  0.00  0.00    +0.410 HD
ENDBRANCH   4  13
BRANCH   1  15
ATOM     15  C   LIG    1       -1.067   1.264   1.262  0.00  0.00    +0.270 C 
BRANCH  15  16
ATOM     16  N   LIG    1       -0.540   0.711   0.006  0.00  0.00    -0.630 N 
ATOM     17  H   LIG    1       -1.133   0.993  -0.760  0.00  0.00    +0.450 HD
ATOM     18  H   LIG    1        0.395   1.057  -0.147  0.00  0.00    +0.450 HD
ATOM     19  H   LIG    1       -0.520  -0.296   0.064  0.00  0.00    +0.450 HD
ENDBRANCH  15  16
ENDBRANCH   1  15
BRANCH   3  20
ATOM     20  C   LIG    1        2.983   2.265   3.580  0.00  0.00    +0.220 C 
BRANCH  20  21
ATOM     21  O   LIG    1        4.013   1.761   2.728  0.00  0.00    -0.560 OA
ATOM     22  H   LIG    1        4.808   2.311   2.704  0.00  0.00    +0.400 HD
ENDBRANCH  20  21
ENDBRANCH   3  20
TORSDOF 6
ENDMDL
MODEL       24
REMARK  Name = ZINC000012529654
REMARK                            x       y       z     vdW  Elec       q    Type
REMARK                         _______ _______ _______ _____ _____    ______ ____
ROOT
ATOM      1  C   LIG    1       -0.697   1.488   1.214  0.00  0.00    +0.130 C 
ATOM      2  C   LIG    1       -0.599   3.020   1.298  0.00  0.00    +0.210 C 
ATOM      3  C   LIG    1       -0.997   3.439   2.732  0.00  0.00    +0.270 C 
ATOM      4  O   LIG    1        0.235   3.434   3.476  0.00  0.00    -0.310 OA
ATOM      5  C   LIG    1        1.270   3.006   2.570  0.00  0.00    +0.400 C 
ATOM      6  C   LIG    1        1.376   1.476   2.650  0.00  0.00    +0.160 C 
ATOM      7  O   LIG    1        0.808   3.362   1.228  0.00  0.00    -0.370 OA
ATOM      8  C   LIG    1       -0.031   0.883   2.455  0.00  0.00    +0.200 C 
ENDROOT
BRANCH   6   9
ATOM      9  N   LIG    1        2.247   0.986   1.574  0.00  0.00    -0.400 N 
ATOM     10  C   LIG    1        3.645   1.430   1.804  0.00  0.00    +0.290 C 
ATOM     11  C   LIG    1        4.479   0.419   0.978  0.00  0.00    +0.080 C 
ATOM     12  C   LIG    1        3.714  -0.909   1.181  0.00  0.00    +0.090 C 
ATOM     13  C   LIG    1        2.285  -0.493   1.582  0.00  0.00    +0.240 C 
ATOM     14  H   LIG    1        1.919   1.320   0.680  0.00  0.00    +0.390 HD
ENDBRANCH   6   9
BRANCH   1  15
ATOM     15  N   LIG    1       -0.010   1.015   0.005  0.00  0.00    -0.640 N 
ATOM     16  H   LIG    1       -0.652   1.022  -0.773  0.00  0.00    +0.460 HD
ATOM     17  H   LIG    1        0.770   1.622  -0.198  0.00  0.00    +0.430 HD
ATOM     18  H   LIG    1        0.326   0.075   0.154  0.00  0.00    +0.430 HD
ENDBRANCH   1  15
BRANCH   8  19
ATOM     19  O   LIG    1       -0.846   1.207   3.583  0.00  0.00    -0.500 OA
ATOM     20  H   LIG    1       -1.748   0.865   3.528  0.00  0.00    +0.420 HD
ENDBRANCH   8  19
TORSDOF 3
ENDMDL
