MODEL        1
REMARK  Name = ZINC000071773891
REMARK                            x       y       z     vdW  Elec       q    Type
REMARK                         _______ _______ _______ _____ _____    ______ ____
ROOT
ATOM      1  C   LIG    1       -2.739   3.570  -1.222  0.00  0.00    +0.350 C 
ATOM      2  O   LIG    1       -3.438   3.536  -0.238  0.00  0.00    -0.430 OA
ENDROOT
BRANCH   1   3
ATOM      3  C   LIG    1       -1.483   2.739  -1.283  0.00  0.00    +0.000 C 
BRANCH   3   4
ATOM      4  C   LIG    1       -1.330   1.951   0.019  0.00  0.00    +0.140 C 
BRANCH   4   6
ATOM      5  O   LIG    1        0.002  -0.004   0.002  0.00  0.00    -0.690 OA
ATOM      6  C   LIG    1       -0.015   1.215   0.009  0.00  0.00    +0.470 C 
ATOM      7  O   LIG    1        1.033   1.839   0.002  0.00  0.00    -0.700 OA
ENDBRANCH   4   6
BRANCH   4   8
ATOM      8  O   LIG    1       -2.400   1.011   0.136  0.00  0.00    -0.550 OA
ATOM      9  H   LIG    1       -2.439   0.367  -0.584  0.00  0.00    +0.360 HD
ENDBRANCH   4   8
ENDBRANCH   3   4
ENDBRANCH   1   3
BRANCH   1  10
ATOM     10  C   LIG    1       -3.121   4.445  -2.389  0.00  0.00    +0.000 C 
BRANCH  10  11
ATOM     11  C   LIG    1       -4.427   5.176  -2.071  0.00  0.00    +0.140 C 
BRANCH  11  12
ATOM     12  C   LIG    1       -4.873   5.955  -3.282  0.00  0.00    +0.470 C 
ATOM     13  O   LIG    1       -4.913   7.173  -3.244  0.00  0.00    -0.690 OA
ATOM     14  O   LIG    1       -5.196   5.366  -4.300  0.00  0.00    -0.700 OA
ENDBRANCH  11  12
BRANCH  11  15
ATOM     15  O   LIG    1       -4.216   6.074  -0.979  0.00  0.00    -0.550 OA
ATOM     16  H   LIG    1       -3.545   6.749  -1.149  0.00  0.00    +0.360 HD
ENDBRANCH  11  15
ENDBRANCH  10  11
ENDBRANCH   1  10
TORSDOF 8
ENDMDL
MODEL        2
REMARK  Name = ZINC000003634661
REMARK                            x       y       z     vdW  Elec       q    Type
REMARK                         _______ _______ _______ _____ _____    ______ ____
ROOT
ATOM      1  C   LIG    1       -2.479   0.941   0.019  0.00  0.00    +0.080 C 
ENDROOT
BRANCH   1   2
ATOM      2  C   LIG    1       -2.381   0.069   1.244  0.00  0.00    +0.550 C 
ATOM      3  O   LIG    1       -2.254  -1.138   1.125  0.00  0.00    -0.670 OA
ATOM      4  O   LIG    1       -2.430   0.570   2.355  0.00  0.00    -0.730 OA
ENDBRANCH   1   2
BRANCH   1   5
ATOM      5  C   LIG    1       -3.814   1.688   0.029  0.00  0.00    +0.070 C 
ATOM      6  F   LIG    1       -3.905   2.497  -1.108  0.00  0.00    -0.240 F 
BRANCH   5   7
ATOM      7  C   LIG    1       -4.946   0.693   0.029  0.00  0.00    +0.510 C 
ATOM      8  O   LIG    1       -5.229   0.091  -0.993  0.00  0.00    -0.690 OA
ATOM      9  O   LIG    1       -5.580   0.490   1.051  0.00  0.00    -0.700 OA
ENDBRANCH   5   7
ENDBRANCH   1   5
BRANCH   1  10
ATOM     10  O   LIG    1       -2.398   0.127  -1.153  0.00  0.00    -0.500 OA
ATOM     11  H   LIG    1       -2.454   0.623  -1.981  0.00  0.00    +0.320 HD
ENDBRANCH   1  10
BRANCH   1  12
ATOM     12  C   LIG    1       -1.330   1.951   0.019  0.00  0.00    -0.090 C 
BRANCH  12  14
ATOM     13  O   LIG    1        0.002  -0.004   0.002  0.00  0.00    -0.650 OA
ATOM     14  C   LIG    1       -0.015   1.215   0.009  0.00  0.00    +0.490 C 
ATOM     15  O   LIG    1        1.033   1.839   0.002  0.00  0.00    -0.750 OA
ENDBRANCH  12  14
ENDBRANCH   1  12
TORSDOF 6
ENDMDL
MODEL        3
REMARK  Name = ZINC000003634658
REMARK                            x       y       z     vdW  Elec       q    Type
REMARK                         _______ _______ _______ _____ _____    ______ ____
ROOT
ATOM      1  C   LIG    1       -2.479   0.941   0.019  0.00  0.00    +0.080 C 
ENDROOT
BRANCH   1   2
ATOM      2  C   LIG    1       -2.381   0.069   1.244  0.00  0.00    +0.550 C 
ATOM      3  O   LIG    1       -2.254  -1.138   1.125  0.00  0.00    -0.680 OA
ATOM      4  O   LIG    1       -2.430   0.570   2.355  0.00  0.00    -0.720 OA
ENDBRANCH   1   2
BRANCH   1   5
ATOM      5  C   LIG    1       -3.814   1.688   0.029  0.00  0.00    +0.050 C 
ATOM      6  F   LIG    1       -3.847   2.570   1.115  0.00  0.00    -0.210 F 
BRANCH   5   7
ATOM      7  C   LIG    1       -4.943   0.697   0.153  0.00  0.00    +0.500 C 
ATOM      8  O   LIG    1       -5.208  -0.045  -0.777  0.00  0.00    -0.700 OA
ATOM      9  O   LIG    1       -5.591   0.637   1.184  0.00  0.00    -0.690 OA
ENDBRANCH   5   7
ENDBRANCH   1   5
BRANCH   1  10
ATOM     10  O   LIG    1       -2.398   0.127  -1.153  0.00  0.00    -0.490 OA
ATOM     11  H   LIG    1       -2.454   0.623  -1.981  0.00  0.00    +0.320 HD
ENDBRANCH   1  10
BRANCH   1  12
ATOM     12  C   LIG    1       -1.330   1.951   0.019  0.00  0.00    -0.100 C 
BRANCH  12  14
ATOM     13  O   LIG    1        0.002  -0.004   0.002  0.00  0.00    -0.640 OA
ATOM     14  C   LIG    1       -0.015   1.215   0.009  0.00  0.00    +0.490 C 
ATOM     15  O   LIG    1        1.033   1.839   0.002  0.00  0.00    -0.750 OA
ENDBRANCH  12  14
ENDBRANCH   1  12
TORSDOF 6
ENDMDL
MODEL        4
REMARK  Name = ZINC000003634656
REMARK                            x       y       z     vdW  Elec       q    Type
REMARK                         _______ _______ _______ _____ _____    ______ ____
ROOT
ATOM      1  C   LIG    1       -2.479   0.941   0.019  0.00  0.00    +0.080 C 
ENDROOT
BRANCH   1   2
ATOM      2  C   LIG    1       -2.324   0.003  -1.151  0.00  0.00    +0.570 C 
ATOM      3  O   LIG    1       -2.318   0.443  -2.288  0.00  0.00    -0.730 OA
ATOM      4  O   LIG    1       -2.204  -1.195  -0.960  0.00  0.00    -0.670 OA
ENDBRANCH   1   2
BRANCH   1   5
ATOM      5  C   LIG    1       -3.811   1.684  -0.096  0.00  0.00    +0.070 C 
ATOM      6  F   LIG    1       -3.904   2.635   0.925  0.00  0.00    -0.240 F 
BRANCH   5   7
ATOM      7  C   LIG    1       -4.947   0.702   0.027  0.00  0.00    +0.500 C 
ATOM      8  O   LIG    1       -5.159  -0.100  -0.867  0.00  0.00    -0.670 OA
ATOM      9  O   LIG    1       -5.654   0.708   1.020  0.00  0.00    -0.720 OA
ENDBRANCH   5   7
ENDBRANCH   1   5
BRANCH   1  10
ATOM     10  O   LIG    1       -2.455   0.192   1.236  0.00  0.00    -0.510 OA
ATOM     11  H   LIG    1       -2.550   0.732   2.032  0.00  0.00    +0.320 HD
ENDBRANCH   1  10
BRANCH   1  12
ATOM     12  C   LIG    1       -1.330   1.951   0.019  0.00  0.00    -0.100 C 
BRANCH  12  14
ATOM     13  O   LIG    1        0.002  -0.004   0.002  0.00  0.00    -0.640 OA
ATOM     14  C   LIG    1       -0.015   1.215   0.009  0.00  0.00    +0.490 C 
ATOM     15  O   LIG    1        1.033   1.839   0.002  0.00  0.00    -0.750 OA
ENDBRANCH  12  14
ENDBRANCH   1  12
TORSDOF 6
ENDMDL
MODEL        5
REMARK  Name = ZINC000003634659
REMARK                            x       y       z     vdW  Elec       q    Type
REMARK                         _______ _______ _______ _____ _____    ______ ____
ROOT
ATOM      1  C   LIG    1       -2.479   0.941   0.019  0.00  0.00    +0.070 C 
ENDROOT
BRANCH   1   2
ATOM      2  C   LIG    1       -2.324   0.003  -1.151  0.00  0.00    +0.570 C 
ATOM      3  O   LIG    1       -2.318   0.443  -2.288  0.00  0.00    -0.720 OA
ATOM      4  O   LIG    1       -2.204  -1.195  -0.960  0.00  0.00    -0.680 OA
ENDBRANCH   1   2
BRANCH   1   5
ATOM      5  C   LIG    1       -3.811   1.684  -0.096  0.00  0.00    +0.050 C 
ATOM      6  F   LIG    1       -3.834   2.417  -1.288  0.00  0.00    -0.210 F 
BRANCH   5   7
ATOM      7  C   LIG    1       -4.943   0.690  -0.097  0.00  0.00    +0.500 C 
ATOM      8  O   LIG    1       -5.168   0.021  -1.091  0.00  0.00    -0.660 OA
ATOM      9  O   LIG    1       -5.635   0.553   0.898  0.00  0.00    -0.720 OA
ENDBRANCH   5   7
ENDBRANCH   1   5
BRANCH   1  10
ATOM     10  O   LIG    1       -2.455   0.192   1.236  0.00  0.00    -0.510 OA
ATOM     11  H   LIG    1       -2.550   0.732   2.032  0.00  0.00    +0.320 HD
ENDBRANCH   1  10
BRANCH   1  12
ATOM     12  C   LIG    1       -1.330   1.951   0.019  0.00  0.00    -0.100 C 
BRANCH  12  14
ATOM     13  O   LIG    1        0.002  -0.004   0.002  0.00  0.00    -0.640 OA
ATOM     14  C   LIG    1       -0.015   1.215   0.009  0.00  0.00    +0.490 C 
ATOM     15  O   LIG    1        1.033   1.839   0.002  0.00  0.00    -0.760 OA
ENDBRANCH  12  14
ENDBRANCH   1  12
TORSDOF 6
ENDMDL
MODEL        6
REMARK  Name = ZINC000001898020
REMARK                            x       y       z     vdW  Elec       q    Type
REMARK                         _______ _______ _______ _____ _____    ______ ____
ROOT
ATOM      1  C   UNK A  0       -2.550  -2.680   0.012  0.00  0.00    +0.510 C 
ATOM      2  N   ASP A  1       -2.778  -4.008   0.007  0.00  0.00    -0.660 N 
ATOM      3  H   ASP A  1       -2.032  -4.629  -0.003  0.00  0.00    +0.390 HD
ATOM      4  O   UNK A  0       -3.482  -1.905   0.025  0.00  0.00    -0.570 OA
ENDROOT
BRANCH   1   5
ATOM      5  C   UNK A  0       -1.136  -2.159   0.001  0.00  0.00    +0.280 C 
BRANCH   5   8
ATOM      6  C   UNK A  0       -0.018   1.503   0.010  0.00  0.00    +0.100 C 
ATOM      7  C   UNK A  0        0.002  -0.004   0.002  0.00  0.00    +0.510 C 
ATOM      8  N   UNK A  0       -1.156  -0.694   0.009  0.00  0.00    -0.710 N 
ATOM      9  H   UNK A  0       -2.002  -0.220   0.020  0.00  0.00    +0.410 HD
ATOM     10  O   UNK A  0        1.060  -0.596  -0.011  0.00  0.00    -0.560 OA
ENDBRANCH   5   8
ENDBRANCH   1   5
BRANCH   2  11
ATOM     11  CA  ASP A  1       -4.152  -4.516   0.018  0.00  0.00    +0.180 C 
BRANCH  11  12
ATOM     12  C   ASP A  1       -4.653  -4.581   1.437  0.00  0.00    +0.490 C 
ATOM     13  OXT ASP A  1       -5.782  -4.979   1.668  0.00  0.00    -0.710 OA
ATOM     14  O   ASP A  1       -3.929  -4.236   2.356  0.00  0.00    -0.700 OA
ENDBRANCH  11  12
BRANCH  11  15
ATOM     15  CB  ASP A  1       -4.184  -5.915  -0.599  0.00  0.00    -0.050 C 
BRANCH  15  16
ATOM     16  CG  ASP A  1       -3.801  -5.832  -2.054  0.00  0.00    +0.490 C 
ATOM     17  OD2 ASP A  1       -3.764  -6.843  -2.734  0.00  0.00    -0.720 OA
ATOM     18  OD1 ASP A  1       -3.528  -4.753  -2.552  0.00  0.00    -0.690 OA
ENDBRANCH  15  16
ENDBRANCH  11  15
ENDBRANCH   2  11
TORSDOF 6
ENDMDL
MODEL        7
REMARK  Name = ZINC000071773890
REMARK                            x       y       z     vdW  Elec       q    Type
REMARK                         _______ _______ _______ _____ _____    ______ ____
ROOT
ATOM      1  C   LIG    1       -2.739   3.570  -1.222  0.00  0.00    +0.350 C 
ATOM      2  O   LIG    1       -3.438   3.536  -0.238  0.00  0.00    -0.430 OA
ENDROOT
BRANCH   1   3
ATOM      3  C   LIG    1       -1.483   2.739  -1.283  0.00  0.00    +0.000 C 
BRANCH   3   4
ATOM      4  C   LIG    1       -1.330   1.951   0.019  0.00  0.00    +0.140 C 
BRANCH   4   6
ATOM      5  O   LIG    1        0.002  -0.004   0.002  0.00  0.00    -0.690 OA
ATOM      6  C   LIG    1       -0.015   1.215   0.009  0.00  0.00    +0.470 C 
ATOM      7  O   LIG    1        1.033   1.839   0.002  0.00  0.00    -0.700 OA
ENDBRANCH   4   6
BRANCH   4   8
ATOM      8  O   LIG    1       -2.400   1.011   0.136  0.00  0.00    -0.550 OA
ATOM      9  H   LIG    1       -2.439   0.367  -0.584  0.00  0.00    +0.360 HD
ENDBRANCH   4   8
ENDBRANCH   3   4
ENDBRANCH   1   3
BRANCH   1  10
ATOM     10  C   LIG    1       -3.121   4.445  -2.389  0.00  0.00    +0.000 C 
BRANCH  10  11
ATOM     11  C   LIG    1       -4.427   5.176  -2.071  0.00  0.00    +0.140 C 
BRANCH  11  12
ATOM     12  C   LIG    1       -4.745   6.142  -3.184  0.00  0.00    +0.470 C 
ATOM     13  O   LIG    1       -4.009   7.091  -3.396  0.00  0.00    -0.700 OA
ATOM     14  O   LIG    1       -5.737   5.974  -3.872  0.00  0.00    -0.690 OA
ENDBRANCH  11  12
BRANCH  11  15
ATOM     15  O   LIG    1       -5.487   4.226  -1.947  0.00  0.00    -0.550 OA
ATOM     16  H   LIG    1       -5.641   3.702  -2.745  0.00  0.00    +0.360 HD
ENDBRANCH  11  15
ENDBRANCH  10  11
ENDBRANCH   1  10
TORSDOF 8
ENDMDL
MODEL        8
REMARK  Name = ZINC000071773889
REMARK                            x       y       z     vdW  Elec       q    Type
REMARK                         _______ _______ _______ _____ _____    ______ ____
ROOT
ATOM      1  C   LIG    1       -3.444   2.309  -1.226  0.00  0.00    +0.350 C 
ATOM      2  O   LIG    1       -3.784   2.919  -0.240  0.00  0.00    -0.430 OA
ENDROOT
BRANCH   1   3
ATOM      3  C   LIG    1       -2.079   1.675  -1.286  0.00  0.00    +0.000 C 
BRANCH   3   4
ATOM      4  C   LIG    1       -1.330   1.951   0.019  0.00  0.00    +0.140 C 
BRANCH   4   6
ATOM      5  O   LIG    1        0.002  -0.004   0.002  0.00  0.00    -0.700 OA
ATOM      6  C   LIG    1       -0.015   1.215   0.009  0.00  0.00    +0.470 C 
ATOM      7  O   LIG    1        1.033   1.839   0.002  0.00  0.00    -0.690 OA
ENDBRANCH   4   6
BRANCH   4   8
ATOM      8  O   LIG    1       -1.090   3.354   0.143  0.00  0.00    -0.550 OA
ATOM      9  H   LIG    1       -0.559   3.727  -0.575  0.00  0.00    +0.360 HD
ENDBRANCH   4   8
ENDBRANCH   3   4
ENDBRANCH   1   3
BRANCH   1  10
ATOM     10  C   LIG    1       -4.386   2.182  -2.395  0.00  0.00    +0.000 C 
BRANCH  10  11
ATOM     11  C   LIG    1       -5.694   2.910  -2.078  0.00  0.00    +0.140 C 
BRANCH  11  12
ATOM     12  C   LIG    1       -6.588   2.889  -3.290  0.00  0.00    +0.470 C 
ATOM     13  O   LIG    1       -6.253   3.476  -4.305  0.00  0.00    -0.700 OA
ATOM     14  O   LIG    1       -7.647   2.285  -3.257  0.00  0.00    -0.690 OA
ENDBRANCH  11  12
BRANCH  11  15
ATOM     15  O   LIG    1       -6.351   2.257  -0.990  0.00  0.00    -0.550 OA
ATOM     16  H   LIG    1       -6.575   1.332  -1.163  0.00  0.00    +0.360 HD
ENDBRANCH  11  15
ENDBRANCH  10  11
ENDBRANCH   1  10
TORSDOF 8
ENDMDL
MODEL        9
REMARK  Name = ZINC000003869830
REMARK                            x       y       z     vdW  Elec       q    Type
REMARK                         _______ _______ _______ _____ _____    ______ ____
ROOT
ATOM      1  C   LIG    1       -0.956   3.467   1.634  0.00  0.00    +0.370 C 
ATOM      2  C   LIG    1       -0.993   3.673   3.164  0.00  0.00    +0.000 C 
ATOM      3  C   LIG    1       -2.101   4.749   3.325  0.00  0.00    +0.150 C 
ATOM      4  C   LIG    1       -3.062   4.356   2.176  0.00  0.00    +0.170 C 
ATOM      5  O   LIG    1       -2.209   3.917   1.105  0.00  0.00    -0.360 OA
ENDROOT
BRANCH   3   6
ATOM      6  O   LIG    1       -2.744   4.639   4.596  0.00  0.00    -0.560 OA
ATOM      7  H   LIG    1       -2.152   4.772   5.349  0.00  0.00    +0.380 HD
ENDBRANCH   3   6
BRANCH   1   8
ATOM      8  O   LIG    1       -0.773   2.082   1.335  0.00  0.00    -0.740 OA
BRANCH   8  10
ATOM      9  O   LIG    1        0.002  -0.004   0.002  0.00  0.00    -1.170 OA
ATOM     10  P   LIG    1       -0.019   1.562   0.011  0.00  0.00    +2.120 P 
ATOM     11  O   LIG    1       -0.777   2.081  -1.259  0.00  0.00    -1.180 OA
ATOM     12  O   LIG    1        1.451   2.105  -0.001  0.00  0.00    -1.190 OA
ENDBRANCH   8  10
ENDBRANCH   1   8
BRANCH   4  13
ATOM     13  C   LIG    1       -3.888   5.566   1.736  0.00  0.00    +0.190 C 
BRANCH  13  14
ATOM     14  O   LIG    1       -4.848   5.159   0.759  0.00  0.00    -0.560 OA
ATOM     15  H   LIG    1       -5.408   5.878   0.434  0.00  0.00    +0.370 HD
ENDBRANCH  13  14
ENDBRANCH   4  13
TORSDOF 5
ENDMDL
MODEL       10
REMARK  Name = ZINC000004095989
REMARK                            x       y       z     vdW  Elec       q    Type
REMARK                         _______ _______ _______ _____ _____    ______ ____
ROOT
ATOM      1  C   LIG    1       -0.019   1.526   0.010  0.00  0.00    +0.070 C 
ATOM      2  C   LIG    1        0.002  -0.004   0.002  0.00  0.00    +0.130 C 
ATOM      3  O   LIG    1       -1.339  -0.499   0.013  0.00  0.00    -0.370 OA
ATOM      4  C   LIG    1       -1.435  -1.924  -0.020  0.00  0.00    +0.350 C 
ATOM      5  C   LIG    1       -0.753  -2.509   1.220  0.00  0.00    +0.130 C 
ATOM      6  C   LIG    1        0.706  -2.043   1.258  0.00  0.00    +0.190 C 
ATOM      7  C   LIG    1        0.742  -0.511   1.242  0.00  0.00    +0.160 C 
ENDROOT
BRANCH   6   8
ATOM      8  O   LIG    1        1.331  -2.525   2.449  0.00  0.00    -0.560 OA
ATOM      9  H   LIG    1        1.338  -3.489   2.527  0.00  0.00    +0.380 HD
ENDBRANCH   6   8
BRANCH   5  10
ATOM     10  O   LIG    1       -0.798  -3.936   1.161  0.00  0.00    -0.570 OA
ATOM     11  H   LIG    1       -1.693  -4.300   1.130  0.00  0.00    +0.400 HD
ENDBRANCH   5  10
BRANCH   7  12
ATOM     12  O   LIG    1        0.106  -0.007   2.419  0.00  0.00    -0.540 OA
ATOM     13  H   LIG    1        0.093   0.959   2.475  0.00  0.00    +0.370 HD
ENDBRANCH   7  12
BRANCH   4  14
ATOM     14  O   LIG    1       -2.811  -2.309  -0.033  0.00  0.00    -0.730 OA
BRANCH  14  15
ATOM     15  P   LIG    1       -3.651  -2.514  -1.391  0.00  0.00    +2.110 P 
ATOM     16  O   LIG    1       -5.149  -2.808  -1.039  0.00  0.00    -1.160 OA
ATOM     17  O   LIG    1       -3.057  -3.721  -2.195  0.00  0.00    -1.180 OA
ATOM     18  O   LIG    1       -3.563  -1.214  -2.261  0.00  0.00    -1.170 OA
ENDBRANCH  14  15
ENDBRANCH   4  14
TORSDOF 5
ENDMDL
MODEL       11
REMARK  Name = ZINC000004095540
REMARK                            x       y       z     vdW  Elec       q    Type
REMARK                         _______ _______ _______ _____ _____    ______ ____
ROOT
ATOM      1  C   LIG    1       -0.019   1.526   0.010  0.00  0.00    +0.060 C 
ATOM      2  C   LIG    1        0.002  -0.004   0.002  0.00  0.00    +0.140 C 
ATOM      3  O   LIG    1       -1.339  -0.499   0.013  0.00  0.00    -0.370 OA
ATOM      4  C   LIG    1       -1.435  -1.924  -0.020  0.00  0.00    +0.370 C 
ATOM      5  C   LIG    1       -0.753  -2.509   1.220  0.00  0.00    +0.130 C 
ATOM      6  C   LIG    1        0.706  -2.043   1.258  0.00  0.00    +0.220 C 
ATOM      7  C   LIG    1        0.742  -0.511   1.242  0.00  0.00    +0.160 C 
ENDROOT
BRANCH   6   8
ATOM      8  O   LIG    1        1.331  -2.525   2.449  0.00  0.00    -0.560 OA
ATOM      9  H   LIG    1        1.338  -3.489   2.527  0.00  0.00    +0.380 HD
ENDBRANCH   6   8
BRANCH   5  10
ATOM     10  O   LIG    1       -0.798  -3.936   1.161  0.00  0.00    -0.560 OA
ATOM     11  H   LIG    1       -1.693  -4.300   1.130  0.00  0.00    +0.380 HD
ENDBRANCH   5  10
BRANCH   7  12
ATOM     12  O   LIG    1        0.106  -0.007   2.419  0.00  0.00    -0.550 OA
ATOM     13  H   LIG    1        0.093   0.959   2.475  0.00  0.00    +0.370 HD
ENDBRANCH   7  12
BRANCH   4  14
ATOM     14  O   LIG    1       -0.790  -2.418  -1.196  0.00  0.00    -0.750 OA
BRANCH  14  15
ATOM     15  P   LIG    1       -1.560  -2.628  -2.595  0.00  0.00    +2.120 P 
ATOM     16  O   LIG    1       -0.592  -3.299  -3.628  0.00  0.00    -1.170 OA
ATOM     17  O   LIG    1       -2.030  -1.238  -3.145  0.00  0.00    -1.180 OA
ATOM     18  O   LIG    1       -2.807  -3.550  -2.372  0.00  0.00    -1.190 OA
ENDBRANCH  14  15
ENDBRANCH   4  14
TORSDOF 5
ENDMDL
MODEL       12
REMARK  Name = ZINC000004097096
REMARK                            x       y       z     vdW  Elec       q    Type
REMARK                         _______ _______ _______ _____ _____    ______ ____
ROOT
ATOM      1  C   LIG    1       -1.706   3.608   2.960  0.00  0.00    +0.180 C 
ATOM      2  O   LIG    1       -0.898   3.097   4.022  0.00  0.00    -0.370 OA
ATOM      3  C   LIG    1       -1.518   3.157   5.308  0.00  0.00    +0.310 C 
ATOM      4  C   LIG    1       -1.816   4.616   5.661  0.00  0.00    -0.000 C 
ATOM      5  C   LIG    1       -2.709   5.224   4.576  0.00  0.00    +0.140 C 
ATOM      6  C   LIG    1       -2.012   5.085   3.219  0.00  0.00    +0.160 C 
ENDROOT
BRANCH   5   7
ATOM      7  O   LIG    1       -2.934   6.607   4.861  0.00  0.00    -0.560 OA
ATOM      8  H   LIG    1       -3.368   6.768   5.710  0.00  0.00    +0.380 HD
ENDBRANCH   5   7
BRANCH   3   9
ATOM      9  O   LIG    1       -0.639   2.599   6.287  0.00  0.00    -0.550 OA
ATOM     10  H   LIG    1       -0.407   1.674   6.125  0.00  0.00    +0.390 HD
ENDBRANCH   3   9
BRANCH   6  11
ATOM     11  O   LIG    1       -2.867   5.586   2.189  0.00  0.00    -0.540 OA
ATOM     12  H   LIG    1       -3.105   6.517   2.293  0.00  0.00    +0.380 HD
ENDBRANCH   6  11
BRANCH   1  13
ATOM     13  C   LIG    1       -0.956   3.467   1.634  0.00  0.00    +0.240 C 
BRANCH  13  14
ATOM     14  O   LIG    1       -0.773   2.082   1.335  0.00  0.00    -0.750 OA
BRANCH  14  16
ATOM     15  O   LIG    1        0.002  -0.004   0.002  0.00  0.00    -1.170 OA
ATOM     16  P   LIG    1       -0.019   1.562   0.011  0.00  0.00    +2.130 P 
ATOM     17  O   LIG    1       -0.777   2.081  -1.259  0.00  0.00    -1.190 OA
ATOM     18  O   LIG    1        1.451   2.105  -0.001  0.00  0.00    -1.190 OA
ENDBRANCH  14  16
ENDBRANCH  13  14
ENDBRANCH   1  13
TORSDOF 6
ENDMDL
MODEL       13
REMARK  Name = ZINC000004097095
REMARK                            x       y       z     vdW  Elec       q    Type
REMARK                         _______ _______ _______ _____ _____    ______ ____
ROOT
ATOM      1  C   LIG    1       -1.706   3.608   2.960  0.00  0.00    +0.180 C 
ATOM      2  O   LIG    1       -0.898   3.097   4.022  0.00  0.00    -0.360 OA
ATOM      3  C   LIG    1       -1.518   3.157   5.308  0.00  0.00    +0.350 C 
ATOM      4  C   LIG    1       -1.816   4.616   5.661  0.00  0.00    -0.000 C 
ATOM      5  C   LIG    1       -2.709   5.224   4.576  0.00  0.00    +0.150 C 
ATOM      6  C   LIG    1       -2.012   5.085   3.219  0.00  0.00    +0.160 C 
ENDROOT
BRANCH   5   7
ATOM      7  O   LIG    1       -2.934   6.607   4.861  0.00  0.00    -0.570 OA
ATOM      8  H   LIG    1       -3.368   6.768   5.710  0.00  0.00    +0.380 HD
ENDBRANCH   5   7
BRANCH   3   9
ATOM      9  O   LIG    1       -2.738   2.413   5.284  0.00  0.00    -0.590 OA
ATOM     10  H   LIG    1       -2.625   1.478   5.066  0.00  0.00    +0.390 HD
ENDBRANCH   3   9
BRANCH   6  11
ATOM     11  O   LIG    1       -2.867   5.586   2.189  0.00  0.00    -0.550 OA
ATOM     12  H   LIG    1       -3.105   6.517   2.293  0.00  0.00    +0.380 HD
ENDBRANCH   6  11
BRANCH   1  13
ATOM     13  C   LIG    1       -0.956   3.467   1.634  0.00  0.00    +0.240 C 
BRANCH  13  14
ATOM     14  O   LIG    1       -0.773   2.082   1.335  0.00  0.00    -0.750 OA
BRANCH  14  16
ATOM     15  O   LIG    1        0.002  -0.004   0.002  0.00  0.00    -1.170 OA
ATOM     16  P   LIG    1       -0.019   1.562   0.011  0.00  0.00    +2.130 P 
ATOM     17  O   LIG    1       -0.777   2.081  -1.259  0.00  0.00    -1.190 OA
ATOM     18  O   LIG    1        1.451   2.105  -0.001  0.00  0.00    -1.190 OA
ENDBRANCH  14  16
ENDBRANCH  13  14
ENDBRANCH   1  13
TORSDOF 6
ENDMDL
MODEL       14
REMARK  Name = ZINC000004096190
REMARK                            x       y       z     vdW  Elec       q    Type
REMARK                         _______ _______ _______ _____ _____    ______ ____
ROOT
ATOM      1  C   LIG    1       -1.706   3.608   2.960  0.00  0.00    +0.200 C 
ATOM      2  O   LIG    1       -0.885   3.132   4.039  0.00  0.00    -0.360 OA
ATOM      3  C   LIG    1       -0.173   4.274   4.562  0.00  0.00    +0.290 C 
ATOM      4  C   LIG    1       -1.234   5.404   4.539  0.00  0.00    +0.130 C 
ATOM      5  C   LIG    1       -2.013   5.093   3.233  0.00  0.00    +0.170 C 
ENDROOT
BRANCH   4   6
ATOM      6  O   LIG    1       -2.095   5.318   5.677  0.00  0.00    -0.540 OA
ATOM      7  H   LIG    1       -1.638   5.416   6.524  0.00  0.00    +0.380 HD
ENDBRANCH   4   6
BRANCH   3   8
ATOM      8  O   LIG    1        0.270   4.023   5.897  0.00  0.00    -0.560 OA
ATOM      9  H   LIG    1        0.884   3.280   5.975  0.00  0.00    +0.390 HD
ENDBRANCH   3   8
BRANCH   5  10
ATOM     10  O   LIG    1       -3.414   5.294   3.427  0.00  0.00    -0.540 OA
ATOM     11  H   LIG    1       -3.653   6.202   3.660  0.00  0.00    +0.370 HD
ENDBRANCH   5  10
BRANCH   1  12
ATOM     12  C   LIG    1       -0.956   3.467   1.634  0.00  0.00    +0.210 C 
BRANCH  12  13
ATOM     13  O   LIG    1       -0.773   2.082   1.335  0.00  0.00    -0.750 OA
BRANCH  13  15
ATOM     14  O   LIG    1        0.002  -0.004   0.002  0.00  0.00    -1.170 OA
ATOM     15  P   LIG    1       -0.019   1.562   0.011  0.00  0.00    +2.130 P 
ATOM     16  O   LIG    1       -0.777   2.081  -1.259  0.00  0.00    -1.190 OA
ATOM     17  O   LIG    1        1.451   2.105  -0.001  0.00  0.00    -1.190 OA
ENDBRANCH  13  15
ENDBRANCH  12  13
ENDBRANCH   1  12
TORSDOF 6
ENDMDL
MODEL       15
REMARK  Name = ZINC000004228289
REMARK                            x       y       z     vdW  Elec       q    Type
REMARK                         _______ _______ _______ _____ _____    ______ ____
ROOT
ATOM      1  C   LIG    1       -0.956   3.467   1.634  0.00  0.00    +0.350 C 
ATOM      2  O   LIG    1        0.113   3.951   2.475  0.00  0.00    -0.360 OA
ATOM      3  C   LIG    1       -0.373   5.133   3.133  0.00  0.00    +0.170 C 
ATOM      4  C   LIG    1       -1.907   5.010   3.221  0.00  0.00    +0.160 C 
ATOM      5  C   LIG    1       -2.225   3.676   2.500  0.00  0.00    +0.120 C 
ENDROOT
BRANCH   4   6
ATOM      6  O   LIG    1       -2.536   6.103   2.550  0.00  0.00    -0.550 OA
ATOM      7  H   LIG    1       -3.502   6.076   2.574  0.00  0.00    +0.380 HD
ENDBRANCH   4   6
BRANCH   5   8
ATOM      8  O   LIG    1       -3.391   3.802   1.683  0.00  0.00    -0.560 OA
ATOM      9  H   LIG    1       -3.630   2.993   1.211  0.00  0.00    +0.400 HD
ENDBRANCH   5   8
BRANCH   1  10
ATOM     10  O   LIG    1       -0.773   2.082   1.335  0.00  0.00    -0.730 OA
BRANCH  10  12
ATOM     11  O   LIG    1        0.002  -0.004   0.002  0.00  0.00    -1.160 OA
ATOM     12  P   LIG    1       -0.019   1.562   0.011  0.00  0.00    +2.110 P 
ATOM     13  O   LIG    1       -0.777   2.081  -1.259  0.00  0.00    -1.180 OA
ATOM     14  O   LIG    1        1.451   2.105  -0.001  0.00  0.00    -1.170 OA
ENDBRANCH  10  12
ENDBRANCH   1  10
BRANCH   3  15
ATOM     15  C   LIG    1        0.225   5.230   4.538  0.00  0.00    +0.190 C 
BRANCH  15  16
ATOM     16  O   LIG    1        1.635   5.446   4.441  0.00  0.00    -0.550 OA
ATOM     17  H   LIG    1        2.081   5.517   5.295  0.00  0.00    +0.370 HD
ENDBRANCH  15  16
ENDBRANCH   3  15
TORSDOF 6
ENDMDL
MODEL       16
REMARK  Name = ZINC000004228268
REMARK                            x       y       z     vdW  Elec       q    Type
REMARK                         _______ _______ _______ _____ _____    ______ ____
ROOT
ATOM      1  C   LIG    1       -0.956   3.467   1.634  0.00  0.00    +0.360 C 
ATOM      2  O   LIG    1       -2.214   3.919   1.106  0.00  0.00    -0.350 OA
ATOM      3  C   LIG    1       -3.189   3.778   2.161  0.00  0.00    +0.170 C 
ATOM      4  C   LIG    1       -2.419   4.230   3.428  0.00  0.00    +0.170 C 
ATOM      5  C   LIG    1       -0.996   3.673   3.161  0.00  0.00    +0.120 C 
ENDROOT
BRANCH   4   6
ATOM      6  O   LIG    1       -2.984   3.647   4.604  0.00  0.00    -0.540 OA
ATOM      7  H   LIG    1       -2.536   3.900   5.422  0.00  0.00    +0.370 HD
ENDBRANCH   4   6
BRANCH   5   8
ATOM      8  O   LIG    1       -0.809   2.430   3.841  0.00  0.00    -0.530 OA
ATOM      9  H   LIG    1        0.064   2.037   3.708  0.00  0.00    +0.390 HD
ENDBRANCH   5   8
BRANCH   1  10
ATOM     10  O   LIG    1       -0.773   2.082   1.335  0.00  0.00    -0.740 OA
BRANCH  10  12
ATOM     11  O   LIG    1        0.002  -0.004   0.002  0.00  0.00    -1.160 OA
ATOM     12  P   LIG    1       -0.019   1.562   0.011  0.00  0.00    +2.120 P 
ATOM     13  O   LIG    1       -0.777   2.081  -1.259  0.00  0.00    -1.180 OA
ATOM     14  O   LIG    1        1.451   2.105  -0.001  0.00  0.00    -1.190 OA
ENDBRANCH  10  12
ENDBRANCH   1  10
BRANCH   3  15
ATOM     15  C   LIG    1       -4.394   4.686   1.906  0.00  0.00    +0.200 C 
BRANCH  15  16
ATOM     16  O   LIG    1       -5.091   4.237   0.742  0.00  0.00    -0.550 OA
ATOM     17  H   LIG    1       -5.868   4.768   0.520  0.00  0.00    +0.370 HD
ENDBRANCH  15  16
ENDBRANCH   3  15
TORSDOF 6
ENDMDL
MODEL       17
REMARK  Name = ZINC000004557438
REMARK                            x       y       z     vdW  Elec       q    Type
REMARK                         _______ _______ _______ _____ _____    ______ ____
ROOT
ATOM      1  N   LIG    1       -3.761   1.658   0.029  0.00  0.00    -0.480 N 
ATOM      2  H1  LIG    1       -3.826   2.242  -0.791  0.00  0.00    +0.400 HD
ATOM      3  H2  LIG    1       -3.818   2.233   0.856  0.00  0.00    +0.410 HD
ENDROOT
BRANCH   1   4
ATOM      4  C   ACE A  0       -2.479   0.941   0.019  0.00  0.00    +0.270 C 
BRANCH   4   5
ATOM      5  C   LIG    1       -1.330   1.951   0.019  0.00  0.00    -0.070 C 
BRANCH   5   7
ATOM      6  O   LIG    1        0.002  -0.004   0.002  0.00  0.00    -0.690 OA
ATOM      7  C   LIG    1       -0.015   1.215   0.009  0.00  0.00    +0.500 C 
ATOM      8  O   LIG    1        1.033   1.839   0.002  0.00  0.00    -0.700 OA
ENDBRANCH   5   7
ENDBRANCH   4   5
ENDBRANCH   1   4
BRANCH   1   9
ATOM      9  CA  LIG    1       -4.864   0.688   0.029  0.00  0.00    +0.100 C 
BRANCH   9  10
ATOM     10  C   LIG    1       -4.852  -0.087  -1.263  0.00  0.00    +0.500 C 
ATOM     11  OXT LIG    1       -5.691  -0.948  -1.466  0.00  0.00    -0.660 OA
ATOM     12  O   LIG    1       -4.002   0.146  -2.106  0.00  0.00    -0.680 OA
ENDBRANCH   9  10
BRANCH   9  13
ATOM     13  CB  LIG    1       -6.196   1.430   0.165  0.00  0.00    -0.020 C 
BRANCH  13  14
ATOM     14  CG  LIG    1       -6.259   2.106   1.510  0.00  0.00    +0.490 C 
ATOM     15  OD2 LIG    1       -7.243   2.755   1.821  0.00  0.00    -0.690 OA
ATOM     16  OD1 LIG    1       -5.325   2.004   2.288  0.00  0.00    -0.700 OA
ENDBRANCH  13  14
ENDBRANCH   9  13
ENDBRANCH   1   9
TORSDOF 7
ENDMDL
MODEL       18
REMARK  Name = ZINC000004557439
REMARK                            x       y       z     vdW  Elec       q    Type
REMARK                         _______ _______ _______ _____ _____    ______ ____
ROOT
ATOM      1  N   LIG    1       -3.761   1.658   0.029  0.00  0.00    -0.480 N 
ATOM      2  H1  LIG    1       -3.826   2.242  -0.791  0.00  0.00    +0.420 HD
ATOM      3  H2  LIG    1       -3.818   2.233   0.856  0.00  0.00    +0.410 HD
ENDROOT
BRANCH   1   4
ATOM      4  C   ACE A  0       -2.479   0.941   0.019  0.00  0.00    +0.260 C 
BRANCH   4   5
ATOM      5  C   LIG    1       -1.330   1.951   0.019  0.00  0.00    -0.070 C 
BRANCH   5   7
ATOM      6  O   LIG    1        0.002  -0.004   0.002  0.00  0.00    -0.690 OA
ATOM      7  C   LIG    1       -0.015   1.215   0.009  0.00  0.00    +0.500 C 
ATOM      8  O   LIG    1        1.033   1.839   0.002  0.00  0.00    -0.700 OA
ENDBRANCH   5   7
ENDBRANCH   4   5
ENDBRANCH   1   4
BRANCH   1   9
ATOM      9  CA  LIG    1       -4.864   0.688   0.029  0.00  0.00    +0.100 C 
BRANCH   9  10
ATOM     10  C   LIG    1       -4.839  -0.101   1.312  0.00  0.00    +0.500 C 
ATOM     11  OXT LIG    1       -5.248  -1.250   1.329  0.00  0.00    -0.660 OA
ATOM     12  O   LIG    1       -4.410   0.408   2.333  0.00  0.00    -0.680 OA
ENDBRANCH   9  10
BRANCH   9  13
ATOM     13  CB  LIG    1       -6.197   1.432  -0.086  0.00  0.00    -0.030 C 
BRANCH  13  14
ATOM     14  CG  LIG    1       -6.272   2.122  -1.424  0.00  0.00    +0.490 C 
ATOM     15  OD2 LIG    1       -7.260   2.775  -1.718  0.00  0.00    -0.690 OA
ATOM     16  OD1 LIG    1       -5.347   2.028  -2.212  0.00  0.00    -0.700 OA
ENDBRANCH  13  14
ENDBRANCH   9  13
ENDBRANCH   1   9
TORSDOF 7
ENDMDL
MODEL       19
REMARK  Name = ZINC000025626062
REMARK                            x       y       z     vdW  Elec       q    Type
REMARK                         _______ _______ _______ _____ _____    ______ ____
ROOT
ATOM      1  C   LIG    1       -1.370   1.957  -0.006  0.00  0.00    -0.050 C 
ATOM      2  C   LIG    1       -1.109   3.455   0.117  0.00  0.00    +0.170 C 
ATOM      3  O   LIG    1       -1.190   4.115   1.366  0.00  0.00    -0.340 OA
ATOM      4  C   LIG    1       -2.300   4.332   0.510  0.00  0.00    +0.080 C 
ATOM      5  C   LIG    1       -3.594   3.649   0.979  0.00  0.00    +0.080 C 
ATOM      6  O   LIG    1       -4.120   2.687   0.045  0.00  0.00    -0.360 OA
ATOM      7  C   LIG    1       -3.557   2.144   1.254  0.00  0.00    +0.200 C 
ATOM      8  C   LIG    1       -2.173   1.465   1.198  0.00  0.00    -0.040 C 
ENDROOT
BRANCH   1  10
ATOM      9  O   LIG    1        0.265   0.623  -1.074  0.00  0.00    -0.700 OA
ATOM     10  C   LIG    1       -0.054   1.224  -0.063  0.00  0.00    +0.540 C 
ATOM     11  O   LIG    1        0.692   1.235   0.901  0.00  0.00    -0.710 OA
ENDBRANCH   1  10
BRANCH   8  12
ATOM     12  C   LIG    1       -2.352  -0.029   1.119  0.00  0.00    +0.500 C 
ATOM     13  O   LIG    1       -3.383  -0.541   1.521  0.00  0.00    -0.730 OA
ATOM     14  O   LIG    1       -1.466  -0.726   0.654  0.00  0.00    -0.650 OA
ENDBRANCH   8  12
TORSDOF 2
ENDMDL
MODEL       20
REMARK  Name = ZINC000000161360
REMARK                            x       y       z     vdW  Elec       q    Type
REMARK                         _______ _______ _______ _____ _____    ______ ____
ROOT
ATOM      1  C   LIG    1       -1.664   1.921   0.478  0.00  0.00    -0.150 C 
ATOM      2  C   LIG    1       -2.890   1.433   1.268  0.00  0.00    -0.120 C 
ATOM      3  C   LIG    1       -3.311   2.908   1.375  0.00  0.00    -0.160 C 
ATOM      4  C   LIG    1       -1.823   3.262   1.213  0.00  0.00    -0.110 C 
ENDROOT
BRANCH   1   6
ATOM      5  O   LIG    1       -0.443   0.053   1.262  0.00  0.00    -0.710 OA
ATOM      6  C   LIG    1       -0.393   1.190   0.824  0.00  0.00    +0.550 C 
ATOM      7  O   LIG    1        0.687   1.733   0.660  0.00  0.00    -0.720 OA
ENDBRANCH   1   6
BRANCH   3   8
ATOM      8  C   LIG    1       -3.877   3.278   2.721  0.00  0.00    +0.550 C 
ATOM      9  O   LIG    1       -4.357   2.417   3.438  0.00  0.00    -0.700 OA
ATOM     10  O   LIG    1       -3.855   4.439   3.093  0.00  0.00    -0.740 OA
ENDBRANCH   3   8
BRANCH   2  11
ATOM     11  C   LIG    1       -2.543   0.806   2.594  0.00  0.00    +0.560 C 
ATOM     12  O   LIG    1       -3.314   0.019   3.117  0.00  0.00    -0.770 OA
ATOM     13  O   LIG    1       -1.492   1.086   3.144  0.00  0.00    -0.630 OA
ENDBRANCH   2  11
BRANCH   4  14
ATOM     14  C   LIG    1       -1.073   3.327   2.518  0.00  0.00    +0.540 C 
ATOM     15  O   LIG    1       -1.668   3.583   3.551  0.00  0.00    -0.680 OA
ATOM     16  O   LIG    1        0.129   3.125   2.542  0.00  0.00    -0.700 OA
ENDBRANCH   4  14
TORSDOF 4
ENDMDL
MODEL       21
REMARK  Name = ZINC000005131744
REMARK                            x       y       z     vdW  Elec       q    Type
REMARK                         _______ _______ _______ _____ _____    ______ ____
ROOT
ATOM      1  N   ASP A  1       -2.466   0.185  -1.240  0.00  0.00    -0.450 N 
ATOM      2  H1  ASP A  1       -1.559  -0.238  -1.370  0.00  0.00    +0.410 HD
ATOM      3  H2  ASP A  1       -2.659   0.809  -2.009  0.00  0.00    +0.410 HD
ENDROOT
BRANCH   1   4
ATOM      4  CA  ASP A  1       -2.479   0.941   0.019  0.00  0.00    +0.110 C 
BRANCH   4   5
ATOM      5  C   ASP A  1       -3.790   1.672   0.153  0.00  0.00    +0.490 C 
ATOM      6  OXT ASP A  1       -4.255   1.893   1.258  0.00  0.00    -0.700 OA
ATOM      7  O   ASP A  1       -4.386   2.042  -0.844  0.00  0.00    -0.650 OA
ENDBRANCH   4   5
BRANCH   4   8
ATOM      8  CB  ASP A  1       -1.330   1.951   0.019  0.00  0.00    -0.050 C 
BRANCH   8  10
ATOM      9  OD1 ASP A  1        0.002  -0.004   0.002  0.00  0.00    -0.660 OA
ATOM     10  CG  ASP A  1       -0.015   1.215   0.009  0.00  0.00    +0.480 C 
ATOM     11  OD2 ASP A  1        1.033   1.839   0.002  0.00  0.00    -0.720 OA
ENDBRANCH   8  10
ENDBRANCH   4   8
ENDBRANCH   1   4
BRANCH   1  12
ATOM     12  CA  ASP A  1       -3.493  -0.865  -1.192  0.00  0.00    +0.110 C 
BRANCH  12  13
ATOM     13  C   ASP A  1       -3.138  -1.865  -0.122  0.00  0.00    +0.490 C 
ATOM     14  OXT ASP A  1       -1.969  -2.074   0.153  0.00  0.00    -0.650 OA
ATOM     15  O   ASP A  1       -4.021  -2.466   0.467  0.00  0.00    -0.700 OA
ENDBRANCH  12  13
BRANCH  12  16
ATOM     16  CB  ASP A  1       -3.566  -1.571  -2.547  0.00  0.00    -0.050 C 
BRANCH  16  17
ATOM     17  CG  ASP A  1       -4.039  -0.598  -3.596  0.00  0.00    +0.480 C 
ATOM     18  OD2 ASP A  1       -4.166  -0.962  -4.753  0.00  0.00    -0.720 OA
ATOM     19  OD1 ASP A  1       -4.295   0.554  -3.288  0.00  0.00    -0.660 OA
ENDBRANCH  16  17
ENDBRANCH  12  16
ENDBRANCH   1  12
TORSDOF 8
ENDMDL
MODEL       22
REMARK  Name = ZINC000005131908
REMARK                            x       y       z     vdW  Elec       q    Type
REMARK                         _______ _______ _______ _____ _____    ______ ____
ROOT
ATOM      1  N   ASP A  1       -2.454   0.171   1.270  0.00  0.00    -0.440 N 
ATOM      2  H1  ASP A  1       -2.640   0.787   2.047  0.00  0.00    +0.410 HD
ATOM      3  H2  ASP A  1       -1.546  -0.253   1.386  0.00  0.00    +0.410 HD
ENDROOT
BRANCH   1   4
ATOM      4  CA  ASP A  1       -2.479   0.941   0.019  0.00  0.00    +0.110 C 
BRANCH   4   5
ATOM      5  C   ASP A  1       -3.791   1.673  -0.095  0.00  0.00    +0.490 C 
ATOM      6  OXT ASP A  1       -4.551   1.714   0.858  0.00  0.00    -0.650 OA
ATOM      7  O   ASP A  1       -4.093   2.225  -1.139  0.00  0.00    -0.700 OA
ENDBRANCH   4   5
BRANCH   4   8
ATOM      8  CB  ASP A  1       -1.330   1.951   0.019  0.00  0.00    -0.040 C 
BRANCH   8  10
ATOM      9  OD1 ASP A  1        0.002  -0.004   0.002  0.00  0.00    -0.650 OA
ATOM     10  CG  ASP A  1       -0.015   1.215   0.009  0.00  0.00    +0.480 C 
ATOM     11  OD2 ASP A  1        1.033   1.839   0.002  0.00  0.00    -0.720 OA
ENDBRANCH   8  10
ENDBRANCH   4   8
ENDBRANCH   1   4
BRANCH   1  12
ATOM     12  CA  ASP A  1       -3.482  -0.878   1.220  0.00  0.00    +0.110 C 
BRANCH  12  13
ATOM     13  C   ASP A  1       -3.137  -1.867   0.136  0.00  0.00    +0.490 C 
ATOM     14  OXT ASP A  1       -3.949  -2.714  -0.197  0.00  0.00    -0.700 OA
ATOM     15  O   ASP A  1       -2.047  -1.820  -0.408  0.00  0.00    -0.650 OA
ENDBRANCH  12  13
BRANCH  12  16
ATOM     16  CB  ASP A  1       -3.541  -1.599   2.568  0.00  0.00    -0.040 C 
BRANCH  16  17
ATOM     17  CG  ASP A  1       -4.005  -0.637   3.631  0.00  0.00    +0.480 C 
ATOM     18  OD2 ASP A  1       -4.121  -1.014   4.785  0.00  0.00    -0.720 OA
ATOM     19  OD1 ASP A  1       -4.264   0.518   3.338  0.00  0.00    -0.650 OA
ENDBRANCH  16  17
ENDBRANCH  12  16
ENDBRANCH   1  12
TORSDOF 8
ENDMDL
MODEL       23
REMARK  Name = ZINC000003861124
REMARK                            x       y       z     vdW  Elec       q    Type
REMARK                         _______ _______ _______ _____ _____    ______ ____
ROOT
ATOM      1  C   LIG    1       -1.330   1.951   0.019  0.00  0.00    +0.060 C 
ATOM      2  O   LIG    1       -1.108   3.377  -0.023  0.00  0.00    -0.340 OA
ATOM      3  C   LIG    1       -2.327   3.966   0.481  0.00  0.00    +0.030 C 
ATOM      4  C   LIG    1       -2.744   3.062   1.662  0.00  0.00    -0.080 C 
ATOM      5  C   LIG    1       -2.074   1.703   1.350  0.00  0.00    -0.060 C 
ENDROOT
BRANCH   1   7
ATOM      6  O   LIG    1        0.002  -0.004   0.002  0.00  0.00    -0.700 OA
ATOM      7  C   LIG    1       -0.015   1.215   0.009  0.00  0.00    +0.520 C 
ATOM      8  O   LIG    1        1.033   1.839   0.002  0.00  0.00    -0.710 OA
ENDBRANCH   1   7
BRANCH   4   9
ATOM      9  C   LIG    1       -2.230   3.623   2.963  0.00  0.00    +0.510 C 
ATOM     10  O   LIG    1       -1.450   2.975   3.640  0.00  0.00    -0.730 OA
ATOM     11  O   LIG    1       -2.595   4.724   3.339  0.00  0.00    -0.680 OA
ENDBRANCH   4   9
BRANCH   3  12
ATOM     12  C   LIG    1       -2.071   5.373   0.959  0.00  0.00    +0.530 C 
ATOM     13  O   LIG    1       -2.979   6.026   1.445  0.00  0.00    -0.690 OA
ATOM     14  O   LIG    1       -0.957   5.857   0.859  0.00  0.00    -0.720 OA
ENDBRANCH   3  12
BRANCH   5  15
ATOM     15  C   LIG    1       -3.115   0.626   1.188  0.00  0.00    +0.510 C 
ATOM     16  O   LIG    1       -4.168   0.699   1.799  0.00  0.00    -0.730 OA
ATOM     17  O   LIG    1       -2.906  -0.318   0.445  0.00  0.00    -0.700 OA
ENDBRANCH   5  15
TORSDOF 4
ENDMDL
MODEL       24
REMARK  Name = ZINC000005131745
REMARK                            x       y       z     vdW  Elec       q    Type
REMARK                         _______ _______ _______ _____ _____    ______ ____
ROOT
ATOM      1  N   ASP A  1       -2.471   0.189   0.666  0.00  0.00    -0.450 N 
ATOM      2  H1  ASP A  1       -2.617   0.923   1.343  0.00  0.00    +0.410 HD
ATOM      3  H2  ASP A  1       -1.645  -0.335   0.912  0.00  0.00    +0.400 HD
ENDROOT
BRANCH   1   4
ATOM      4  CA  ASP A  1       -2.298   0.780  -0.667  0.00  0.00    +0.080 C 
BRANCH   4   5
ATOM      5  C   ASP A  1       -2.085  -0.317  -1.679  0.00  0.00    +0.480 C 
ATOM      6  OXT ASP A  1       -2.103  -1.484  -1.325  0.00  0.00    -0.620 OA
ATOM      7  O   ASP A  1       -1.895  -0.038  -2.850  0.00  0.00    -0.710 OA
ENDBRANCH   4   5
BRANCH   4   8
ATOM      8  CB  ASP A  1       -3.550   1.579  -1.038  0.00  0.00    -0.030 C 
BRANCH   8  10
ATOM      9  OD1 ASP A  1       -2.918   2.880   0.834  0.00  0.00    -0.720 OA
ATOM     10  CG  ASP A  1       -3.721   2.720  -0.069  0.00  0.00    +0.530 C 
ATOM     11  OD2 ASP A  1       -4.661   3.487  -0.191  0.00  0.00    -0.700 OA
ENDBRANCH   8  10
ENDBRANCH   4   8
ENDBRANCH   1   4
BRANCH   1  12
ATOM     12  CA  ASP A  1       -3.635  -0.707   0.658  0.00  0.00    +0.120 C 
BRANCH  12  13
ATOM     13  C   ASP A  1       -4.900   0.112   0.703  0.00  0.00    +0.500 C 
ATOM     14  OXT ASP A  1       -4.947   1.125   1.381  0.00  0.00    -0.650 OA
ATOM     15  O   ASP A  1       -5.876  -0.238   0.062  0.00  0.00    -0.700 OA
ENDBRANCH  12  13
BRANCH  12  16
ATOM     16  CB  ASP A  1       -3.580  -1.627   1.879  0.00  0.00    -0.050 C 
BRANCH  16  17
ATOM     17  CG  ASP A  1       -2.379  -2.531   1.773  0.00  0.00    +0.480 C 
ATOM     18  OD2 ASP A  1       -2.150  -3.347   2.650  0.00  0.00    -0.730 OA
ATOM     19  OD1 ASP A  1       -1.637  -2.448   0.809  0.00  0.00    -0.640 OA
ENDBRANCH  16  17
ENDBRANCH  12  16
ENDBRANCH   1  12
TORSDOF 8
ENDMDL
MODEL       25
REMARK  Name = ZINC000002090498
REMARK                            x       y       z     vdW  Elec       q    Type
REMARK                         _______ _______ _______ _____ _____    ______ ____
ROOT
ATOM      1  C   UNK A  0       -4.829   0.429   0.027  0.00  0.00    +0.500 C 
ATOM      2  N   SER A  1       -6.106   0.861   0.036  0.00  0.00    -0.660 N 
ATOM      3  H   SER A  1       -6.296   1.812   0.042  0.00  0.00    +0.410 HD
ATOM      4  O   UNK A  0       -4.591  -0.761   0.020  0.00  0.00    -0.530 OA
ENDROOT
BRANCH   1   7
ATOM      5  N   UNK A  0       -2.430   0.984   0.019  0.00  0.00    -0.670 N 
ATOM      6  H   UNK A  0       -2.240   0.033   0.013  0.00  0.00    +0.420 HD
ATOM      7  C   UNK A  0       -3.707   1.416   0.027  0.00  0.00    +0.500 C 
ATOM      8  O   UNK A  0       -3.945   2.606   0.035  0.00  0.00    -0.550 OA
BRANCH   5   9
ATOM      9  C   UNK A  0       -1.330   1.951   0.019  0.00  0.00    +0.190 C 
BRANCH   9  11
ATOM     10  O   UNK A  0        0.002  -0.004   0.002  0.00  0.00    -0.690 OA
ATOM     11  C   UNK A  0       -0.015   1.215   0.009  0.00  0.00    +0.490 C 
ATOM     12  O   UNK A  0        1.033   1.839   0.002  0.00  0.00    -0.700 OA
ENDBRANCH   9  11
ENDBRANCH   5   9
ENDBRANCH   1   7
BRANCH   2  13
ATOM     13  CA  SER A  1       -7.207  -0.106   0.036  0.00  0.00    +0.170 C 
BRANCH  13  14
ATOM     14  C   SER A  1       -7.495  -0.538   1.450  0.00  0.00    +0.500 C 
ATOM     15  OXT SER A  1       -7.932  -1.655   1.669  0.00  0.00    -0.700 OA
ATOM     16  O   SER A  1       -7.293   0.229   2.376  0.00  0.00    -0.670 OA
ENDBRANCH  13  14
BRANCH  13  17
ATOM     17  CB  SER A  1       -8.456   0.543  -0.565  0.00  0.00    +0.190 C 
BRANCH  17  18
ATOM     18  OG  SER A  1       -8.890   1.610   0.280  0.00  0.00    -0.550 OA
ATOM     19  H   SER A  1       -9.680   2.068  -0.040  0.00  0.00    +0.360 HD
ENDBRANCH  17  18
ENDBRANCH  13  17
ENDBRANCH   2  13
TORSDOF 7
ENDMDL
MODEL       26
REMARK  Name = ZINC000001618084
REMARK                            x       y       z     vdW  Elec       q    Type
REMARK                         _______ _______ _______ _____ _____    ______ ____
ROOT
ATOM      1  C   LIG    1       -6.174   1.168   0.038  0.00  0.00    +0.060 C 
ENDROOT
BRANCH   1   2
ATOM      2  C   LIG    1       -4.839   0.421   0.027  0.00  0.00    +0.040 C 
BRANCH   2   5
ATOM      3  N   LIG    1       -2.430   0.984   0.019  0.00  0.00    -0.710 N 
ATOM      4  H   LIG    1       -2.240   0.033   0.013  0.00  0.00    +0.410 HD
ATOM      5  C   LIG    1       -3.707   1.416   0.027  0.00  0.00    +0.500 C 
ATOM      6  O   LIG    1       -3.945   2.605   0.035  0.00  0.00    -0.560 OA
BRANCH   3   7
ATOM      7  C   LIG    1       -1.330   1.951   0.019  0.00  0.00    +0.170 C 
BRANCH   7   9
ATOM      8  O   LIG    1        0.002  -0.004   0.002  0.00  0.00    -0.690 OA
ATOM      9  C   LIG    1       -0.015   1.215   0.009  0.00  0.00    +0.490 C 
ATOM     10  O   LIG    1        1.033   1.839   0.002  0.00  0.00    -0.690 OA
ENDBRANCH   7   9
ENDBRANCH   3   7
ENDBRANCH   2   5
ENDBRANCH   1   2
BRANCH   1  11
ATOM     11  C   LIG    1       -7.323   0.158   0.038  0.00  0.00    +0.040 C 
BRANCH  11  12
ATOM     12  C   LIG    1       -8.639   0.893   0.048  0.00  0.00    +0.500 C 
ATOM     13  N   LIG    1       -9.796   0.204   0.050  0.00  0.00    -0.710 N 
ATOM     14  H   LIG    1       -9.783  -0.766   0.044  0.00  0.00    +0.410 HD
ATOM     15  O   LIG    1       -8.655   2.106   0.054  0.00  0.00    -0.560 OA
BRANCH  13  16
ATOM     16  C   LIG    1      -11.075   0.919   0.060  0.00  0.00    +0.170 C 
BRANCH  16  17
ATOM     17  C   LIG    1      -12.207  -0.076   0.059  0.00  0.00    +0.490 C 
ATOM     18  O   LIG    1      -13.362   0.315   0.067  0.00  0.00    -0.690 OA
ATOM     19  O   LIG    1      -11.968  -1.271   0.052  0.00  0.00    -0.690 OA
ENDBRANCH  16  17
ENDBRANCH  13  16
ENDBRANCH  11  12
ENDBRANCH   1  11
TORSDOF 8
ENDMDL
MODEL       27
REMARK  Name = ZINC000005383079
REMARK                            x       y       z     vdW  Elec       q    Type
REMARK                         _______ _______ _______ _____ _____    ______ ____
ROOT
ATOM      1  C   UNK A  0       -2.550  -2.680   0.012  0.00  0.00    +0.510 C 
ATOM      2  N   ASP A  1       -2.778  -4.008   0.007  0.00  0.00    -0.650 N 
ATOM      3  H   ASP A  1       -2.032  -4.629  -0.003  0.00  0.00    +0.390 HD
ATOM      4  O   UNK A  0       -3.482  -1.905   0.025  0.00  0.00    -0.570 OA
ENDROOT
BRANCH   1   5
ATOM      5  C   UNK A  0       -1.136  -2.159   0.001  0.00  0.00    +0.280 C 
BRANCH   5   8
ATOM      6  C   UNK A  0       -0.018   1.503   0.010  0.00  0.00    +0.100 C 
ATOM      7  C   UNK A  0        0.002  -0.004   0.002  0.00  0.00    +0.510 C 
ATOM      8  N   UNK A  0       -1.156  -0.694   0.009  0.00  0.00    -0.710 N 
ATOM      9  H   UNK A  0       -2.002  -0.220   0.020  0.00  0.00    +0.410 HD
ATOM     10  O   UNK A  0        1.060  -0.596  -0.011  0.00  0.00    -0.560 OA
ENDBRANCH   5   8
ENDBRANCH   1   5
BRANCH   2  11
ATOM     11  CA  ASP A  1       -4.152  -4.516   0.018  0.00  0.00    +0.190 C 
BRANCH  11  12
ATOM     12  C   ASP A  1       -4.680  -4.566  -1.393  0.00  0.00    +0.490 C 
ATOM     13  OXT ASP A  1       -5.872  -4.418  -1.604  0.00  0.00    -0.710 OA
ATOM     14  O   ASP A  1       -3.915  -4.754  -2.324  0.00  0.00    -0.710 OA
ENDBRANCH  11  12
BRANCH  11  15
ATOM     15  CB  ASP A  1       -4.173  -5.922   0.620  0.00  0.00    -0.050 C 
BRANCH  15  16
ATOM     16  CG  ASP A  1       -3.762  -5.854   2.068  0.00  0.00    +0.490 C 
ATOM     17  OD2 ASP A  1       -3.712  -6.873   2.736  0.00  0.00    -0.720 OA
ATOM     18  OD1 ASP A  1       -3.479  -4.780   2.572  0.00  0.00    -0.690 OA
ENDBRANCH  15  16
ENDBRANCH  11  15
ENDBRANCH   2  11
TORSDOF 6
ENDMDL
MODEL       28
REMARK  Name = ZINC000004158625
REMARK                            x       y       z     vdW  Elec       q    Type
REMARK                         _______ _______ _______ _____ _____    ______ ____
ROOT
ATOM      1  C   LIG    1        0.628  -2.547   0.849  0.00  0.00    -0.470 A 
ATOM      2  N   LIG    1       -0.183  -3.270   1.569  0.00  0.00    -0.110 NA
ATOM      3  N   LIG    1       -0.330  -4.635   1.296  0.00  0.00    -0.590 N 
ATOM      4  H   LIG    1       -0.935  -5.169   1.835  0.00  0.00    +0.410 HD
ATOM      5  C   LIG    1        0.355  -5.216   0.295  0.00  0.00    +0.640 A 
ATOM      6  N   LIG    1        1.202  -4.503  -0.471  0.00  0.00    -0.700 NA
ATOM      7  O   LIG    1        0.208  -6.404   0.079  0.00  0.00    -0.630 OA
ATOM      8  C   LIG    1        1.369  -3.183  -0.244  0.00  0.00    +0.520 A 
ATOM      9  O   LIG    1        2.132  -2.532  -0.933  0.00  0.00    -0.540 OA
ENDROOT
BRANCH   1  10
ATOM     10  S   LIG    1        0.826  -0.828   1.179  0.00  0.00    +2.610 S 
ATOM     11  O   LIG    1        0.143  -0.573   2.399  0.00  0.00    -1.050 OA
ATOM     12  O   LIG    1        2.203  -0.537   0.984  0.00  0.00    -1.030 OA
BRANCH  10  13
ATOM     13  N   LIG    1        0.002  -0.004   0.002  0.00  0.00    -1.010 NA
BRANCH  13  14
ATOM     14  N   LIG    1       -0.016   1.362   0.009  0.00  0.00    -0.610 NA
ATOM     15  H   LIG    1       -0.555   1.720  -0.765  0.00  0.00    +0.320 HD
ATOM     16  H   LIG    1        0.920   1.736   0.003  0.00  0.00    +0.250 HD
ENDBRANCH  13  14
ENDBRANCH  10  13
ENDBRANCH   1  10
TORSDOF 3
ENDMDL
MODEL       29
REMARK  Name = ZINC000100329450
REMARK                            x       y       z     vdW  Elec       q    Type
REMARK                         _______ _______ _______ _____ _____    ______ ____
ROOT
ATOM      1  C   LIG    1       -0.997  -2.253  -0.001  0.00  0.00    +0.180 C 
ATOM      2  C   LIG    1       -0.851  -2.934   1.187  0.00  0.00    +0.143 C 
ATOM      3  C   LIG    1       -1.089  -2.277   2.487  0.00  0.00    +0.280 C 
ATOM      4  N   LIG    1       -0.926  -3.008   3.609  0.00  0.00    -0.123 NA
ATOM      5  C   LIG    1       -0.558  -4.296   3.559  0.00  0.00    +0.333 C 
ATOM      6  N   LIG    1       -0.325  -4.956   2.417  0.00  0.00    -0.234 N 
ATOM      7  H   LIG    1       -0.061  -5.889   2.454  0.00  0.00    +0.159 HD
ATOM      8  O   LIG    1       -0.430  -4.898   4.607  0.00  0.00    -0.250 OA
ATOM      9  O   LIG    1       -1.424  -1.109   2.545  0.00  0.00    -0.268 OA
ATOM     10  C   LIG    1       -0.455  -4.356   1.216  0.00  0.00    +0.260 C 
ATOM     11  O   LIG    1       -0.240  -4.966   0.185  0.00  0.00    -0.269 OA
ATOM     12  O   LIG    1       -0.651  -2.839  -1.157  0.00  0.00    -0.291 OA
ENDROOT
BRANCH   1  13
ATOM     13  C   LIG    1       -1.546  -0.849  -0.001  0.00  0.00    +0.154 C 
BRANCH  13  15
ATOM     14  C   LIG    1       -0.702   1.611   0.216  0.00  0.00    +0.086 C 
ATOM     15  C   LIG    1       -0.416   0.132   0.181  0.00  0.00    +0.138 C 
ATOM     16  O   LIG    1        0.717  -0.268   0.300  0.00  0.00    -0.297 OA
ENDBRANCH  13  15
ENDBRANCH   1  13
TORSDOF 2
ENDMDL
MODEL       30
REMARK  Name = ZINC000030320708
REMARK                            x       y       z     vdW  Elec       q    Type
REMARK                         _______ _______ _______ _____ _____    ______ ____
ROOT
ATOM      1  C   LIG    1       -1.586   2.506   1.417  0.00  0.00    +0.190 C 
ENDROOT
BRANCH   1   2
ATOM      2  O   LIG    1       -1.515   1.452   2.379  0.00  0.00    -0.550 OA
ATOM      3  H   LIG    1       -2.159   0.745   2.235  0.00  0.00    +0.370 HD
ENDBRANCH   1   2
BRANCH   1   4
ATOM      4  C   LIG    1       -1.329   1.939   0.019  0.00  0.00    +0.170 C 
BRANCH   4   6
ATOM      5  O   LIG    1        0.002  -0.004   0.002  0.00  0.00    -0.430 OA
ATOM      6  C   LIG    1       -0.014   1.203   0.009  0.00  0.00    +0.340 C 
BRANCH   6   7
ATOM      7  C   LIG    1        1.280   1.975   0.000  0.00  0.00    +0.190 C 
BRANCH   7   8
ATOM      8  O   LIG    1        2.379   1.061  -0.015  0.00  0.00    -0.560 OA
ATOM      9  H   LIG    1        3.246   1.489  -0.021  0.00  0.00    +0.380 HD
ENDBRANCH   7   8
ENDBRANCH   6   7
ENDBRANCH   4   6
BRANCH   4  10
ATOM     10  O   LIG    1       -2.382   1.038  -0.330  0.00  0.00    -0.530 OA
ATOM     11  H   LIG    1       -2.471   0.286   0.272  0.00  0.00    +0.380 HD
ENDBRANCH   4  10
ENDBRANCH   1   4
BRANCH   1  12
ATOM     12  C   LIG    1       -2.975   3.145   1.461  0.00  0.00    +0.210 C 
BRANCH  12  13
ATOM     13  O   LIG    1       -3.169   3.776   2.728  0.00  0.00    -0.750 OA
BRANCH  13  14
ATOM     14  P   LIG    1       -4.524   4.551   3.124  0.00  0.00    +2.130 P 
ATOM     15  O   LIG    1       -4.349   5.226   4.526  0.00  0.00    -1.170 OA
ATOM     16  O   LIG    1       -5.711   3.530   3.181  0.00  0.00    -1.190 OA
ATOM     17  O   LIG    1       -4.831   5.649   2.050  0.00  0.00    -1.190 OA
ENDBRANCH  13  14
ENDBRANCH  12  13
ENDBRANCH   1  12
TORSDOF 9
ENDMDL
MODEL       31
REMARK  Name = ZINC000025575085
REMARK                            x       y       z     vdW  Elec       q    Type
REMARK                         _______ _______ _______ _____ _____    ______ ____
ROOT
ATOM      1  C   LIG    1       -3.065  -1.700  -0.908  0.00  0.00    +0.020 A 
ATOM      2  C   LIG    1       -3.937  -1.385   0.139  0.00  0.00    +0.040 A 
ATOM      3  CA  LIG    1       -5.239  -1.888   0.111  0.00  0.00    +0.050 A 
ATOM      4  N   LIG    1       -5.650  -2.652  -0.889  0.00  0.00    -0.380 NA
ATOM      5  CA  LIG    1       -4.855  -2.972  -1.897  0.00  0.00    +0.050 A 
ATOM      6  C   LIG    1       -3.540  -2.506  -1.947  0.00  0.00    +0.060 A 
ENDROOT
BRANCH   5   7
ATOM      7  C   LIG    1       -5.368  -3.830  -2.989  0.00  0.00    +0.540 C 
ATOM      8  OXT LIG    1       -4.640  -4.130  -3.924  0.00  0.00    -0.690 OA
ATOM      9  O   LIG    1       -6.519  -4.239  -2.955  0.00  0.00    -0.660 OA
ENDBRANCH   5   7
BRANCH   3  10
ATOM     10  C   LIG    1       -6.173  -1.563   1.213  0.00  0.00    +0.540 C 
ATOM     11  OXT LIG    1       -7.314  -1.999   1.196  0.00  0.00    -0.660 OA
ATOM     12  O   LIG    1       -5.801  -0.857   2.140  0.00  0.00    -0.690 OA
ENDBRANCH   3  10
BRANCH   1  14
ATOM     13  N   LIG    1       -1.372  -0.511   0.012  0.00  0.00    -0.280 NA
ATOM     14  N   LIG    1       -1.777  -1.224  -0.918  0.00  0.00    -0.150 NA
BRANCH  13  15
ATOM     15  C   LIG    1        0.002  -0.004   0.002  0.00  0.00    +0.440 C 
BRANCH  15  16
ATOM     16  N   LIG    1       -0.018   1.465   0.010  0.00  0.00    -0.830 NA
ATOM     17  H   LIG    1       -0.556   1.823  -0.764  0.00  0.00    +0.350 HD
ATOM     18  H   LIG    1        0.919   1.839   0.003  0.00  0.00    +0.360 HD
ENDBRANCH  15  16
BRANCH  15  19
ATOM     19  N   LIG    1        0.713  -0.491   1.192  0.00  0.00    -0.820 NA
ATOM     20  H   LIG    1        0.796  -1.496   1.177  0.00  0.00    +0.350 HD
ATOM     21  H   LIG    1        0.259  -0.178   2.037  0.00  0.00    +0.360 HD
ENDBRANCH  15  19
ENDBRANCH  13  15
ENDBRANCH   1  14
TORSDOF 6
ENDMDL
MODEL       32
REMARK  Name = ZINC000008612805
REMARK                            x       y       z     vdW  Elec       q    Type
REMARK                         _______ _______ _______ _____ _____    ______ ____
ROOT
ATOM      1  C   LIG    1       -0.842   2.010   1.526  0.00  0.00    -0.310 C 
ENDROOT
BRANCH   1   3
ATOM      2  O   LIG    1        0.002  -0.004   0.002  0.00  0.00    -1.070 OA
ATOM      3  S   LIG    1       -0.018   1.450   0.010  0.00  0.00    +2.640 S 
ATOM      4  O   LIG    1       -0.762   1.952  -1.135  0.00  0.00    -1.050 OA
ATOM      5  O   LIG    1        1.339   1.974  -0.000  0.00  0.00    -1.060 OA
ENDBRANCH   1   3
BRANCH   1   6
ATOM      6  O   LIG    1       -2.179   1.505   1.555  0.00  0.00    -0.520 OA
ATOM      7  H   LIG    1       -2.724   1.793   0.810  0.00  0.00    +0.370 HD
ENDBRANCH   1   6
BRANCH   1   8
ATOM      8  C   LIG    1       -0.874   3.539   1.555  0.00  0.00    -0.310 C 
BRANCH   8   9
ATOM      9  S   LIG    1       -1.565   4.100   3.136  0.00  0.00    +2.630 S 
ATOM     10  O   LIG    1       -0.704   3.616   4.204  0.00  0.00    -1.060 OA
ATOM     11  O   LIG    1       -2.914   3.589   3.318  0.00  0.00    -1.050 OA
ATOM     12  O   LIG    1       -1.582   5.554   3.133  0.00  0.00    -1.070 OA
ENDBRANCH   8   9
BRANCH   8  13
ATOM     13  O   LIG    1       -1.688   4.019   0.483  0.00  0.00    -0.510 OA
ATOM     14  H   LIG    1       -2.605   3.714   0.518  0.00  0.00    +0.370 HD
ENDBRANCH   8  13
ENDBRANCH   1   8
TORSDOF 5
ENDMDL
MODEL       33
REMARK  Name = ZINC000020593294
REMARK                            x       y       z     vdW  Elec       q    Type
REMARK                         _______ _______ _______ _____ _____    ______ ____
ROOT
ATOM      1  S   LIG    1       -2.249  -3.305   0.006  0.00  0.00    +2.620 S 
ATOM      2  O   LIG    1       -2.922  -3.154  -1.237  0.00  0.00    -1.040 OA
ATOM      3  O   LIG    1       -2.898  -3.168   1.262  0.00  0.00    -1.050 OA
ENDROOT
BRANCH   1   4
ATOM      4  C   LIG    1       -1.530  -4.913  -0.010  0.00  0.00    -0.510 A 
ATOM      5  C   LIG    1       -1.204  -5.638   1.085  0.00  0.00    +0.020 A 
ATOM      6  C   LIG    1       -0.664  -6.850   0.633  0.00  0.00    -0.070 A 
ATOM      7  C   LIG    1       -0.688  -6.802  -0.744  0.00  0.00    -0.030 A 
ATOM      8  O   LIG    1       -1.224  -5.617  -1.106  0.00  0.00    -0.100 OA
BRANCH   7   9
ATOM      9  C   LIG    1       -0.223  -7.849  -1.651  0.00  0.00    +0.560 C 
ATOM     10  O   LIG    1       -0.297  -7.688  -2.863  0.00  0.00    -0.670 OA
ATOM     11  O   LIG    1        0.242  -8.889  -1.199  0.00  0.00    -0.670 OA
ENDBRANCH   7   9
ENDBRANCH   1   4
BRANCH   1  12
ATOM     12  N   LIG    1       -1.005  -2.212  -0.000  0.00  0.00    -1.140 NA
BRANCH  12  13
ATOM     13  C   LIG    1       -1.293  -0.775   0.010  0.00  0.00    +0.170 C 
BRANCH  13  17
ATOM     14  N   LIG    1       -0.016   1.344   0.009  0.00  0.00    -0.880 N 
ATOM     15  H   LIG    1       -0.863   1.817   0.016  0.00  0.00    +0.390 HD
ATOM     16  H   LIG    1        0.817   1.840   0.004  0.00  0.00    +0.380 HD
ATOM     17  C   LIG    1        0.002  -0.004   0.002  0.00  0.00    +0.530 C 
ATOM     18  O   LIG    1        1.060  -0.596  -0.011  0.00  0.00    -0.520 OA
ENDBRANCH  13  17
ENDBRANCH  12  13
ENDBRANCH   1  12
TORSDOF 5
ENDMDL
MODEL       34
REMARK  Name = ZINC000004811873
REMARK                            x       y       z     vdW  Elec       q    Type
REMARK                         _______ _______ _______ _____ _____    ______ ____
ROOT
ATOM      1  C   LIG    1       -1.330   1.951   0.019  0.00  0.00    -0.080 C 
ATOM      2  C   LIG    1       -1.100   3.490   0.090  0.00  0.00    +0.210 C 
ATOM      3  O   LIG    1       -2.310   3.927   0.792  0.00  0.00    -0.380 OA
ATOM      4  C   LIG    1       -2.230   3.070   1.978  0.00  0.00    +0.230 C 
ATOM      5  C   LIG    1       -0.807   3.417   2.509  0.00  0.00    +0.010 C 
ATOM      6  O   LIG    1        0.272   2.587   2.076  0.00  0.00    -0.300 OA
ATOM      7  C   LIG    1       -0.005   3.694   1.179  0.00  0.00    +0.170 C 
ATOM      8  C   LIG    1       -2.114   1.655   1.323  0.00  0.00    -0.070 C 
ENDROOT
BRANCH   1  10
ATOM      9  O   LIG    1        0.002  -0.004   0.002  0.00  0.00    -0.700 OA
ATOM     10  C   LIG    1       -0.015   1.215   0.009  0.00  0.00    +0.520 C 
ATOM     11  O   LIG    1        1.033   1.839   0.002  0.00  0.00    -0.700 OA
ENDBRANCH   1  10
BRANCH   8  12
ATOM     12  C   LIG    1       -3.479   1.093   1.020  0.00  0.00    +0.510 C 
ATOM     13  O   LIG    1       -4.432   1.399   1.716  0.00  0.00    -0.720 OA
ATOM     14  O   LIG    1       -3.630   0.333   0.079  0.00  0.00    -0.690 OA
ENDBRANCH   8  12
TORSDOF 2
ENDMDL
MODEL       35
REMARK  Name = ZINC000003861123
REMARK                            x       y       z     vdW  Elec       q    Type
REMARK                         _______ _______ _______ _____ _____    ______ ____
ROOT
ATOM      1  C   LIG    1       -1.330   1.951   0.019  0.00  0.00    +0.050 C 
ATOM      2  O   LIG    1       -1.108   3.377  -0.023  0.00  0.00    -0.330 OA
ATOM      3  C   LIG    1       -2.327   3.966   0.481  0.00  0.00    +0.070 C 
ATOM      4  C   LIG    1       -2.744   3.062   1.662  0.00  0.00    -0.060 C 
ATOM      5  C   LIG    1       -2.074   1.703   1.350  0.00  0.00    -0.100 C 
ENDROOT
BRANCH   1   7
ATOM      6  O   LIG    1        0.002  -0.004   0.002  0.00  0.00    -0.710 OA
ATOM      7  C   LIG    1       -0.015   1.215   0.009  0.00  0.00    +0.520 C 
ATOM      8  O   LIG    1        1.033   1.839   0.002  0.00  0.00    -0.690 OA
ENDBRANCH   1   7
BRANCH   4   9
ATOM      9  C   LIG    1       -4.243   2.914   1.710  0.00  0.00    +0.520 C 
ATOM     10  O   LIG    1       -4.759   2.212   2.563  0.00  0.00    -0.730 OA
ATOM     11  O   LIG    1       -4.939   3.497   0.897  0.00  0.00    -0.710 OA
ENDBRANCH   4   9
BRANCH   3  12
ATOM     12  C   LIG    1       -2.071   5.373   0.959  0.00  0.00    +0.520 C 
ATOM     13  O   LIG    1       -2.979   6.026   1.445  0.00  0.00    -0.720 OA
ATOM     14  O   LIG    1       -0.957   5.857   0.859  0.00  0.00    -0.710 OA
ENDBRANCH   3  12
BRANCH   5  15
ATOM     15  C   LIG    1       -1.101   1.331   2.439  0.00  0.00    +0.530 C 
ATOM     16  O   LIG    1       -0.390   2.186   2.939  0.00  0.00    -0.700 OA
ATOM     17  O   LIG    1       -1.025   0.176   2.820  0.00  0.00    -0.730 OA
ENDBRANCH   5  15
TORSDOF 4
ENDMDL
MODEL       36
REMARK  Name = ZINC000002124216
REMARK                            x       y       z     vdW  Elec       q    Type
REMARK                         _______ _______ _______ _____ _____    ______ ____
ROOT
ATOM      1  C   UNK A  0       -2.551  -4.195   0.004  0.00  0.00    +0.510 C 
ATOM      2  N   ASP A  1       -3.709  -4.885   0.011  0.00  0.00    -0.660 N 
ATOM      3  H   ASP A  1       -4.555  -4.411   0.022  0.00  0.00    +0.390 HD
ATOM      4  O   UNK A  0       -1.492  -4.787  -0.009  0.00  0.00    -0.560 OA
ENDROOT
BRANCH   1   5
ATOM      5  C   UNK A  0       -2.571  -2.688   0.012  0.00  0.00    +0.030 C 
BRANCH   5   6
ATOM      6  C   UNK A  0       -1.136  -2.159   0.001  0.00  0.00    +0.290 C 
BRANCH   6   9
ATOM      7  C   UNK A  0       -0.018   1.503   0.010  0.00  0.00    +0.080 C 
ATOM      8  C   UNK A  0        0.002  -0.004   0.002  0.00  0.00    +0.500 C 
ATOM      9  N   UNK A  0       -1.156  -0.694   0.009  0.00  0.00    -0.730 N 
ATOM     10  H   UNK A  0       -2.002  -0.220   0.020  0.00  0.00    +0.400 HD
ATOM     11  O   UNK A  0        1.060  -0.596  -0.011  0.00  0.00    -0.550 OA
ENDBRANCH   6   9
ENDBRANCH   5   6
ENDBRANCH   1   5
BRANCH   2  12
ATOM     12  CA  ASP A  1       -3.689  -6.350   0.003  0.00  0.00    +0.180 C 
BRANCH  12  13
ATOM     13  C   ASP A  1       -3.545  -6.858   1.415  0.00  0.00    +0.490 C 
ATOM     14  OXT ASP A  1       -2.979  -7.917   1.626  0.00  0.00    -0.710 OA
ATOM     15  O   ASP A  1       -3.994  -6.210   2.345  0.00  0.00    -0.710 OA
ENDBRANCH  12  13
BRANCH  12  16
ATOM     16  CB  ASP A  1       -4.995  -6.874  -0.597  0.00  0.00    -0.050 C 
BRANCH  16  17
ATOM     17  CG  ASP A  1       -5.081  -6.468  -2.046  0.00  0.00    +0.490 C 
ATOM     18  OD2 ASP A  1       -6.050  -6.789  -2.712  0.00  0.00    -0.720 OA
ATOM     19  OD1 ASP A  1       -4.181  -5.820  -2.551  0.00  0.00    -0.690 OA
ENDBRANCH  16  17
ENDBRANCH  12  16
ENDBRANCH   2  12
TORSDOF 7
ENDMDL
MODEL       37
REMARK  Name = ZINC000001628113
REMARK                            x       y       z     vdW  Elec       q    Type
REMARK                         _______ _______ _______ _____ _____    ______ ____
ROOT
ATOM      1  C   LIG    1       -2.479   0.941   0.019  0.00  0.00    +0.050 C 
ENDROOT
BRANCH   1   2
ATOM      2  C   LIG    1       -1.330   1.951   0.019  0.00  0.00    -0.160 C 
BRANCH   2   4
ATOM      3  O   LIG    1        0.002  -0.004   0.002  0.00  0.00    -0.720 OA
ATOM      4  C   LIG    1       -0.015   1.215   0.009  0.00  0.00    +0.530 C 
ATOM      5  O   LIG    1        1.033   1.839   0.002  0.00  0.00    -0.740 OA
ENDBRANCH   2   4
BRANCH   2   6
ATOM      6  C   LIG    1       -1.415   2.809   1.254  0.00  0.00    +0.540 C 
ATOM      7  O   LIG    1       -1.356   2.296   2.359  0.00  0.00    -0.730 OA
ATOM      8  O   LIG    1       -1.544   4.017   1.150  0.00  0.00    -0.730 OA
ENDBRANCH   2   6
ENDBRANCH   1   2
BRANCH   1   9
ATOM      9  C   LIG    1       -3.811   1.684  -0.096  0.00  0.00    -0.160 C 
BRANCH   9  10
ATOM     10  C   LIG    1       -4.947   0.702   0.027  0.00  0.00    +0.530 C 
ATOM     11  O   LIG    1       -6.100   1.092  -0.038  0.00  0.00    -0.740 OA
ATOM     12  O   LIG    1       -4.713  -0.483   0.192  0.00  0.00    -0.720 OA
ENDBRANCH   9  10
BRANCH   9  13
ATOM     13  C   LIG    1       -3.887   2.375  -1.434  0.00  0.00    +0.540 C 
ATOM     14  O   LIG    1       -4.011   3.586  -1.488  0.00  0.00    -0.730 OA
ATOM     15  O   LIG    1       -3.824   1.721  -2.462  0.00  0.00    -0.730 OA
ENDBRANCH   9  13
ENDBRANCH   1   9
TORSDOF 6
ENDMDL
MODEL       38
REMARK  Name = ZINC000001958509
REMARK                            x       y       z     vdW  Elec       q    Type
REMARK                         _______ _______ _______ _____ _____    ______ ____
ROOT
ATOM      1  N   LIG    1       -2.348  -0.027   0.024  0.00  0.00    -0.280 NA
ENDROOT
BRANCH   1   2
ATOM      2  N   LIG    1       -1.156  -0.694   0.009  0.00  0.00    -0.510 N 
ATOM      3  H   LIG    1       -1.143  -1.664   0.004  0.00  0.00    +0.390 HD
BRANCH   2   4
ATOM      4  C   LIG    1        0.002  -0.004   0.002  0.00  0.00    +0.700 C 
ATOM      5  S   LIG    1        1.496  -0.840  -0.017  0.00  0.00    -0.780 S 
BRANCH   4   6
ATOM      6  N   LIG    1       -0.016   1.344   0.009  0.00  0.00    -0.740 N 
ATOM      7  H   LIG    1       -0.863   1.817   0.016  0.00  0.00    +0.410 HD
ATOM      8  H   LIG    1        0.817   1.840   0.004  0.00  0.00    +0.410 HD
ENDBRANCH   4   6
ENDBRANCH   2   4
ENDBRANCH   1   2
BRANCH   1   9
ATOM      9  C   LIG    1       -3.131  -0.375   1.218  0.00  0.00    +0.080 C 
BRANCH   9  10
ATOM     10  C   LIG    1       -2.409   0.107   2.450  0.00  0.00    +0.500 C 
ATOM     11  O   LIG    1       -2.893  -0.082   3.553  0.00  0.00    -0.710 OA
ATOM     12  O   LIG    1       -1.342   0.687   2.344  0.00  0.00    -0.670 OA
ENDBRANCH   9  10
ENDBRANCH   1   9
BRANCH   1  13
ATOM     13  C   LIG    1       -3.113  -0.289  -1.202  0.00  0.00    +0.070 C 
BRANCH  13  14
ATOM     14  C   LIG    1       -2.374   0.279  -2.386  0.00  0.00    +0.500 C 
ATOM     15  O   LIG    1       -2.842   0.169  -3.507  0.00  0.00    -0.710 OA
ATOM     16  O   LIG    1       -1.309   0.849  -2.224  0.00  0.00    -0.670 OA
ENDBRANCH  13  14
ENDBRANCH   1  13
TORSDOF 7
ENDMDL
MODEL       39
REMARK  Name = ZINC000003995852
REMARK                            x       y       z     vdW  Elec       q    Type
REMARK                         _______ _______ _______ _____ _____    ______ ____
ROOT
ATOM      1  C   LIG    1       -0.699   1.479   1.216  0.00  0.00    +0.091 C 
ATOM      2  C   LIG    1       -2.122   0.896   1.276  0.00  0.00    +0.085 C 
ATOM      3  C   LIG    1       -2.201   0.058   2.569  0.00  0.00    +0.122 C 
ATOM      4  C   LIG    1       -0.728  -0.313   2.872  0.00  0.00    +0.122 C 
ATOM      5  C   LIG    1        0.037   0.975   2.475  0.00  0.00    +0.085 C 
ENDROOT
BRANCH   1   6
ATOM      6  N   LIG    1       -0.012   1.005   0.008  0.00  0.00    +0.231 N 
ATOM      7  H   LIG    1       -0.500   1.339  -0.810  0.00  0.00    +0.201 HD
ATOM      8  H   LIG    1        0.935   1.354   0.000  0.00  0.00    +0.201 HD
ATOM      9  H   LIG    1        0.002  -0.004   0.002  0.00  0.00    +0.201 HD
ENDBRANCH   1   6
BRANCH   4  10
ATOM     10  C   LIG    1       -0.544  -0.617   4.336  0.00  0.00    +0.360 C 
ATOM     11  O   LIG    1       -1.115   0.058   5.176  0.00  0.00    -0.246 OA
ATOM     12  O   LIG    1        0.175  -1.539   4.682  0.00  0.00    -0.246 OA
ENDBRANCH   4  10
BRANCH   3  13
ATOM     13  C   LIG    1       -3.024  -1.184   2.343  0.00  0.00    +0.360 C 
ATOM     14  O   LIG    1       -3.177  -1.987   3.248  0.00  0.00    -0.246 OA
ATOM     15  O   LIG    1       -3.537  -1.386   1.255  0.00  0.00    -0.246 OA
ENDBRANCH   3  13
BRANCH   1  16
ATOM     16  C   LIG    1       -0.757   2.985   1.220  0.00  0.00    +0.406 C 
ATOM     17  O   LIG    1       -1.302   3.571   2.139  0.00  0.00    -0.240 OA
ATOM     18  O   LIG    1       -0.257   3.616   0.305  0.00  0.00    -0.240 OA
ENDBRANCH   1  16
TORSDOF 4
ENDMDL
MODEL       40
REMARK  Name = ZINC000002575698
REMARK                            x       y       z     vdW  Elec       q    Type
REMARK                         _______ _______ _______ _____ _____    ______ ____
ROOT
ATOM      1  C   LIG    1       -0.699   1.479   1.216  0.00  0.00    -0.030 C 
ATOM      2  C   LIG    1       -2.126   0.894   1.276  0.00  0.00    +0.070 C 
ATOM      3  C   LIG    1       -1.985  -0.359   2.175  0.00  0.00    -0.070 C 
ATOM      4  C   LIG    1       -0.971   0.103   3.251  0.00  0.00    -0.050 C 
ATOM      5  C   LIG    1        0.035   0.976   2.472  0.00  0.00    +0.050 C 
ENDROOT
BRANCH   1   6
ATOM      6  N   LIG    1       -0.012   1.005   0.008  0.00  0.00    -0.600 N 
ATOM      7  H   LIG    1       -0.500   1.339  -0.810  0.00  0.00    +0.420 HD
ATOM      8  H   LIG    1        0.935   1.354   0.000  0.00  0.00    +0.420 HD
ATOM      9  H   LIG    1        0.002  -0.004   0.002  0.00  0.00    +0.410 HD
ENDBRANCH   1   6
BRANCH   4  10
ATOM     10  C   LIG    1       -0.277  -1.084   3.867  0.00  0.00    +0.500 C 
ATOM     11  O   LIG    1       -0.855  -2.155   3.946  0.00  0.00    -0.680 OA
ATOM     12  O   LIG    1        0.863  -0.974   4.286  0.00  0.00    -0.730 OA
ENDBRANCH   4  10
BRANCH   3  13
ATOM     13  C   LIG    1       -3.308  -0.718   2.802  0.00  0.00    +0.510 C 
ATOM     14  O   LIG    1       -3.429  -0.712   4.015  0.00  0.00    -0.670 OA
ATOM     15  O   LIG    1       -4.256  -1.015   2.096  0.00  0.00    -0.730 OA
ENDBRANCH   3  13
BRANCH   1  16
ATOM     16  C   LIG    1       -0.757   2.985   1.220  0.00  0.00    +0.510 C 
ATOM     17  O   LIG    1       -1.302   3.571   2.139  0.00  0.00    -0.630 OA
ATOM     18  O   LIG    1       -0.257   3.616   0.305  0.00  0.00    -0.700 OA
ENDBRANCH   1  16
TORSDOF 4
ENDMDL
MODEL       41
REMARK  Name = ZINC000013516910
REMARK                            x       y       z     vdW  Elec       q    Type
REMARK                         _______ _______ _______ _____ _____    ______ ____
ROOT
ATOM      1  C   LIG    1       -1.706   3.608   2.960  0.00  0.00    +0.190 C 
ATOM      2  O   LIG    1       -3.041   3.108   2.818  0.00  0.00    -0.330 OA
ATOM      3  C   LIG    1       -3.987   4.165   3.046  0.00  0.00    +0.120 C 
ATOM      4  C   LIG    1       -3.241   5.192   3.934  0.00  0.00    +0.120 C 
ATOM      5  C   LIG    1       -1.803   5.098   3.351  0.00  0.00    +0.180 C 
ENDROOT
BRANCH   4   6
ATOM      6  O   LIG    1       -3.265   4.798   5.308  0.00  0.00    -0.540 OA
ATOM      7  H   LIG    1       -4.154   4.739   5.684  0.00  0.00    +0.370 HD
ENDBRANCH   4   6
BRANCH   5   8
ATOM      8  O   LIG    1       -0.829   5.435   4.341  0.00  0.00    -0.530 OA
ATOM      9  H   LIG    1       -0.908   6.338   4.680  0.00  0.00    +0.370 HD
ENDBRANCH   5   8
BRANCH   1  10
ATOM     10  C   LIG    1       -0.956   3.467   1.634  0.00  0.00    +0.220 C 
BRANCH  10  11
ATOM     11  O   LIG    1       -0.773   2.082   1.335  0.00  0.00    -0.750 OA
BRANCH  11  13
ATOM     12  O   LIG    1        0.002  -0.004   0.002  0.00  0.00    -1.170 OA
ATOM     13  P   LIG    1       -0.019   1.562   0.011  0.00  0.00    +2.130 P 
ATOM     14  O   LIG    1       -0.777   2.081  -1.259  0.00  0.00    -1.190 OA
ATOM     15  O   LIG    1        1.451   2.105  -0.001  0.00  0.00    -1.190 OA
ENDBRANCH  11  13
ENDBRANCH  10  11
ENDBRANCH   1  10
BRANCH   3  16
ATOM     16  C   LIG    1       -5.220   3.626   3.775  0.00  0.00    +0.190 C 
BRANCH  16  17
ATOM     17  O   LIG    1       -5.921   2.721   2.920  0.00  0.00    -0.550 OA
ATOM     18  H   LIG    1       -6.716   2.340   3.318  0.00  0.00    +0.370 HD
ENDBRANCH  16  17
ENDBRANCH   3  16
TORSDOF 7
ENDMDL
MODEL       42
REMARK  Name = ZINC000006013664
REMARK                            x       y       z     vdW  Elec       q    Type
REMARK                         _______ _______ _______ _____ _____    ______ ____
ROOT
ATOM      1  N   LIG    1       -2.489   1.052   0.099  0.00  0.00    -0.490 NA
ENDROOT
BRANCH   1   2
ATOM      2  C   LIG    1       -2.576   0.198  -1.093  0.00  0.00    +0.430 C 
ATOM      3  N   LIG    1       -2.401   1.000  -2.312  0.00  0.00    -0.150 NA
ATOM      4  N   LIG    1       -1.405   0.596  -2.915  0.00  0.00    +0.020 NA
ATOM      5  N   LIG    1       -0.773  -0.466  -2.269  0.00  0.00    -0.560 N 
ATOM      6  H   LIG    1        0.024  -0.921  -2.584  0.00  0.00    +0.430 HD
ATOM      7  N   LIG    1       -1.458  -0.768  -1.118  0.00  0.00    -0.440 NA
ATOM      8  H   LIG    1       -0.868  -0.659  -0.307  0.00  0.00    +0.330 HD
ENDBRANCH   1   2
BRANCH   1   9
ATOM      9  C   LIG    1       -1.314   1.931   0.032  0.00  0.00    +0.120 C 
BRANCH   9  11
ATOM     10  O   LIG    1       -2.566   2.995  -1.670  0.00  0.00    -0.640 OA
ATOM     11  C   LIG    1       -1.545   3.001  -1.004  0.00  0.00    +0.470 C 
ATOM     12  O   LIG    1       -0.713   3.876  -1.172  0.00  0.00    -0.720 OA
ENDBRANCH   9  11
ENDBRANCH   1   9
BRANCH   1  13
ATOM     13  C   LIG    1       -3.721   1.833   0.278  0.00  0.00    +0.130 C 
BRANCH  13  14
ATOM     14  C   LIG    1       -3.698   2.505   1.627  0.00  0.00    +0.500 C 
ATOM     15  O   LIG    1       -4.633   3.205   1.975  0.00  0.00    -0.720 OA
ATOM     16  O   LIG    1       -2.744   2.347   2.370  0.00  0.00    -0.690 OA
ENDBRANCH  13  14
ENDBRANCH   1  13
TORSDOF 5
ENDMDL
MODEL       43
REMARK  Name = ZINC000001529626
REMARK                            x       y       z     vdW  Elec       q    Type
REMARK                         _______ _______ _______ _____ _____    ______ ____
ROOT
ATOM      1  C   LIG    1       -1.659   2.414  -1.398  0.00  0.00    +0.190 C 
ENDROOT
BRANCH   1   2
ATOM      2  O   LIG    1       -1.637   1.300  -2.291  0.00  0.00    -0.550 OA
ATOM      3  H   LIG    1       -2.271   0.604  -2.069  0.00  0.00    +0.370 HD
ENDBRANCH   1   2
BRANCH   1   4
ATOM      4  C   LIG    1       -1.329   1.939   0.019  0.00  0.00    +0.170 C 
BRANCH   4   6
ATOM      5  O   LIG    1        0.002  -0.004   0.002  0.00  0.00    -0.430 OA
ATOM      6  C   LIG    1       -0.014   1.203   0.009  0.00  0.00    +0.340 C 
BRANCH   6   7
ATOM      7  C   LIG    1        1.280   1.975   0.000  0.00  0.00    +0.190 C 
BRANCH   7   8
ATOM      8  O   LIG    1        2.379   1.061  -0.015  0.00  0.00    -0.560 OA
ATOM      9  H   LIG    1        3.246   1.489  -0.021  0.00  0.00    +0.380 HD
ENDBRANCH   7   8
ENDBRANCH   6   7
ENDBRANCH   4   6
BRANCH   4  10
ATOM     10  O   LIG    1       -2.361   1.064   0.480  0.00  0.00    -0.530 OA
ATOM     11  H   LIG    1       -2.480   0.275  -0.066  0.00  0.00    +0.380 HD
ENDBRANCH   4  10
ENDBRANCH   1   4
BRANCH   1  12
ATOM     12  C   LIG    1       -3.050   3.051  -1.411  0.00  0.00    +0.200 C 
BRANCH  12  13
ATOM     13  O   LIG    1       -3.311   3.599  -2.705  0.00  0.00    -0.750 OA
BRANCH  13  14
ATOM     14  P   LIG    1       -4.686   4.348  -3.079  0.00  0.00    +2.130 P 
ATOM     15  O   LIG    1       -4.687   4.706  -4.605  0.00  0.00    -1.170 OA
ATOM     16  O   LIG    1       -4.812   5.661  -2.234  0.00  0.00    -1.190 OA
ATOM     17  O   LIG    1       -5.897   3.405  -2.764  0.00  0.00    -1.190 OA
ENDBRANCH  13  14
ENDBRANCH  12  13
ENDBRANCH   1  12
TORSDOF 9
ENDMDL
MODEL       44
REMARK  Name = ZINC000001532567
REMARK                            x       y       z     vdW  Elec       q    Type
REMARK                         _______ _______ _______ _____ _____    ______ ____
ROOT
ATOM      1  C   LIG    1       -1.659   2.414  -1.398  0.00  0.00    +0.190 C 
ENDROOT
BRANCH   1   2
ATOM      2  O   LIG    1       -0.627   3.289  -1.859  0.00  0.00    -0.550 OA
ATOM      3  H   LIG    1       -0.508   4.079  -1.313  0.00  0.00    +0.370 HD
ENDBRANCH   1   2
BRANCH   1   4
ATOM      4  C   LIG    1       -1.329   1.939   0.019  0.00  0.00    +0.170 C 
BRANCH   4   6
ATOM      5  O   LIG    1        0.002  -0.004   0.002  0.00  0.00    -0.440 OA
ATOM      6  C   LIG    1       -0.014   1.203   0.009  0.00  0.00    +0.340 C 
BRANCH   6   7
ATOM      7  C   LIG    1        1.280   1.975   0.000  0.00  0.00    +0.200 C 
BRANCH   7   8
ATOM      8  O   LIG    1        2.379   1.061  -0.015  0.00  0.00    -0.560 OA
ATOM      9  H   LIG    1        3.246   1.489  -0.021  0.00  0.00    +0.380 HD
ENDBRANCH   7   8
ENDBRANCH   6   7
ENDBRANCH   4   6
BRANCH   4  10
ATOM     10  O   LIG    1       -2.361   1.064   0.480  0.00  0.00    -0.530 OA
ATOM     11  H   LIG    1       -2.480   0.275  -0.066  0.00  0.00    +0.390 HD
ENDBRANCH   4  10
ENDBRANCH   1   4
BRANCH   1  12
ATOM     12  C   LIG    1       -2.994   3.161  -1.387  0.00  0.00    +0.210 C 
BRANCH  12  13
ATOM     13  O   LIG    1       -3.359   3.504  -2.726  0.00  0.00    -0.750 OA
BRANCH  13  14
ATOM     14  P   LIG    1       -4.711   4.298  -3.090  0.00  0.00    +2.130 P 
ATOM     15  O   LIG    1       -4.857   4.393  -4.647  0.00  0.00    -1.170 OA
ATOM     16  O   LIG    1       -4.648   5.741  -2.483  0.00  0.00    -1.190 OA
ATOM     17  O   LIG    1       -5.942   3.534  -2.495  0.00  0.00    -1.190 OA
ENDBRANCH  13  14
ENDBRANCH  12  13
ENDBRANCH   1  12
TORSDOF 9
ENDMDL
MODEL       45
REMARK  Name = ZINC000100029384
REMARK                            x       y       z     vdW  Elec       q    Type
REMARK                         _______ _______ _______ _____ _____    ______ ____
ROOT
ATOM      1  C   LIG    1        0.849  -2.021  -1.205  0.00  0.00    +0.170 C 
ENDROOT
BRANCH   1   2
ATOM      2  C   LIG    1        1.555  -2.507  -2.445  0.00  0.00    +0.320 C 
ATOM      3  O   LIG    1        0.917  -2.967  -3.361  0.00  0.00    -0.430 OA
BRANCH   2   4
ATOM      4  C   LIG    1        3.056  -2.419  -2.541  0.00  0.00    +0.230 C 
BRANCH   4   5
ATOM      5  O   LIG    1        3.484  -2.938  -3.802  0.00  0.00    -0.740 OA
BRANCH   5   6
ATOM      6  P   LIG    1        5.030  -2.999  -4.246  0.00  0.00    +2.120 P 
ATOM      7  O   LIG    1        5.129  -3.503  -5.726  0.00  0.00    -1.160 OA
ATOM      8  O   LIG    1        5.804  -3.985  -3.306  0.00  0.00    -1.190 OA
ATOM      9  O   LIG    1        5.662  -1.570  -4.137  0.00  0.00    -1.180 OA
ENDBRANCH   5   6
ENDBRANCH   4   5
ENDBRANCH   2   4
ENDBRANCH   1   2
BRANCH   1  10
ATOM     10  O   LIG    1       -0.451  -2.609  -1.135  0.00  0.00    -0.540 OA
ATOM     11  H   LIG    1       -1.020  -2.397  -1.889  0.00  0.00    +0.380 HD
ENDBRANCH   1  10
BRANCH   1  12
ATOM     12  C   LIG    1        0.718  -0.497  -1.257  0.00  0.00    +0.160 C 
BRANCH  12  14
ATOM     13  C   LIG    1       -0.019   1.526   0.010  0.00  0.00    +0.020 C 
ATOM     14  C   LIG    1        0.002  -0.004   0.002  0.00  0.00    +0.190 C 
BRANCH  14  15
ATOM     15  O   LIG    1        0.693  -0.477   1.160  0.00  0.00    -0.560 OA
ATOM     16  H   LIG    1        1.611  -0.180   1.219  0.00  0.00    +0.370 HD
ENDBRANCH  14  15
ENDBRANCH  12  14
BRANCH  12  17
ATOM     17  O   LIG    1        2.019   0.090  -1.326  0.00  0.00    -0.540 OA
ATOM     18  H   LIG    1        2.587  -0.122  -0.573  0.00  0.00    +0.380 HD
ENDBRANCH  12  17
ENDBRANCH   1  12
TORSDOF 9
ENDMDL
MODEL       46
REMARK  Name = ZINC000001529332
REMARK                            x       y       z     vdW  Elec       q    Type
REMARK                         _______ _______ _______ _____ _____    ______ ____
ROOT
ATOM      1  C   LIG    1       -1.353   1.940  -0.066  0.00  0.00    +0.060 C 
ATOM      2  C   LIG    1       -2.533   1.281  -0.096  0.00  0.00    -0.320 C 
ENDROOT
BRANCH   1   4
ATOM      3  O   LIG    1        0.401   0.838  -1.170  0.00  0.00    -0.690 OA
ATOM      4  C   LIG    1       -0.078   1.181  -0.099  0.00  0.00    +0.600 C 
ATOM      5  O   LIG    1        0.495   0.904   0.944  0.00  0.00    -0.700 OA
ENDBRANCH   1   4
BRANCH   2   6
ATOM      6  C   LIG    1       -2.557  -0.183  -0.017  0.00  0.00    +0.540 C 
ATOM      7  O   LIG    1       -3.626  -0.775   0.050  0.00  0.00    -0.720 OA
ATOM      8  O   LIG    1       -1.508  -0.814  -0.019  0.00  0.00    -0.680 OA
ENDBRANCH   2   6
BRANCH   1   9
ATOM      9  O   LIG    1       -1.334   3.291  -0.006  0.00  0.00    -0.490 OA
ATOM     10  H   LIG    1       -2.208   3.692   0.094  0.00  0.00    +0.360 HD
ENDBRANCH   1   9
BRANCH   2  11
ATOM     11  C   LIG    1       -3.823   2.051  -0.209  0.00  0.00    +0.160 C 
BRANCH  11  12
ATOM     12  C   LIG    1       -4.506   1.699  -1.505  0.00  0.00    +0.500 C 
ATOM     13  O   LIG    1       -3.985   1.990  -2.568  0.00  0.00    -0.710 OA
ATOM     14  O   LIG    1       -5.581   1.122  -1.490  0.00  0.00    -0.700 OA
ENDBRANCH  11  12
BRANCH  11  15
ATOM     15  O   LIG    1       -4.677   1.715   0.887  0.00  0.00    -0.580 OA
ATOM     16  H   LIG    1       -4.907   0.776   0.932  0.00  0.00    +0.390 HD
ENDBRANCH  11  15
ENDBRANCH   2  11
TORSDOF 6
ENDMDL
MODEL       47
REMARK  Name = ZINC000003208092
REMARK                            x       y       z     vdW  Elec       q    Type
REMARK                         _______ _______ _______ _____ _____    ______ ____
ROOT
ATOM      1  C   LIG    1       -3.794   1.676   0.029  0.00  0.00    -0.420 A 
ATOM      2  C   LIG    1       -4.469   1.931  -1.158  0.00  0.00    +0.490 A 
ATOM      3  N   LIG    1       -5.654   2.596  -1.123  0.00  0.00    -0.650 N 
ATOM      4  H   LIG    1       -6.129   2.776  -1.950  0.00  0.00    +0.410 HD
ATOM      5  C   LIG    1       -6.174   3.006   0.048  0.00  0.00    +0.700 A 
ATOM      6  N   LIG    1       -5.538   2.771   1.210  0.00  0.00    -0.650 N 
ATOM      7  H   LIG    1       -5.931   3.075   2.043  0.00  0.00    +0.410 HD
ATOM      8  O   LIG    1       -7.235   3.600   0.056  0.00  0.00    -0.600 OA
ATOM      9  O   LIG    1       -3.958   1.526  -2.323  0.00  0.00    -0.650 OA
ATOM     10  C   LIG    1       -4.353   2.105   1.226  0.00  0.00    +0.490 A 
ATOM     11  O   LIG    1       -3.727   1.874   2.382  0.00  0.00    -0.650 OA
ENDROOT
BRANCH   1  12
ATOM     12  C   LIG    1       -2.479   0.941   0.019  0.00  0.00    +0.130 C 
BRANCH  12  13
ATOM     13  C   LIG    1       -1.330   1.951   0.019  0.00  0.00    -0.080 C 
BRANCH  13  15
ATOM     14  O   LIG    1        0.002  -0.004   0.002  0.00  0.00    -0.710 OA
ATOM     15  C   LIG    1       -0.015   1.215   0.009  0.00  0.00    +0.490 C 
ATOM     16  O   LIG    1        1.033   1.839   0.002  0.00  0.00    -0.730 OA
ENDBRANCH  13  15
ENDBRANCH  12  13
ENDBRANCH   1  12
TORSDOF 3
ENDMDL
MODEL       48
REMARK  Name = ZINC000002686108
REMARK                            x       y       z     vdW  Elec       q    Type
REMARK                         _______ _______ _______ _____ _____    ______ ____
ROOT
ATOM      1  N   VAL A  1       -2.142  -0.048  -1.174  0.00  0.00    -0.670 N 
ATOM      2  H   VAL A  1       -1.644   0.194  -1.971  0.00  0.00    +0.400 HD
ENDROOT
BRANCH   1   3
ATOM      3  C   UNK A  0       -3.532   0.066  -1.158  0.00  0.00    +0.280 A 
ATOM      4  N   UNK A  0       -4.213  -0.252  -0.088  0.00  0.00    -0.330 NA
ATOM      5  N   UNK A  0       -5.607  -0.131  -0.088  0.00  0.00    -0.580 N 
ATOM      6  H   UNK A  0       -6.108  -0.368   0.708  0.00  0.00    +0.410 HD
ATOM      7  C   UNK A  0       -6.263   0.309  -1.177  0.00  0.00    +0.640 A 
ATOM      8  N   UNK A  0       -5.601   0.647  -2.299  0.00  0.00    -0.700 NA
ATOM      9  O   UNK A  0       -7.476   0.403  -1.146  0.00  0.00    -0.640 OA
ATOM     10  C   UNK A  0       -4.256   0.552  -2.344  0.00  0.00    +0.500 A 
ATOM     11  O   UNK A  0       -3.650   0.857  -3.355  0.00  0.00    -0.590 OA
ENDBRANCH   1   3
BRANCH   1  12
ATOM     12  CA  VAL A  1       -1.433  -0.534   0.013  0.00  0.00    +0.160 C 
BRANCH  12  14
ATOM     13  CG1 VAL A  1       -0.019   1.526   0.010  0.00  0.00    +0.010 C 
ATOM     14  CB  VAL A  1        0.002  -0.004   0.002  0.00  0.00    -0.020 C 
ATOM     15  CG2 VAL A  1        0.742  -0.511   1.242  0.00  0.00    +0.030 C 
ENDBRANCH  12  14
BRANCH  12  16
ATOM     16  C   VAL A  1       -1.413  -2.041   0.005  0.00  0.00    +0.490 C 
ATOM     17  OXT VAL A  1       -1.415  -2.644  -1.055  0.00  0.00    -0.690 OA
ATOM     18  O   VAL A  1       -1.395  -2.656   1.057  0.00  0.00    -0.710 OA
ENDBRANCH  12  16
ENDBRANCH   1  12
TORSDOF 4
ENDMDL
MODEL       49
REMARK  Name = ZINC000002527900
REMARK                            x       y       z     vdW  Elec       q    Type
REMARK                         _______ _______ _______ _____ _____    ______ ____
ROOT
ATOM      1  N   LIG    1       -3.850   1.642   0.099  0.00  0.00    -0.330 N 
ATOM      2  H   LIG    1       -3.938   2.416   0.741  0.00  0.00    +0.390 HD
ENDROOT
BRANCH   1   3
ATOM      3  C   LIG    1       -2.643   0.871   0.425  0.00  0.00    +0.260 C 
BRANCH   3   4
ATOM      4  C   LIG    1       -1.433   1.806   0.461  0.00  0.00    -0.080 C 
BRANCH   4   6
ATOM      5  O   LIG    1       -0.274  -0.187   0.988  0.00  0.00    -0.690 OA
ATOM      6  C   LIG    1       -0.196   1.014   0.796  0.00  0.00    +0.500 C 
ATOM      7  O   LIG    1        0.885   1.574   0.870  0.00  0.00    -0.700 OA
ENDBRANCH   4   6
ENDBRANCH   3   4
ENDBRANCH   1   3
BRANCH   1   8
ATOM      8  C   LIG    1       -5.031   0.776   0.210  0.00  0.00    +0.170 C 
BRANCH   8   9
ATOM      9  C   LIG    1       -6.279   1.602   0.034  0.00  0.00    +0.500 C 
ATOM     10  O   LIG    1       -7.375   1.073   0.103  0.00  0.00    -0.670 OA
ATOM     11  O   LIG    1       -6.192   2.799  -0.178  0.00  0.00    -0.690 OA
ENDBRANCH   8   9
ENDBRANCH   1   8
BRANCH   1  12
ATOM     12  C   LIG    1       -3.746   2.155  -1.274  0.00  0.00    +0.170 C 
BRANCH  12  13
ATOM     13  C   LIG    1       -3.673   0.999  -2.238  0.00  0.00    +0.500 C 
ATOM     14  O   LIG    1       -3.683   1.206  -3.439  0.00  0.00    -0.670 OA
ATOM     15  O   LIG    1       -3.604  -0.143  -1.816  0.00  0.00    -0.670 OA
ENDBRANCH  12  13
ENDBRANCH   1  12
TORSDOF 7
ENDMDL
MODEL       50
REMARK  Name = ZINC000001044112
REMARK                            x       y       z     vdW  Elec       q    Type
REMARK                         _______ _______ _______ _____ _____    ______ ____
ROOT
ATOM      1  C   LIG    1       -4.956   0.942   0.031  0.00  0.00    +0.270 A 
ATOM      2  N   LIG    1       -4.950  -0.366   0.029  0.00  0.00    -0.320 NA
ATOM      3  N   LIG    1       -6.162  -1.067   0.031  0.00  0.00    -0.580 N 
ATOM      4  H   LIG    1       -6.153  -2.037   0.030  0.00  0.00    +0.410 HD
ATOM      5  C   LIG    1       -7.338  -0.416   0.035  0.00  0.00    +0.640 A 
ATOM      6  N   LIG    1       -7.389   0.929   0.037  0.00  0.00    -0.700 NA
ATOM      7  O   LIG    1       -8.374  -1.053   0.037  0.00  0.00    -0.630 OA
ATOM      8  C   LIG    1       -6.248   1.649   0.041  0.00  0.00    +0.500 A 
ATOM      9  O   LIG    1       -6.285   2.865   0.043  0.00  0.00    -0.580 OA
ENDROOT
BRANCH   1  10
ATOM     10  N   LIG    1       -3.757   1.656   0.029  0.00  0.00    -0.700 N 
ATOM     11  H   LIG    1       -3.771   2.626   0.034  0.00  0.00    +0.410 HD
BRANCH  10  12
ATOM     12  C   LIG    1       -2.479   0.941   0.019  0.00  0.00    +0.280 C 
BRANCH  12  13
ATOM     13  C   LIG    1       -1.330   1.951   0.019  0.00  0.00    -0.070 C 
BRANCH  13  15
ATOM     14  O   LIG    1        0.002  -0.004   0.002  0.00  0.00    -0.690 OA
ATOM     15  C   LIG    1       -0.015   1.215   0.009  0.00  0.00    +0.500 C 
ATOM     16  O   LIG    1        1.033   1.839   0.002  0.00  0.00    -0.710 OA
ENDBRANCH  13  15
ENDBRANCH  12  13
ENDBRANCH  10  12
ENDBRANCH   1  10
TORSDOF 4
ENDMDL
MODEL       51
REMARK  Name = ZINC000002686107
REMARK                            x       y       z     vdW  Elec       q    Type
REMARK                         _______ _______ _______ _____ _____    ______ ____
ROOT
ATOM      1  N   VAL A  1       -2.105  -0.148  -1.230  0.00  0.00    -0.670 N 
ATOM      2  H   VAL A  1       -1.804   0.631  -1.724  0.00  0.00    +0.400 HD
ENDROOT
BRANCH   1   3
ATOM      3  C   UNK A  0       -3.179  -0.902  -1.705  0.00  0.00    +0.290 A 
ATOM      4  N   UNK A  0       -3.598  -1.950  -1.046  0.00  0.00    -0.330 NA
ATOM      5  N   UNK A  0       -4.677  -2.695  -1.536  0.00  0.00    -0.580 N 
ATOM      6  H   UNK A  0       -4.984  -3.473  -1.044  0.00  0.00    +0.410 HD
ATOM      7  C   UNK A  0       -5.295  -2.349  -2.679  0.00  0.00    +0.640 A 
ATOM      8  N   UNK A  0       -4.896  -1.277  -3.388  0.00  0.00    -0.700 NA
ATOM      9  O   UNK A  0       -6.229  -3.016  -3.079  0.00  0.00    -0.640 OA
ATOM     10  C   UNK A  0       -3.863  -0.525  -2.954  0.00  0.00    +0.500 A 
ATOM     11  O   UNK A  0       -3.497   0.446  -3.589  0.00  0.00    -0.590 OA
ENDBRANCH   1   3
BRANCH   1  12
ATOM     12  CA  VAL A  1       -1.433  -0.534   0.013  0.00  0.00    +0.160 C 
BRANCH  12  14
ATOM     13  CG1 VAL A  1       -0.019   1.526   0.010  0.00  0.00    +0.010 C 
ATOM     14  CB  VAL A  1        0.002  -0.004   0.002  0.00  0.00    -0.020 C 
ATOM     15  CG2 VAL A  1        0.742  -0.511   1.242  0.00  0.00    +0.020 C 
ENDBRANCH  12  14
BRANCH  12  16
ATOM     16  C   VAL A  1       -2.175   0.051   1.187  0.00  0.00    +0.500 C 
ATOM     17  OXT VAL A  1       -1.893  -0.296   2.321  0.00  0.00    -0.710 OA
ATOM     18  O   VAL A  1       -3.059   0.871   1.003  0.00  0.00    -0.690 OA
ENDBRANCH  12  16
ENDBRANCH   1  12
TORSDOF 4
ENDMDL
MODEL       52
REMARK  Name = ZINC000001656423
REMARK                            x       y       z     vdW  Elec       q    Type
REMARK                         _______ _______ _______ _____ _____    ______ ____
ROOT
ATOM      1  C   LIG    1       -2.479   0.941   0.019  0.00  0.00    +0.070 C 
ENDROOT
BRANCH   1   2
ATOM      2  C   LIG    1       -2.324   0.003  -1.151  0.00  0.00    +0.550 C 
ATOM      3  O   LIG    1       -2.318   0.443  -2.288  0.00  0.00    -0.730 OA
ATOM      4  O   LIG    1       -2.204  -1.195  -0.960  0.00  0.00    -0.670 OA
ENDBRANCH   1   2
BRANCH   1   5
ATOM      5  O   LIG    1       -2.455   0.192   1.236  0.00  0.00    -0.500 OA
ATOM      6  H   LIG    1       -2.550   0.732   2.032  0.00  0.00    +0.320 HD
ENDBRANCH   1   5
BRANCH   1   7
ATOM      7  C   LIG    1       -1.330   1.951   0.019  0.00  0.00    -0.090 C 
BRANCH   7   9
ATOM      8  O   LIG    1        0.002  -0.004   0.002  0.00  0.00    -0.650 OA
ATOM      9  C   LIG    1       -0.015   1.215   0.009  0.00  0.00    +0.490 C 
ATOM     10  O   LIG    1        1.033   1.839   0.002  0.00  0.00    -0.760 OA
ENDBRANCH   7   9
ENDBRANCH   1   7
BRANCH   1  11
ATOM     11  C   LIG    1       -3.811   1.684  -0.096  0.00  0.00    +0.090 C 
BRANCH  11  12
ATOM     12  C   LIG    1       -4.943   0.690  -0.097  0.00  0.00    +0.490 C 
ATOM     13  O   LIG    1       -5.644   0.564  -1.086  0.00  0.00    -0.710 OA
ATOM     14  O   LIG    1       -5.158   0.010   0.893  0.00  0.00    -0.700 OA
ENDBRANCH  11  12
BRANCH  11  15
ATOM     15  O   LIG    1       -3.835   2.433  -1.313  0.00  0.00    -0.580 OA
ATOM     16  H   LIG    1       -3.740   1.893  -2.110  0.00  0.00    +0.390 HD
ENDBRANCH  11  15
ENDBRANCH   1  11
TORSDOF 7
ENDMDL
MODEL       53
REMARK  Name = ZINC000006072527
REMARK                            x       y       z     vdW  Elec       q    Type
REMARK                         _______ _______ _______ _____ _____    ______ ____
ROOT
ATOM      1  C   LIG    1       -1.483   2.739  -1.283  0.00  0.00    +0.150 C 
ENDROOT
BRANCH   1   2
ATOM      2  O   LIG    1       -0.413   3.678  -1.401  0.00  0.00    -0.520 OA
ATOM      3  H   LIG    1       -0.374   4.322  -0.680  0.00  0.00    +0.360 HD
ENDBRANCH   1   2
BRANCH   1   4
ATOM      4  C   LIG    1       -1.330   1.951   0.019  0.00  0.00    +0.090 C 
BRANCH   4   6
ATOM      5  O   LIG    1        0.002  -0.004   0.002  0.00  0.00    -0.700 OA
ATOM      6  C   LIG    1       -0.015   1.215   0.009  0.00  0.00    +0.470 C 
ATOM      7  O   LIG    1        1.033   1.839   0.002  0.00  0.00    -0.690 OA
ENDBRANCH   4   6
BRANCH   4   8
ATOM      8  O   LIG    1       -2.400   1.011   0.136  0.00  0.00    -0.540 OA
ATOM      9  H   LIG    1       -2.439   0.367  -0.584  0.00  0.00    +0.360 HD
ENDBRANCH   4   8
ENDBRANCH   1   4
BRANCH   1  10
ATOM     10  C   LIG    1       -2.819   3.486  -1.273  0.00  0.00    +0.150 C 
BRANCH  10  11
ATOM     11  O   LIG    1       -3.889   2.546  -1.156  0.00  0.00    -0.520 OA
ATOM     12  H   LIG    1       -3.928   1.902  -1.876  0.00  0.00    +0.360 HD
ENDBRANCH  10  11
BRANCH  10  13
ATOM     13  C   LIG    1       -2.972   4.274  -2.575  0.00  0.00    +0.090 C 
BRANCH  13  14
ATOM     14  C   LIG    1       -4.287   5.010  -2.565  0.00  0.00    +0.470 C 
ATOM     15  O   LIG    1       -5.335   4.386  -2.564  0.00  0.00    -0.690 OA
ATOM     16  O   LIG    1       -4.304   6.229  -2.558  0.00  0.00    -0.700 OA
ENDBRANCH  13  14
BRANCH  13  17
ATOM     17  O   LIG    1       -1.902   5.213  -2.693  0.00  0.00    -0.540 OA
ATOM     18  H   LIG    1       -1.863   5.857  -1.972  0.00  0.00    +0.360 HD
ENDBRANCH  13  17
ENDBRANCH  10  13
ENDBRANCH   1  10
TORSDOF 9
ENDMDL
MODEL       54
REMARK  Name = ZINC000012359024
REMARK                            x       y       z     vdW  Elec       q    Type
REMARK                         _______ _______ _______ _____ _____    ______ ____
ROOT
ATOM      1  C   LIG    1       -1.483   2.739  -1.283  0.00  0.00    +0.180 C 
ENDROOT
BRANCH   1   2
ATOM      2  O   LIG    1       -1.334   1.854  -2.396  0.00  0.00    -0.540 OA
ATOM      3  H   LIG    1       -1.982   1.137  -2.418  0.00  0.00    +0.360 HD
ENDBRANCH   1   2
BRANCH   1   4
ATOM      4  C   LIG    1       -1.330   1.951   0.019  0.00  0.00    +0.110 C 
BRANCH   4   6
ATOM      5  O   LIG    1        0.002  -0.004   0.002  0.00  0.00    -0.700 OA
ATOM      6  C   LIG    1       -0.015   1.215   0.009  0.00  0.00    +0.480 C 
ATOM      7  O   LIG    1        1.033   1.839   0.002  0.00  0.00    -0.700 OA
ENDBRANCH   4   6
BRANCH   4   8
ATOM      8  O   LIG    1       -2.400   1.011   0.136  0.00  0.00    -0.550 OA
ATOM      9  H   LIG    1       -2.439   0.367  -0.584  0.00  0.00    +0.360 HD
ENDBRANCH   4   8
ENDBRANCH   1   4
BRANCH   1  10
ATOM     10  C   LIG    1       -2.870   3.385  -1.328  0.00  0.00    +0.180 C 
BRANCH  10  11
ATOM     11  O   LIG    1       -3.019   4.269  -0.216  0.00  0.00    -0.540 OA
ATOM     12  H   LIG    1       -2.371   4.986  -0.193  0.00  0.00    +0.360 HD
ENDBRANCH  10  11
BRANCH  10  13
ATOM     13  C   LIG    1       -3.023   4.173  -2.631  0.00  0.00    +0.110 C 
BRANCH  13  14
ATOM     14  C   LIG    1       -4.338   4.909  -2.620  0.00  0.00    +0.480 C 
ATOM     15  O   LIG    1       -5.386   4.285  -2.619  0.00  0.00    -0.700 OA
ATOM     16  O   LIG    1       -4.355   6.128  -2.614  0.00  0.00    -0.700 OA
ENDBRANCH  13  14
BRANCH  13  17
ATOM     17  O   LIG    1       -1.953   5.112  -2.748  0.00  0.00    -0.550 OA
ATOM     18  H   LIG    1       -1.914   5.756  -2.028  0.00  0.00    +0.360 HD
ENDBRANCH  13  17
ENDBRANCH  10  13
ENDBRANCH   1  10
TORSDOF 9
ENDMDL
MODEL       55
REMARK  Name = ZINC000005479797
REMARK                            x       y       z     vdW  Elec       q    Type
REMARK                         _______ _______ _______ _____ _____    ______ ____
ROOT
ATOM      1  C   LIG    1       -4.839   0.421   0.027  0.00  0.00    +0.080 C 
ENDROOT
BRANCH   1   4
ATOM      2  N   LIG    1       -2.430   0.984   0.019  0.00  0.00    -0.700 N 
ATOM      3  H   LIG    1       -2.240   0.033   0.013  0.00  0.00    +0.410 HD
ATOM      4  C   LIG    1       -3.707   1.416   0.027  0.00  0.00    +0.500 C 
ATOM      5  O   LIG    1       -3.945   2.605   0.035  0.00  0.00    -0.560 OA
BRANCH   2   6
ATOM      6  C   LIG    1       -1.330   1.951   0.019  0.00  0.00    +0.170 C 
BRANCH   6   8
ATOM      7  O   LIG    1        0.002  -0.004   0.002  0.00  0.00    -0.690 OA
ATOM      8  C   LIG    1       -0.015   1.215   0.009  0.00  0.00    +0.490 C 
ATOM      9  O   LIG    1        1.033   1.839   0.002  0.00  0.00    -0.690 OA
ENDBRANCH   6   8
ENDBRANCH   2   6
ENDBRANCH   1   4
BRANCH   1  10
ATOM     10  C   LIG    1       -6.174   1.168   0.038  0.00  0.00    +0.080 C 
BRANCH  10  11
ATOM     11  C   LIG    1       -7.306   0.173   0.038  0.00  0.00    +0.500 C 
ATOM     12  N   LIG    1       -8.583   0.605   0.046  0.00  0.00    -0.700 N 
ATOM     13  H   LIG    1       -8.773   1.556   0.052  0.00  0.00    +0.410 HD
ATOM     14  O   LIG    1       -7.068  -1.016   0.030  0.00  0.00    -0.560 OA
BRANCH  12  15
ATOM     15  C   LIG    1       -9.683  -0.362   0.046  0.00  0.00    +0.170 C 
BRANCH  15  16
ATOM     16  C   LIG    1      -10.998   0.374   0.056  0.00  0.00    +0.490 C 
ATOM     17  O   LIG    1      -12.046  -0.250   0.058  0.00  0.00    -0.690 OA
ATOM     18  O   LIG    1      -11.015   1.593   0.063  0.00  0.00    -0.690 OA
ENDBRANCH  15  16
ENDBRANCH  12  15
ENDBRANCH  10  11
ENDBRANCH   1  10
TORSDOF 7
ENDMDL
MODEL       56
REMARK  Name = ZINC000004811872
REMARK                            x       y       z     vdW  Elec       q    Type
REMARK                         _______ _______ _______ _____ _____    ______ ____
ROOT
ATOM      1  C   LIG    1       -1.395   1.994  -0.544  0.00  0.00    -0.110 C 
ATOM      2  C   LIG    1       -1.995   2.776  -1.751  0.00  0.00    +0.200 C 
ATOM      3  O   LIG    1       -3.424   2.742  -1.431  0.00  0.00    -0.400 OA
ATOM      4  C   LIG    1       -3.607   1.298  -1.268  0.00  0.00    +0.200 C 
ATOM      5  C   LIG    1       -3.062   0.767  -2.628  0.00  0.00    +0.090 C 
ATOM      6  O   LIG    1       -1.684   0.391  -2.677  0.00  0.00    -0.250 OA
ATOM      7  C   LIG    1       -1.912   1.796  -2.959  0.00  0.00    +0.110 C 
ATOM      8  C   LIG    1       -2.509   0.970  -0.205  0.00  0.00    -0.110 C 
ENDROOT
BRANCH   1  10
ATOM      9  O   LIG    1        0.295   1.387  -2.084  0.00  0.00    -0.710 OA
ATOM     10  C   LIG    1       -0.125   1.288  -0.944  0.00  0.00    +0.510 C 
ATOM     11  O   LIG    1        0.485   0.621  -0.125  0.00  0.00    -0.660 OA
ENDBRANCH   1  10
BRANCH   8  12
ATOM     12  C   LIG    1       -2.010  -0.442  -0.371  0.00  0.00    +0.510 C 
ATOM     13  O   LIG    1       -2.499  -1.166  -1.222  0.00  0.00    -0.710 OA
ATOM     14  O   LIG    1       -1.117  -0.861   0.346  0.00  0.00    -0.660 OA
ENDBRANCH   8  12
TORSDOF 2
ENDMDL
MODEL       57
REMARK  Name = ZINC000001549593
REMARK                            x       y       z     vdW  Elec       q    Type
REMARK                         _______ _______ _______ _____ _____    ______ ____
ROOT
ATOM      1  C   LIG    1       -1.483   2.739  -1.283  0.00  0.00    +0.170 C 
ENDROOT
BRANCH   1   2
ATOM      2  O   LIG    1       -0.413   3.678  -1.401  0.00  0.00    -0.530 OA
ATOM      3  H   LIG    1       -0.374   4.322  -0.680  0.00  0.00    +0.360 HD
ENDBRANCH   1   2
BRANCH   1   4
ATOM      4  C   LIG    1       -1.330   1.951   0.019  0.00  0.00    +0.100 C 
BRANCH   4   6
ATOM      5  O   LIG    1        0.002  -0.004   0.002  0.00  0.00    -0.700 OA
ATOM      6  C   LIG    1       -0.015   1.215   0.009  0.00  0.00    +0.480 C 
ATOM      7  O   LIG    1        1.033   1.839   0.002  0.00  0.00    -0.680 OA
ENDBRANCH   4   6
BRANCH   4   8
ATOM      8  O   LIG    1       -2.400   1.011   0.136  0.00  0.00    -0.550 OA
ATOM      9  H   LIG    1       -2.439   0.367  -0.584  0.00  0.00    +0.370 HD
ENDBRANCH   4   8
ENDBRANCH   1   4
BRANCH   1  10
ATOM     10  C   LIG    1       -2.819   3.486  -1.273  0.00  0.00    +0.170 C 
BRANCH  10  11
ATOM     11  O   LIG    1       -2.900   4.300  -0.101  0.00  0.00    -0.530 OA
ATOM     12  H   LIG    1       -2.201   4.965  -0.035  0.00  0.00    +0.360 HD
ENDBRANCH  10  11
BRANCH  10  13
ATOM     13  C   LIG    1       -2.917   4.371  -2.517  0.00  0.00    +0.100 C 
BRANCH  13  14
ATOM     14  C   LIG    1       -4.233   5.107  -2.507  0.00  0.00    +0.480 C 
ATOM     15  O   LIG    1       -5.064   4.880  -3.369  0.00  0.00    -0.700 OA
ATOM     16  O   LIG    1       -4.465   5.928  -1.636  0.00  0.00    -0.690 OA
ENDBRANCH  13  14
BRANCH  13  17
ATOM     17  O   LIG    1       -2.836   3.557  -3.689  0.00  0.00    -0.550 OA
ATOM     18  H   LIG    1       -3.535   2.892  -3.755  0.00  0.00    +0.370 HD
ENDBRANCH  13  17
ENDBRANCH  10  13
ENDBRANCH   1  10
TORSDOF 9
ENDMDL
MODEL       58
REMARK  Name = ZINC000002090496
REMARK                            x       y       z     vdW  Elec       q    Type
REMARK                         _______ _______ _______ _____ _____    ______ ____
ROOT
ATOM      1  C   UNK A  0       -4.829   0.429   0.027  0.00  0.00    +0.510 C 
ATOM      2  N   SER A  1       -6.106   0.861   0.036  0.00  0.00    -0.660 N 
ATOM      3  H   SER A  1       -6.296   1.812   0.042  0.00  0.00    +0.410 HD
ATOM      4  O   UNK A  0       -4.591  -0.761   0.020  0.00  0.00    -0.530 OA
ENDROOT
BRANCH   1   7
ATOM      5  N   UNK A  0       -2.430   0.984   0.019  0.00  0.00    -0.670 N 
ATOM      6  H   UNK A  0       -2.240   0.033   0.013  0.00  0.00    +0.420 HD
ATOM      7  C   UNK A  0       -3.707   1.416   0.027  0.00  0.00    +0.500 C 
ATOM      8  O   UNK A  0       -3.945   2.606   0.035  0.00  0.00    -0.550 OA
BRANCH   5   9
ATOM      9  C   UNK A  0       -1.330   1.951   0.019  0.00  0.00    +0.190 C 
BRANCH   9  11
ATOM     10  O   UNK A  0        0.002  -0.004   0.002  0.00  0.00    -0.690 OA
ATOM     11  C   UNK A  0       -0.015   1.215   0.009  0.00  0.00    +0.490 C 
ATOM     12  O   UNK A  0        1.033   1.839   0.002  0.00  0.00    -0.700 OA
ENDBRANCH   9  11
ENDBRANCH   5   9
ENDBRANCH   1   7
BRANCH   2  13
ATOM     13  CA  SER A  1       -7.207  -0.106   0.036  0.00  0.00    +0.170 C 
BRANCH  13  14
ATOM     14  C   SER A  1       -7.509  -0.523  -1.381  0.00  0.00    +0.500 C 
ATOM     15  OXT SER A  1       -8.398  -1.327  -1.603  0.00  0.00    -0.710 OA
ATOM     16  O   SER A  1       -6.865  -0.056  -2.304  0.00  0.00    -0.680 OA
ENDBRANCH  13  14
BRANCH  13  17
ATOM     17  CB  SER A  1       -8.450   0.536   0.655  0.00  0.00    +0.190 C 
BRANCH  17  18
ATOM     18  OG  SER A  1       -8.893   1.613  -0.174  0.00  0.00    -0.560 OA
ATOM     19  H   SER A  1       -9.679   2.067   0.158  0.00  0.00    +0.360 HD
ENDBRANCH  17  18
ENDBRANCH  13  17
ENDBRANCH   2  13
TORSDOF 7
ENDMDL
MODEL       59
REMARK  Name = ZINC000003100659
REMARK                            x       y       z     vdW  Elec       q    Type
REMARK                         _______ _______ _______ _____ _____    ______ ____
ROOT
ATOM      1  C   LIG    1       -2.739  -0.181   0.019  0.00  0.00    +0.320 C 
ENDROOT
BRANCH   1   6
ATOM      2  C   LIG    1       -1.301   1.939   0.019  0.00  0.00    +0.030 A 
ATOM      3  N   LIG    1       -1.414   3.250   0.021  0.00  0.00    -0.530 NA
ATOM      4  S   LIG    1       -2.931   3.611   0.032  0.00  0.00    +0.540 S 
ATOM      5  N   LIG    1       -3.526   2.170   0.034  0.00  0.00    -0.580 NA
ATOM      6  C   LIG    1       -2.548   1.313   0.021  0.00  0.00    +0.090 A 
BRANCH   2   8
ATOM      7  O   LIG    1        0.002  -0.004   0.002  0.00  0.00    -0.650 OA
ATOM      8  C   LIG    1       -0.015   1.219   0.009  0.00  0.00    +0.570 C 
ATOM      9  O   LIG    1        1.036   1.845   0.002  0.00  0.00    -0.660 OA
ENDBRANCH   2   8
ENDBRANCH   1   6
BRANCH   1  10
ATOM     10  O   LIG    1       -3.734  -0.536   0.981  0.00  0.00    -0.530 OA
ATOM     11  H   LIG    1       -4.600  -0.137   0.818  0.00  0.00    +0.360 HD
ENDBRANCH   1  10
BRANCH   1  12
ATOM     12  C   LIG    1       -3.190  -0.636  -1.371  0.00  0.00    +0.100 C 
BRANCH  12  13
ATOM     13  C   LIG    1       -3.381  -2.130  -1.374  0.00  0.00    +0.480 C 
ATOM     14  O   LIG    1       -2.664  -2.836  -2.063  0.00  0.00    -0.690 OA
ATOM     15  O   LIG    1       -4.253  -2.635  -0.687  0.00  0.00    -0.690 OA
ENDBRANCH  12  13
BRANCH  12  16
ATOM     16  O   LIG    1       -2.195  -0.281  -2.334  0.00  0.00    -0.560 OA
ATOM     17  H   LIG    1       -1.329  -0.680  -2.170  0.00  0.00    +0.380 HD
ENDBRANCH  12  16
ENDBRANCH   1  12
TORSDOF 6
ENDMDL
MODEL       60
REMARK  Name = ZINC000100763462
REMARK                            x       y       z     vdW  Elec       q    Type
REMARK                         _______ _______ _______ _____ _____    ______ ____
ROOT
ATOM      1  C   LIG    1       -0.669   1.863   1.092  0.00  0.00    -0.030 C 
ATOM      2  C   LIG    1       -0.323   3.361   1.276  0.00  0.00    +0.100 C 
ATOM      3  C   LIG    1        1.071   3.310   1.951  0.00  0.00    -0.110 C 
ATOM      4  C   LIG    1        0.980   2.110   2.916  0.00  0.00    -0.100 C 
ATOM      5  C   LIG    1       -0.127   1.190   2.369  0.00  0.00    +0.070 C 
ENDROOT
BRANCH   1   6
ATOM      6  N   LIG    1        0.002   1.323  -0.098  0.00  0.00    -0.600 N 
ATOM      7  H   LIG    1       -0.364   1.773  -0.924  0.00  0.00    +0.420 HD
ATOM      8  H   LIG    1        0.994   1.495  -0.033  0.00  0.00    +0.410 HD
ATOM      9  H   LIG    1       -0.164   0.329  -0.156  0.00  0.00    +0.420 HD
ENDBRANCH   1   6
BRANCH   4  10
ATOM     10  C   LIG    1        0.620   2.586   4.299  0.00  0.00    +0.510 C 
ATOM     11  O   LIG    1        1.423   2.475   5.210  0.00  0.00    -0.710 OA
ATOM     12  O   LIG    1       -0.474   3.082   4.508  0.00  0.00    -0.680 OA
ENDBRANCH   4  10
BRANCH   3  13
ATOM     13  C   LIG    1        1.335   4.583   2.712  0.00  0.00    +0.510 C 
ATOM     14  O   LIG    1        2.376   4.717   3.333  0.00  0.00    -0.700 OA
ATOM     15  O   LIG    1        0.509   5.480   2.706  0.00  0.00    -0.700 OA
ENDBRANCH   3  13
BRANCH   1  16
ATOM     16  C   LIG    1       -2.160   1.672   0.988  0.00  0.00    +0.510 C 
ATOM     17  O   LIG    1       -2.889   2.071   1.880  0.00  0.00    -0.620 OA
ATOM     18  O   LIG    1       -2.637   1.120   0.011  0.00  0.00    -0.710 OA
ENDBRANCH   1  16
TORSDOF 4
ENDMDL
MODEL       61
REMARK  Name = ZINC000003869726
REMARK                            x       y       z     vdW  Elec       q    Type
REMARK                         _______ _______ _______ _____ _____    ______ ____
ROOT
ATOM      1  C   LIG    1        0.718  -0.497  -1.257  0.00  0.00    -0.080 C 
ENDROOT
BRANCH   1   2
ATOM      2  C   LIG    1        0.739  -2.004  -1.265  0.00  0.00    +0.500 C 
ATOM      3  O   LIG    1        1.266  -2.602  -2.188  0.00  0.00    -0.670 OA
ATOM      4  O   LIG    1        0.228  -2.626  -0.349  0.00  0.00    -0.710 OA
ENDBRANCH   1   2
BRANCH   1   6
ATOM      5  C   LIG    1       -0.019   1.526   0.010  0.00  0.00    +0.010 C 
ATOM      6  C   LIG    1        0.002  -0.004   0.002  0.00  0.00    +0.080 C 
BRANCH   6   7
ATOM      7  C   LIG    1       -1.412  -0.526   0.013  0.00  0.00    +0.510 C 
ATOM      8  O   LIG    1       -1.792  -1.237   0.927  0.00  0.00    -0.700 OA
ATOM      9  O   LIG    1       -2.175  -0.236  -0.893  0.00  0.00    -0.730 OA
ENDBRANCH   6   7
BRANCH   6  10
ATOM     10  O   LIG    1        0.693  -0.477   1.160  0.00  0.00    -0.580 OA
ATOM     11  H   LIG    1        0.745  -1.441   1.220  0.00  0.00    +0.380 HD
ENDBRANCH   6  10
ENDBRANCH   1   6
BRANCH   1  12
ATOM     12  C   LIG    1        2.154   0.032  -1.268  0.00  0.00    -0.080 C 
BRANCH  12  13
ATOM     13  C   LIG    1        2.820  -0.350  -2.564  0.00  0.00    +0.480 C 
ATOM     14  O   LIG    1        3.976  -0.023  -2.775  0.00  0.00    -0.770 OA
ATOM     15  O   LIG    1        2.205  -0.988  -3.401  0.00  0.00    -0.640 OA
ENDBRANCH  12  13
ENDBRANCH   1  12
TORSDOF 6
ENDMDL
MODEL       62
REMARK  Name = ZINC000005479804
REMARK                            x       y       z     vdW  Elec       q    Type
REMARK                         _______ _______ _______ _____ _____    ______ ____
ROOT
ATOM      1  N   LIG    1       -3.815   1.564   0.155  0.00  0.00    -0.480 NA
ENDROOT
BRANCH   1   2
ATOM      2  C   LIG    1       -2.510   0.934   0.398  0.00  0.00    +0.170 C 
BRANCH   2   3
ATOM      3  C   LIG    1       -1.490   2.006   0.787  0.00  0.00    -0.070 C 
BRANCH   3   5
ATOM      4  O   LIG    1       -0.026   0.152   0.913  0.00  0.00    -0.700 OA
ATOM      5  C   LIG    1       -0.152   1.359   1.036  0.00  0.00    +0.500 C 
ATOM      6  O   LIG    1        0.806   2.043   1.355  0.00  0.00    -0.730 OA
ENDBRANCH   3   5
ENDBRANCH   2   3
ENDBRANCH   1   2
BRANCH   1   7
ATOM      7  C   LIG    1       -4.870   0.553   0.012  0.00  0.00    -0.420 C 
BRANCH   7   8
ATOM      8  P   LIG    1       -6.475   1.278   0.483  0.00  0.00    +2.270 P 
ATOM      9  O   LIG    1       -6.465   1.615   1.990  0.00  0.00    -1.110 OA
ATOM     10  O   LIG    1       -6.716   2.568  -0.332  0.00  0.00    -1.100 OA
BRANCH   8  11
ATOM     11  O   LIG    1       -7.651   0.222   0.177  0.00  0.00    -0.910 OA
ATOM     12  H   LIG    1       -8.535   0.542   0.404  0.00  0.00    +0.400 HD
ENDBRANCH   8  11
ENDBRANCH   7   8
ENDBRANCH   1   7
BRANCH   1  13
ATOM     13  C   LIG    1       -3.764   2.442  -1.022  0.00  0.00    +0.140 C 
BRANCH  13  14
ATOM     14  C   LIG    1       -3.377   1.635  -2.234  0.00  0.00    +0.470 C 
ATOM     15  O   LIG    1       -3.166   2.195  -3.297  0.00  0.00    -0.730 OA
ATOM     16  O   LIG    1       -3.276   0.423  -2.153  0.00  0.00    -0.700 OA
ENDBRANCH  13  14
ENDBRANCH   1  13
TORSDOF 8
ENDMDL
MODEL       63
REMARK  Name = ZINC000000901307
REMARK                            x       y       z     vdW  Elec       q    Type
REMARK                         _______ _______ _______ _____ _____    ______ ____
ROOT
ATOM      1  C   LIG    1       -1.433  -0.534   0.013  0.00  0.00    +0.110 C 
ENDROOT
BRANCH   1   2
ATOM      2  C   LIG    1       -2.139  -0.048   1.253  0.00  0.00    +0.570 C 
ATOM      3  O   LIG    1       -2.584  -0.851   2.055  0.00  0.00    -0.670 OA
ATOM      4  O   LIG    1       -2.264   1.148   1.453  0.00  0.00    -0.750 OA
ENDBRANCH   1   2
BRANCH   1   6
ATOM      5  C   LIG    1       -0.019   1.526   0.010  0.00  0.00    +0.010 C 
ATOM      6  C   LIG    1        0.002  -0.004   0.002  0.00  0.00    -0.150 C 
BRANCH   6   7
ATOM      7  C   LIG    1        0.731  -0.503   1.223  0.00  0.00    +0.500 C 
ATOM      8  O   LIG    1        1.896  -0.194   1.406  0.00  0.00    -0.760 OA
ATOM      9  O   LIG    1        0.156  -1.216   2.027  0.00  0.00    -0.650 OA
ENDBRANCH   6   7
ENDBRANCH   1   6
BRANCH   1  10
ATOM     10  O   LIG    1       -1.414  -1.962   0.005  0.00  0.00    -0.500 OA
ATOM     11  H   LIG    1       -0.974  -2.346  -0.766  0.00  0.00    +0.300 HD
ENDBRANCH   1  10
BRANCH   1  12
ATOM     12  C   LIG    1       -2.173  -0.027  -1.227  0.00  0.00    -0.110 C 
BRANCH  12  13
ATOM     13  C   LIG    1       -3.619  -0.446  -1.155  0.00  0.00    +0.490 C 
ATOM     14  O   LIG    1       -4.388  -0.140  -2.051  0.00  0.00    -0.760 OA
ATOM     15  O   LIG    1       -4.021  -1.090  -0.201  0.00  0.00    -0.640 OA
ENDBRANCH  12  13
ENDBRANCH   1  12
TORSDOF 6
ENDMDL
MODEL       64
REMARK  Name = ZINC000001557395
REMARK                            x       y       z     vdW  Elec       q    Type
REMARK                         _______ _______ _______ _____ _____    ______ ____
ROOT
ATOM      1  C   LIG    1       -1.351   1.954   0.006  0.00  0.00    -0.050 C 
ATOM      2  C   LIG    1       -1.092   3.462   0.138  0.00  0.00    +0.170 C 
ATOM      3  O   LIG    1       -1.816   4.268  -0.812  0.00  0.00    -0.360 OA
ATOM      4  C   LIG    1       -2.261   4.356   0.556  0.00  0.00    +0.110 C 
ATOM      5  C   LIG    1       -3.529   3.647   1.023  0.00  0.00    +0.090 C 
ATOM      6  O   LIG    1       -4.062   2.691   0.086  0.00  0.00    -0.360 OA
ATOM      7  C   LIG    1       -3.480   2.143   1.293  0.00  0.00    +0.210 C 
ATOM      8  C   LIG    1       -2.172   1.472   1.201  0.00  0.00    -0.050 C 
ENDROOT
BRANCH   1  10
ATOM      9  O   LIG    1        0.306   0.628  -1.039  0.00  0.00    -0.700 OA
ATOM     10  C   LIG    1       -0.035   1.220  -0.029  0.00  0.00    +0.540 C 
ATOM     11  O   LIG    1        0.690   1.222   0.951  0.00  0.00    -0.710 OA
ENDBRANCH   1  10
BRANCH   8  12
ATOM     12  C   LIG    1       -2.379  -0.019   1.128  0.00  0.00    +0.500 C 
ATOM     13  O   LIG    1       -3.400  -0.515   1.575  0.00  0.00    -0.730 OA
ATOM     14  O   LIG    1       -1.527  -0.729   0.623  0.00  0.00    -0.650 OA
ENDBRANCH   8  12
TORSDOF 2
ENDMDL
MODEL       65
REMARK  Name = ZINC000001856588
REMARK                            x       y       z     vdW  Elec       q    Type
REMARK                         _______ _______ _______ _____ _____    ______ ____
ROOT
ATOM      1  C   LIG    1        1.435   1.601   2.510  0.00  0.00    +0.020 C 
ENDROOT
BRANCH   1   2
ATOM      2  C   LIG    1        2.163   1.101   3.731  0.00  0.00    +0.490 C 
ATOM      3  N   LIG    1        3.418   1.524   3.987  0.00  0.00    -0.690 N 
ATOM      4  H   LIG    1        3.851   2.149   3.385  0.00  0.00    +0.390 HD
ATOM      5  O   LIG    1        1.621   0.320   4.484  0.00  0.00    -0.530 OA
BRANCH   3   6
ATOM      6  C   LIG    1        4.126   1.038   5.174  0.00  0.00    -0.370 C 
BRANCH   6   7
ATOM      7  P   LIG    1        5.165  -0.389   4.720  0.00  0.00    +2.190 P 
ATOM      8  O   LIG    1        5.823  -0.987   6.010  0.00  0.00    -1.180 OA
ATOM      9  O   LIG    1        6.286   0.075   3.729  0.00  0.00    -1.180 OA
ATOM     10  O   LIG    1        4.279  -1.482   4.031  0.00  0.00    -1.160 OA
ENDBRANCH   6   7
ENDBRANCH   3   6
ENDBRANCH   1   2
BRANCH   1  11
ATOM     11  C   LIG    1        0.041   0.972   2.456  0.00  0.00    +0.100 C 
BRANCH  11  12
ATOM     12  CA  LIG    1       -0.699   1.479   1.216  0.00  0.00    +0.080 C 
BRANCH  12  13
ATOM     13  N   LIG    1       -0.012   1.005   0.008  0.00  0.00    -0.620 N 
ATOM     14  H1  LIG    1       -0.500   1.339  -0.810  0.00  0.00    +0.420 HD
ATOM     15  H2  LIG    1        0.935   1.354   0.000  0.00  0.00    +0.420 HD
ATOM     16  H3  LIG    1        0.002  -0.004   0.002  0.00  0.00    +0.440 HD
ENDBRANCH  12  13
BRANCH  12  17
ATOM     17  C   LIG    1       -2.113   0.957   1.227  0.00  0.00    +0.490 C 
ATOM     18  OXT LIG    1       -2.996   1.601   1.767  0.00  0.00    -0.650 OA
ATOM     19  O   LIG    1       -2.373  -0.109   0.696  0.00  0.00    -0.670 OA
ENDBRANCH  12  17
ENDBRANCH  11  12
ENDBRANCH   1  11
TORSDOF 7
ENDMDL
MODEL       66
REMARK  Name = ZINC000001856587
REMARK                            x       y       z     vdW  Elec       q    Type
REMARK                         _______ _______ _______ _____ _____    ______ ____
ROOT
ATOM      1  C   LIG    1       -2.911   1.555   0.056  0.00  0.00    +0.020 C 
ENDROOT
BRANCH   1   2
ATOM      2  C   LIG    1       -4.324   1.033   0.067  0.00  0.00    +0.490 C 
ATOM      3  N   LIG    1       -5.197   1.433  -0.879  0.00  0.00    -0.690 N 
ATOM      4  H   LIG    1       -4.916   2.057  -1.567  0.00  0.00    +0.390 HD
ATOM      5  O   LIG    1       -4.677   0.254   0.926  0.00  0.00    -0.530 OA
BRANCH   3   6
ATOM      6  C   LIG    1       -6.572   0.926  -0.869  0.00  0.00    -0.370 C 
BRANCH   6   7
ATOM      7  P   LIG    1       -7.649   2.108   0.007  0.00  0.00    +2.190 P 
ATOM      8  O   LIG    1       -9.091   1.508   0.131  0.00  0.00    -1.180 OA
ATOM      9  O   LIG    1       -7.709   3.453  -0.794  0.00  0.00    -1.180 OA
ATOM     10  O   LIG    1       -7.072   2.378   1.439  0.00  0.00    -1.160 OA
ENDBRANCH   6   7
ENDBRANCH   3   6
ENDBRANCH   1   2
BRANCH   1  11
ATOM     11  C   LIG    1       -2.135   0.949   1.227  0.00  0.00    +0.090 C 
BRANCH  11  12
ATOM     12  CA  LIG    1       -0.699   1.479   1.216  0.00  0.00    +0.090 C 
BRANCH  12  13
ATOM     13  N   LIG    1       -0.012   1.005   0.008  0.00  0.00    -0.610 N 
ATOM     14  H1  LIG    1       -0.500   1.339  -0.810  0.00  0.00    +0.410 HD
ATOM     15  H2  LIG    1        0.935   1.354   0.000  0.00  0.00    +0.430 HD
ATOM     16  H3  LIG    1        0.002  -0.004   0.002  0.00  0.00    +0.430 HD
ENDBRANCH  12  13
BRANCH  12  17
ATOM     17  C   LIG    1        0.030   0.979   2.437  0.00  0.00    +0.500 C 
ATOM     18  OXT LIG    1        0.915   0.149   2.322  0.00  0.00    -0.690 OA
ATOM     19  O   LIG    1       -0.266   1.406   3.540  0.00  0.00    -0.630 OA
ENDBRANCH  12  17
ENDBRANCH  11  12
ENDBRANCH   1  11
TORSDOF 7
ENDMDL
MODEL       67
REMARK  Name = ZINC000002572371
REMARK                            x       y       z     vdW  Elec       q    Type
REMARK                         _______ _______ _______ _____ _____    ______ ____
ROOT
ATOM      1  C   LIG    1       -1.433  -0.534   0.013  0.00  0.00    +0.120 C 
ENDROOT
BRANCH   1   2
ATOM      2  C   LIG    1       -1.413  -2.041   0.005  0.00  0.00    +0.560 C 
ATOM      3  O   LIG    1       -0.885  -2.638  -0.918  0.00  0.00    -0.760 OA
ATOM      4  O   LIG    1       -1.924  -2.662   0.921  0.00  0.00    -0.670 OA
ENDBRANCH   1   2
BRANCH   1   6
ATOM      5  C   LIG    1       -0.019   1.526   0.010  0.00  0.00    -0.010 C 
ATOM      6  C   LIG    1        0.002  -0.004   0.002  0.00  0.00    -0.120 C 
BRANCH   6   7
ATOM      7  C   LIG    1        0.731  -0.503   1.223  0.00  0.00    +0.500 C 
ATOM      8  O   LIG    1        1.896  -0.194   1.406  0.00  0.00    -0.760 OA
ATOM      9  O   LIG    1        0.156  -1.216   2.027  0.00  0.00    -0.640 OA
ENDBRANCH   6   7
ENDBRANCH   1   6
BRANCH   1  10
ATOM     10  O   LIG    1       -2.102  -0.073   1.189  0.00  0.00    -0.500 OA
ATOM     11  H   LIG    1       -2.153   0.890   1.260  0.00  0.00    +0.300 HD
ENDBRANCH   1  10
BRANCH   1  12
ATOM     12  C   LIG    1       -2.173  -0.027  -1.227  0.00  0.00    -0.110 C 
BRANCH  12  13
ATOM     13  C   LIG    1       -3.587  -0.548  -1.216  0.00  0.00    +0.490 C 
ATOM     14  O   LIG    1       -4.351  -0.259  -2.122  0.00  0.00    -0.760 OA
ATOM     15  O   LIG    1       -3.968  -1.260  -0.302  0.00  0.00    -0.640 OA
ENDBRANCH  12  13
ENDBRANCH   1  12
TORSDOF 6
ENDMDL
MODEL       68
REMARK  Name = ZINC000002572383
REMARK                            x       y       z     vdW  Elec       q    Type
REMARK                         _______ _______ _______ _____ _____    ______ ____
ROOT
ATOM      1  C   LIG    1        0.742  -0.511   1.242  0.00  0.00    +0.100 C 
ENDROOT
BRANCH   1   2
ATOM      2  C   LIG    1       -0.030  -0.130   2.478  0.00  0.00    +0.560 C 
ATOM      3  O   LIG    1       -0.246   1.045   2.724  0.00  0.00    -0.720 OA
ATOM      4  O   LIG    1       -0.438  -0.995   3.233  0.00  0.00    -0.690 OA
ENDBRANCH   1   2
BRANCH   1   6
ATOM      5  C   LIG    1       -0.019   1.526   0.010  0.00  0.00    +0.010 C 
ATOM      6  C   LIG    1        0.002  -0.004   0.002  0.00  0.00    -0.150 C 
BRANCH   6   7
ATOM      7  C   LIG    1       -1.412  -0.526   0.013  0.00  0.00    +0.510 C 
ATOM      8  O   LIG    1       -2.257   0.018   0.703  0.00  0.00    -0.680 OA
ATOM      9  O   LIG    1       -1.710  -1.492  -0.668  0.00  0.00    -0.740 OA
ENDBRANCH   6   7
ENDBRANCH   1   6
BRANCH   1  10
ATOM     10  O   LIG    1        0.863  -1.933   1.175  0.00  0.00    -0.510 OA
ATOM     11  H   LIG    1        1.350  -2.251   0.403  0.00  0.00    +0.320 HD
ENDBRANCH   1  10
BRANCH   1  12
ATOM     12  C   LIG    1        2.136   0.118   1.296  0.00  0.00    -0.100 C 
BRANCH  12  13
ATOM     13  C   LIG    1        2.865  -0.381   2.517  0.00  0.00    +0.490 C 
ATOM     14  O   LIG    1        3.999   0.001   2.748  0.00  0.00    -0.760 OA
ATOM     15  O   LIG    1        2.320  -1.167   3.273  0.00  0.00    -0.650 OA
ENDBRANCH  12  13
ENDBRANCH   1  12
TORSDOF 6
ENDMDL
MODEL       69
REMARK  Name = ZINC000003581021
REMARK                            x       y       z     vdW  Elec       q    Type
REMARK                         _______ _______ _______ _____ _____    ______ ____
ROOT
ATOM      1  C   LIG    1       -1.483   2.739  -1.283  0.00  0.00    +0.160 C 
ENDROOT
BRANCH   1   2
ATOM      2  O   LIG    1       -0.413   3.678  -1.401  0.00  0.00    -0.530 OA
ATOM      3  H   LIG    1       -0.374   4.322  -0.680  0.00  0.00    +0.360 HD
ENDBRANCH   1   2
BRANCH   1   4
ATOM      4  C   LIG    1       -1.330   1.951   0.019  0.00  0.00    +0.090 C 
BRANCH   4   6
ATOM      5  O   LIG    1        0.002  -0.004   0.002  0.00  0.00    -0.700 OA
ATOM      6  C   LIG    1       -0.015   1.215   0.009  0.00  0.00    +0.480 C 
ATOM      7  O   LIG    1        1.033   1.839   0.002  0.00  0.00    -0.690 OA
ENDBRANCH   4   6
BRANCH   4   8
ATOM      8  O   LIG    1       -2.400   1.011   0.136  0.00  0.00    -0.540 OA
ATOM      9  H   LIG    1       -2.439   0.367  -0.584  0.00  0.00    +0.360 HD
ENDBRANCH   4   8
ENDBRANCH   1   4
BRANCH   1  10
ATOM     10  C   LIG    1       -2.819   3.486  -1.273  0.00  0.00    +0.170 C 
BRANCH  10  11
ATOM     11  O   LIG    1       -3.889   2.546  -1.156  0.00  0.00    -0.530 OA
ATOM     12  H   LIG    1       -3.928   1.902  -1.876  0.00  0.00    +0.360 HD
ENDBRANCH  10  11
BRANCH  10  13
ATOM     13  C   LIG    1       -2.972   4.274  -2.575  0.00  0.00    +0.110 C 
BRANCH  13  14
ATOM     14  C   LIG    1       -4.338   4.910  -2.619  0.00  0.00    +0.480 C 
ATOM     15  O   LIG    1       -5.144   4.565  -3.466  0.00  0.00    -0.700 OA
ATOM     16  O   LIG    1       -4.636   5.770  -1.808  0.00  0.00    -0.700 OA
ENDBRANCH  13  14
BRANCH  13  17
ATOM     17  O   LIG    1       -2.823   3.389  -3.688  0.00  0.00    -0.550 OA
ATOM     18  H   LIG    1       -3.471   2.672  -3.710  0.00  0.00    +0.360 HD
ENDBRANCH  13  17
ENDBRANCH  10  13
ENDBRANCH   1  10
TORSDOF 9
ENDMDL
MODEL       70
REMARK  Name = ZINC000005670104
REMARK                            x       y       z     vdW  Elec       q    Type
REMARK                         _______ _______ _______ _____ _____    ______ ____
ROOT
ATOM      1  C   LIG    1       -1.894   1.903  -1.280  0.00  0.00    -0.100 C 
ATOM      2  C   LIG    1       -3.144   2.406  -2.062  0.00  0.00    +0.230 C 
ATOM      3  O   LIG    1       -4.028   1.242  -1.968  0.00  0.00    -0.330 OA
ATOM      4  C   LIG    1       -4.038   1.057  -0.515  0.00  0.00    +0.220 C 
ATOM      5  C   LIG    1       -4.492   2.467  -0.032  0.00  0.00    +0.080 C 
ATOM      6  O   LIG    1       -3.466   3.408   0.291  0.00  0.00    -0.330 OA
ATOM      7  C   LIG    1       -3.845   3.421  -1.110  0.00  0.00    +0.080 C 
ATOM      8  C   LIG    1       -2.509   0.970  -0.205  0.00  0.00    -0.090 C 
ENDROOT
BRANCH   1  10
ATOM      9  O   LIG    1       -1.419   0.532  -3.147  0.00  0.00    -0.670 OA
ATOM     10  C   LIG    1       -0.969   1.135  -2.188  0.00  0.00    +0.510 C 
ATOM     11  O   LIG    1        0.230   1.120  -1.966  0.00  0.00    -0.720 OA
ENDBRANCH   1  10
BRANCH   8  12
ATOM     12  C   LIG    1       -2.010  -0.442  -0.371  0.00  0.00    +0.510 C 
ATOM     13  O   LIG    1       -2.499  -1.166  -1.222  0.00  0.00    -0.670 OA
ATOM     14  O   LIG    1       -1.117  -0.861   0.346  0.00  0.00    -0.720 OA
ENDBRANCH   8  12
TORSDOF 2
ENDMDL
MODEL       71
REMARK  Name = ZINC000003861122
REMARK                            x       y       z     vdW  Elec       q    Type
REMARK                         _______ _______ _______ _____ _____    ______ ____
ROOT
ATOM      1  C   LIG    1       -1.485   2.719   0.522  0.00  0.00    +0.030 C 
ATOM      2  O   LIG    1       -1.911   4.051   0.880  0.00  0.00    -0.310 OA
ATOM      3  C   LIG    1       -3.324   3.938   1.156  0.00  0.00    +0.030 C 
ATOM      4  C   LIG    1       -3.470   2.609   1.931  0.00  0.00    -0.120 C 
ATOM      5  C   LIG    1       -2.232   1.786   1.502  0.00  0.00    -0.130 C 
ENDROOT
BRANCH   1   7
ATOM      6  O   LIG    1        0.557   1.532   0.408  0.00  0.00    -0.740 OA
ATOM      7  C   LIG    1        0.005   2.579   0.698  0.00  0.00    +0.530 C 
ATOM      8  O   LIG    1        0.659   3.516   1.124  0.00  0.00    -0.680 OA
ENDBRANCH   1   7
BRANCH   4   9
ATOM      9  C   LIG    1       -3.454   2.860   3.417  0.00  0.00    +0.520 C 
ATOM     10  O   LIG    1       -2.690   3.685   3.888  0.00  0.00    -0.630 OA
ATOM     11  O   LIG    1       -4.205   2.237   4.148  0.00  0.00    -0.770 OA
ENDBRANCH   4   9
BRANCH   3  12
ATOM     12  C   LIG    1       -3.788   5.095   2.003  0.00  0.00    +0.540 C 
ATOM     13  O   LIG    1       -4.951   5.160   2.363  0.00  0.00    -0.740 OA
ATOM     14  O   LIG    1       -2.999   5.967   2.329  0.00  0.00    -0.680 OA
ENDBRANCH   3  12
BRANCH   5  15
ATOM     15  C   LIG    1       -1.367   1.472   2.696  0.00  0.00    +0.520 C 
ATOM     16  O   LIG    1       -0.721   2.357   3.230  0.00  0.00    -0.620 OA
ATOM     17  O   LIG    1       -1.314   0.333   3.127  0.00  0.00    -0.770 OA
ENDBRANCH   5  15
TORSDOF 4
ENDMDL
MODEL       72
REMARK  Name = ZINC000003869215
REMARK                            x       y       z     vdW  Elec       q    Type
REMARK                         _______ _______ _______ _____ _____    ______ ____
ROOT
ATOM      1  C   LIG    1        0.718  -0.497  -1.257  0.00  0.00    +0.180 C 
ENDROOT
BRANCH   1   3
ATOM      2  C   LIG    1       -0.019   1.526   0.010  0.00  0.00    +0.070 C 
ATOM      3  C   LIG    1        0.002  -0.004   0.002  0.00  0.00    +0.100 C 
BRANCH   3   4
ATOM      4  O   LIG    1        0.693  -0.477   1.160  0.00  0.00    -0.540 OA
ATOM      5  H   LIG    1        0.745  -1.441   1.220  0.00  0.00    +0.370 HD
ENDBRANCH   3   4
BRANCH   3   6
ATOM      6  C   LIG    1       -1.433  -0.534   0.013  0.00  0.00    +0.170 C 
BRANCH   6   7
ATOM      7  O   LIG    1       -2.137   0.021   1.126  0.00  0.00    -0.560 OA
ATOM      8  H   LIG    1       -3.056  -0.272   1.196  0.00  0.00    +0.370 HD
ENDBRANCH   6   7
ENDBRANCH   3   6
ENDBRANCH   1   3
BRANCH   1   9
ATOM      9  O   LIG    1        0.027  -0.024  -2.414  0.00  0.00    -0.550 OA
ATOM     10  H   LIG    1       -0.025   0.940  -2.475  0.00  0.00    +0.370 HD
ENDBRANCH   1   9
BRANCH   1  11
ATOM     11  C   LIG    1        2.154   0.032  -1.268  0.00  0.00    +0.200 C 
BRANCH  11  12
ATOM     12  O   LIG    1        2.857  -0.522  -2.381  0.00  0.00    -0.750 OA
BRANCH  12  13
ATOM     13  P   LIG    1        4.398  -0.181  -2.702  0.00  0.00    +2.130 P 
ATOM     14  O   LIG    1        4.810  -0.854  -4.056  0.00  0.00    -1.170 OA
ATOM     15  O   LIG    1        5.305  -0.729  -1.549  0.00  0.00    -1.190 OA
ATOM     16  O   LIG    1        4.577   1.371  -2.815  0.00  0.00    -1.190 OA
ENDBRANCH  12  13
ENDBRANCH  11  12
ENDBRANCH   1  11
TORSDOF 8
ENDMDL
MODEL       73
REMARK  Name = ZINC000003869734
REMARK                            x       y       z     vdW  Elec       q    Type
REMARK                         _______ _______ _______ _____ _____    ______ ____
ROOT
ATOM      1  C   LIG    1        0.742  -0.511   1.242  0.00  0.00    +0.110 C 
ENDROOT
BRANCH   1   2
ATOM      2  C   LIG    1        0.762  -2.018   1.233  0.00  0.00    +0.560 C 
ATOM      3  O   LIG    1        0.252  -2.639   2.149  0.00  0.00    -0.680 OA
ATOM      4  O   LIG    1        1.290  -2.615   0.310  0.00  0.00    -0.730 OA
ENDBRANCH   1   2
BRANCH   1   6
ATOM      5  C   LIG    1       -0.019   1.526   0.010  0.00  0.00    -0.010 C 
ATOM      6  C   LIG    1        0.002  -0.004   0.002  0.00  0.00    -0.120 C 
BRANCH   6   7
ATOM      7  C   LIG    1       -1.412  -0.526   0.013  0.00  0.00    +0.520 C 
ATOM      8  O   LIG    1       -2.257   0.018   0.703  0.00  0.00    -0.720 OA
ATOM      9  O   LIG    1       -1.710  -1.492  -0.668  0.00  0.00    -0.710 OA
ENDBRANCH   6   7
ENDBRANCH   1   6
BRANCH   1  10
ATOM     10  O   LIG    1        0.073  -0.050   2.417  0.00  0.00    -0.510 OA
ATOM     11  H   LIG    1        0.023   0.913   2.489  0.00  0.00    +0.320 HD
ENDBRANCH   1  10
BRANCH   1  12
ATOM     12  C   LIG    1        2.178   0.019   1.231  0.00  0.00    -0.110 C 
BRANCH  12  13
ATOM     13  C   LIG    1        2.942  -0.578   2.384  0.00  0.00    +0.490 C 
ATOM     14  O   LIG    1        4.112  -0.284   2.557  0.00  0.00    -0.760 OA
ATOM     15  O   LIG    1        2.390  -1.355   3.144  0.00  0.00    -0.640 OA
ENDBRANCH  12  13
ENDBRANCH   1  12
TORSDOF 6
ENDMDL
MODEL       74
REMARK  Name = ZINC000003902809
REMARK                            x       y       z     vdW  Elec       q    Type
REMARK                         _______ _______ _______ _____ _____    ______ ____
ROOT
ATOM      1  C   UNK A  0       -2.052  -0.660   1.222  0.00  0.00    +0.280 A 
ATOM      2  N   UNK A  0       -1.474  -0.345   2.352  0.00  0.00    -0.340 NA
ATOM      3  N   UNK A  0       -2.169  -0.501   3.557  0.00  0.00    -0.580 N 
ATOM      4  H   UNK A  0       -1.736  -0.266   4.392  0.00  0.00    +0.410 HD
ATOM      5  C   UNK A  0       -3.429  -0.970   3.572  0.00  0.00    +0.640 A 
ATOM      6  N   UNK A  0       -4.061  -1.306   2.432  0.00  0.00    -0.700 NA
ATOM      7  O   UNK A  0       -4.008  -1.094   4.635  0.00  0.00    -0.630 OA
ATOM      8  C   UNK A  0       -3.433  -1.169   1.246  0.00  0.00    +0.500 A 
ATOM      9  O   UNK A  0       -3.998  -1.469   0.211  0.00  0.00    -0.580 OA
ENDROOT
BRANCH   1  10
ATOM     10  N   ALA A  1       -1.372  -0.511   0.012  0.00  0.00    -0.670 N 
ATOM     11  H   ALA A  1       -1.810  -0.743  -0.822  0.00  0.00    +0.420 HD
BRANCH  10  13
ATOM     12  CB  ALA A  1       -0.019   1.526   0.010  0.00  0.00    +0.010 C 
ATOM     13  CA  ALA A  1        0.002  -0.004   0.002  0.00  0.00    +0.160 C 
BRANCH  13  14
ATOM     14  C   ALA A  1        0.707  -0.490  -1.238  0.00  0.00    +0.500 C 
ATOM     15  OXT ALA A  1        0.073  -0.696  -2.259  0.00  0.00    -0.690 OA
ATOM     16  O   ALA A  1        1.912  -0.677  -1.220  0.00  0.00    -0.700 OA
ENDBRANCH  13  14
ENDBRANCH  10  13
ENDBRANCH   1  10
TORSDOF 3
ENDMDL
MODEL       75
REMARK  Name = ZINC000004261827
REMARK                            x       y       z     vdW  Elec       q    Type
REMARK                         _______ _______ _______ _____ _____    ______ ____
ROOT
ATOM      1  C   LIG    1       -0.848   2.016   1.520  0.00  0.00    -0.320 C 
ENDROOT
BRANCH   1   3
ATOM      2  O   LIG    1        0.002  -0.004   0.002  0.00  0.00    -1.070 OA
ATOM      3  S   LIG    1       -0.018   1.450   0.010  0.00  0.00    +2.630 S 
ATOM      4  O   LIG    1       -0.752   1.947  -1.143  0.00  0.00    -1.070 OA
ATOM      5  O   LIG    1        1.341   1.970  -0.000  0.00  0.00    -1.050 OA
ENDBRANCH   1   3
BRANCH   1   6
ATOM      6  O   LIG    1       -2.186   1.513   1.545  0.00  0.00    -0.510 OA
ATOM      7  H   LIG    1       -2.244   0.548   1.532  0.00  0.00    +0.370 HD
ENDBRANCH   1   6
BRANCH   1   8
ATOM      8  C   LIG    1       -0.088   1.501   2.744  0.00  0.00    -0.320 C 
BRANCH   8   9
ATOM      9  S   LIG    1       -0.918   2.066   4.254  0.00  0.00    +2.630 S 
ATOM     10  O   LIG    1       -2.277   1.547   4.264  0.00  0.00    -1.050 OA
ATOM     11  O   LIG    1       -0.938   3.521   4.262  0.00  0.00    -1.070 OA
ATOM     12  O   LIG    1       -0.184   1.569   5.407  0.00  0.00    -1.070 OA
ENDBRANCH   8   9
BRANCH   8  13
ATOM     13  O   LIG    1        1.250   2.003   2.719  0.00  0.00    -0.510 OA
ATOM     14  H   LIG    1        1.308   2.969   2.733  0.00  0.00    +0.370 HD
ENDBRANCH   8  13
ENDBRANCH   1   8
TORSDOF 5
ENDMDL
MODEL       76
REMARK  Name = ZINC000004261826
REMARK                            x       y       z     vdW  Elec       q    Type
REMARK                         _______ _______ _______ _____ _____    ______ ____
ROOT
ATOM      1  C   LIG    1       -0.848   2.016   1.520  0.00  0.00    -0.310 C 
ENDROOT
BRANCH   1   3
ATOM      2  O   LIG    1        0.002  -0.004   0.002  0.00  0.00    -1.050 OA
ATOM      3  S   LIG    1       -0.018   1.450   0.010  0.00  0.00    +2.640 S 
ATOM      4  O   LIG    1       -0.752   1.947  -1.143  0.00  0.00    -1.070 OA
ATOM      5  O   LIG    1        1.341   1.970  -0.000  0.00  0.00    -1.060 OA
ENDBRANCH   1   3
BRANCH   1   6
ATOM      6  O   LIG    1       -2.186   1.513   1.545  0.00  0.00    -0.510 OA
ATOM      7  H   LIG    1       -2.244   0.548   1.532  0.00  0.00    +0.370 HD
ENDBRANCH   1   6
BRANCH   1   8
ATOM      8  C   LIG    1       -0.088   1.501   2.744  0.00  0.00    -0.310 C 
BRANCH   8   9
ATOM      9  S   LIG    1       -0.918   2.066   4.254  0.00  0.00    +2.640 S 
ATOM     10  O   LIG    1       -2.277   1.547   4.264  0.00  0.00    -1.050 OA
ATOM     11  O   LIG    1       -0.938   3.521   4.262  0.00  0.00    -1.060 OA
ATOM     12  O   LIG    1       -0.184   1.569   5.407  0.00  0.00    -1.070 OA
ENDBRANCH   8   9
BRANCH   8  13
ATOM     13  O   LIG    1       -0.060   0.072   2.722  0.00  0.00    -0.510 OA
ATOM     14  H   LIG    1       -0.936  -0.338   2.736  0.00  0.00    +0.370 HD
ENDBRANCH   8  13
ENDBRANCH   1   8
TORSDOF 5
ENDMDL
MODEL       77
REMARK  Name = ZINC000005217387
REMARK                            x       y       z     vdW  Elec       q    Type
REMARK                         _______ _______ _______ _____ _____    ______ ____
ROOT
ATOM      1  C   LIG    1       -2.981   1.955   2.820  0.00  0.00    -0.300 C 
ENDROOT
BRANCH   1   2
ATOM      2  S   LIG    1       -4.626   1.198   2.925  0.00  0.00    +2.620 S 
ATOM      3  O   LIG    1       -4.476  -0.248   2.957  0.00  0.00    -1.060 OA
ATOM      4  O   LIG    1       -5.400   1.595   1.759  0.00  0.00    -1.060 OA
ATOM      5  O   LIG    1       -5.279   1.661   4.140  0.00  0.00    -1.060 OA
ENDBRANCH   1   2
BRANCH   1   6
ATOM      6  O   LIG    1       -3.112   3.377   2.788  0.00  0.00    -0.540 OA
ATOM      7  H   LIG    1       -3.626   3.708   2.039  0.00  0.00    +0.370 HD
ENDBRANCH   1   6
BRANCH   1   8
ATOM      8  C   LIG    1       -2.280   1.478   1.546  0.00  0.00    +0.060 C 
BRANCH   8   9
ATOM      9  C   LIG    1       -0.848   2.016   1.520  0.00  0.00    -0.460 C 
BRANCH   9  11
ATOM     10  O   LIG    1        0.002  -0.004   0.002  0.00  0.00    -1.070 OA
ATOM     11  S   LIG    1       -0.018   1.450   0.010  0.00  0.00    +2.640 S 
ATOM     12  O   LIG    1       -0.752   1.947  -1.143  0.00  0.00    -1.070 OA
ATOM     13  O   LIG    1        1.341   1.970  -0.000  0.00  0.00    -1.080 OA
ENDBRANCH   9  11
ENDBRANCH   8   9
ENDBRANCH   1   8
TORSDOF 5
ENDMDL
MODEL       78
REMARK  Name = ZINC000005828879
REMARK                            x       y       z     vdW  Elec       q    Type
REMARK                         _______ _______ _______ _____ _____    ______ ____
ROOT
ATOM      1  C   LIG    1       -2.981   1.955   2.820  0.00  0.00    -0.300 C 
ENDROOT
BRANCH   1   2
ATOM      2  S   LIG    1       -4.721   1.442   2.782  0.00  0.00    +2.620 S 
ATOM      3  O   LIG    1       -4.780  -0.009   2.700  0.00  0.00    -1.060 OA
ATOM      4  O   LIG    1       -5.359   2.035   1.617  0.00  0.00    -1.060 OA
ATOM      5  O   LIG    1       -5.372   1.902   3.998  0.00  0.00    -1.060 OA
ENDBRANCH   1   2
BRANCH   1   6
ATOM      6  O   LIG    1       -2.340   1.379   3.961  0.00  0.00    -0.540 OA
ATOM      7  H   LIG    1       -2.353   0.412   3.973  0.00  0.00    +0.370 HD
ENDBRANCH   1   6
BRANCH   1   8
ATOM      8  C   LIG    1       -2.280   1.478   1.546  0.00  0.00    +0.060 C 
BRANCH   8   9
ATOM      9  C   LIG    1       -0.848   2.016   1.520  0.00  0.00    -0.460 C 
BRANCH   9  11
ATOM     10  O   LIG    1        0.002  -0.004   0.002  0.00  0.00    -1.070 OA
ATOM     11  S   LIG    1       -0.018   1.450   0.010  0.00  0.00    +2.640 S 
ATOM     12  O   LIG    1       -0.752   1.947  -1.143  0.00  0.00    -1.070 OA
ATOM     13  O   LIG    1        1.341   1.970  -0.000  0.00  0.00    -1.080 OA
ENDBRANCH   9  11
ENDBRANCH   8   9
ENDBRANCH   1   8
TORSDOF 5
ENDMDL
MODEL       79
REMARK  Name = ZINC000087440238
REMARK                            x       y       z     vdW  Elec       q    Type
REMARK                         _______ _______ _______ _____ _____    ______ ____
ROOT
ATOM      1  C   LIG    1       -1.330   1.951   0.019  0.00  0.00    -0.100 C 
ATOM      2  C   LIG    1       -1.109   3.484   0.107  0.00  0.00    +0.040 C 
ATOM      3  C   LIG    1       -2.407   3.983   0.775  0.00  0.00    +0.260 C 
ATOM      4  N   LIG    1       -2.993   2.843   1.495  0.00  0.00    -0.610 N 
ATOM      5  C   LIG    1       -4.146   2.863   2.193  0.00  0.00    +0.630 C 
ATOM      6  O   LIG    1       -4.536   1.857   2.751  0.00  0.00    -0.550 OA
ATOM      7  C   LIG    1       -2.111   1.673   1.327  0.00  0.00    +0.270 C 
ENDROOT
BRANCH   5   8
ATOM      8  C   LIG    1       -4.937   4.112   2.279  0.00  0.00    +0.020 A 
ATOM      9  N   LIG    1       -4.640   5.285   1.718  0.00  0.00    -0.350 NA
ATOM     10  N   LIG    1       -5.578   6.112   2.031  0.00  0.00    -0.190 NA
ATOM     11  N   LIG    1       -6.449   5.510   2.762  0.00  0.00    -0.200 NA
ATOM     12  N   LIG    1       -6.089   4.283   2.928  0.00  0.00    -0.330 NA
ENDBRANCH   5   8
BRANCH   1  14
ATOM     13  O   LIG    1        0.002  -0.004   0.002  0.00  0.00    -0.700 OA
ATOM     14  C   LIG    1       -0.015   1.215   0.009  0.00  0.00    +0.510 C 
ATOM     15  O   LIG    1        1.033   1.839   0.002  0.00  0.00    -0.700 OA
ENDBRANCH   1  14
TORSDOF 2
ENDMDL
MODEL       80
REMARK  Name = ZINC000031623577
REMARK                            x       y       z     vdW  Elec       q    Type
REMARK                         _______ _______ _______ _____ _____    ______ ____
ROOT
ATOM      1  C   LIG    1        0.002  -0.004   0.002  0.00  0.00    +0.620 A 
ATOM      2  N   LIG    1       -1.147  -0.649   0.004  0.00  0.00    -0.570 NA
ATOM      3  C   LIG    1       -1.209  -1.978  -0.003  0.00  0.00    +0.390 A 
ATOM      4  C   LIG    1       -0.008  -2.728  -0.014  0.00  0.00    -0.230 A 
ATOM      5  C   LIG    1        1.267  -1.988  -0.016  0.00  0.00    +0.570 A 
ATOM      6  O   LIG    1        2.335  -2.572  -0.025  0.00  0.00    -0.540 OA
ATOM      7  N   LIG    1       -0.025  -4.051  -0.021  0.00  0.00    -0.340 NA
ATOM      8  CA  LIG    1       -1.172  -4.712  -0.019  0.00  0.00    -0.090 A 
ATOM      9  C   LIG    1       -2.441  -3.973  -0.009  0.00  0.00    +0.480 A 
ATOM     10  O   LIG    1       -3.501  -4.570  -0.007  0.00  0.00    -0.550 OA
ATOM     11  N   LIG    1       -2.416  -2.622  -0.000  0.00  0.00    -0.620 NA
ATOM     12  N   LIG    1        1.206  -0.637  -0.013  0.00  0.00    -0.670 N 
ATOM     13  H   LIG    1        2.025  -0.117  -0.014  0.00  0.00    +0.390 HD
ENDROOT
BRANCH   1  14
ATOM     14  N   LIG    1       -0.016   1.361   0.009  0.00  0.00    -0.840 N 
ATOM     15  H   LIG    1       -0.863   1.834   0.016  0.00  0.00    +0.420 HD
ATOM     16  H   LIG    1        0.817   1.857   0.004  0.00  0.00    +0.400 HD
ENDBRANCH   1  14
BRANCH   8  17
ATOM     17  C   LIG    1       -1.175  -6.181  -0.026  0.00  0.00    +0.550 C 
ATOM     18  OXT LIG    1       -2.237  -6.790  -0.024  0.00  0.00    -0.680 OA
ATOM     19  O   LIG    1       -0.117  -6.795  -0.034  0.00  0.00    -0.700 OA
ENDBRANCH   8  17
TORSDOF 2
ENDMDL
MODEL       81
REMARK  Name = ZINC000087440240
REMARK                            x       y       z     vdW  Elec       q    Type
REMARK                         _______ _______ _______ _____ _____    ______ ____
ROOT
ATOM      1  C   LIG    1       -1.330   1.951   0.019  0.00  0.00    -0.100 C 
ATOM      2  C   LIG    1       -1.502   2.800  -1.268  0.00  0.00    +0.030 C 
ATOM      3  C   LIG    1       -3.035   2.890  -1.420  0.00  0.00    +0.260 C 
ATOM      4  N   LIG    1       -3.615   1.761  -0.677  0.00  0.00    -0.610 N 
ATOM      5  C   LIG    1       -4.930   1.498  -0.549  0.00  0.00    +0.630 C 
ATOM      6  O   LIG    1       -5.297   0.532   0.090  0.00  0.00    -0.550 OA
ATOM      7  C   LIG    1       -2.518   0.964  -0.096  0.00  0.00    +0.270 C 
ENDROOT
BRANCH   5   8
ATOM      8  C   LIG    1       -5.928   2.386  -1.188  0.00  0.00    +0.020 A 
ATOM      9  N   LIG    1       -5.678   3.472  -1.920  0.00  0.00    -0.350 NA
ATOM     10  N   LIG    1       -6.812   3.959  -2.291  0.00  0.00    -0.190 NA
ATOM     11  N   LIG    1       -7.762   3.228  -1.823  0.00  0.00    -0.200 NA
ATOM     12  N   LIG    1       -7.255   2.253  -1.149  0.00  0.00    -0.330 NA
ENDBRANCH   5   8
BRANCH   1  14
ATOM     13  O   LIG    1        0.002  -0.004   0.002  0.00  0.00    -0.700 OA
ATOM     14  C   LIG    1       -0.015   1.215   0.009  0.00  0.00    +0.510 C 
ATOM     15  O   LIG    1        1.033   1.839   0.002  0.00  0.00    -0.700 OA
ENDBRANCH   1  14
TORSDOF 2
ENDMDL
MODEL       82
REMARK  Name = ZINC000003100656
REMARK                            x       y       z     vdW  Elec       q    Type
REMARK                         _______ _______ _______ _____ _____    ______ ____
ROOT
ATOM      1  C   LIG    1       -2.739  -0.181   0.019  0.00  0.00    +0.320 C 
ENDROOT
BRANCH   1   6
ATOM      2  C   LIG    1       -1.301   1.939   0.019  0.00  0.00    +0.030 A 
ATOM      3  N   LIG    1       -1.414   3.250   0.021  0.00  0.00    -0.530 NA
ATOM      4  S   LIG    1       -2.931   3.611   0.032  0.00  0.00    +0.540 S 
ATOM      5  N   LIG    1       -3.526   2.170   0.034  0.00  0.00    -0.580 NA
ATOM      6  C   LIG    1       -2.548   1.313   0.021  0.00  0.00    +0.090 A 
BRANCH   2   8
ATOM      7  O   LIG    1        0.002  -0.004   0.002  0.00  0.00    -0.650 OA
ATOM      8  C   LIG    1       -0.015   1.219   0.009  0.00  0.00    +0.570 C 
ATOM      9  O   LIG    1        1.036   1.845   0.002  0.00  0.00    -0.660 OA
ENDBRANCH   2   8
ENDBRANCH   1   6
BRANCH   1  10
ATOM     10  O   LIG    1       -3.755  -0.530  -0.924  0.00  0.00    -0.530 OA
ATOM     11  H   LIG    1       -4.617  -0.133  -0.739  0.00  0.00    +0.360 HD
ENDBRANCH   1  10
BRANCH   1  12
ATOM     12  C   LIG    1       -3.159  -0.644   1.415  0.00  0.00    +0.100 C 
BRANCH  12  13
ATOM     13  C   LIG    1       -3.350  -2.139   1.413  0.00  0.00    +0.480 C 
ATOM     14  O   LIG    1       -4.237  -2.639   0.742  0.00  0.00    -0.690 OA
ATOM     15  O   LIG    1       -2.618  -2.849   2.081  0.00  0.00    -0.690 OA
ENDBRANCH  12  13
BRANCH  12  16
ATOM     16  O   LIG    1       -2.143  -0.296   2.358  0.00  0.00    -0.560 OA
ATOM     17  H   LIG    1       -1.281  -0.694   2.172  0.00  0.00    +0.380 HD
ENDBRANCH  12  16
ENDBRANCH   1  12
TORSDOF 6
ENDMDL
MODEL       83
REMARK  Name = ZINC000003100658
REMARK                            x       y       z     vdW  Elec       q    Type
REMARK                         _______ _______ _______ _____ _____    ______ ____
ROOT
ATOM      1  C   LIG    1       -2.739  -0.181   0.019  0.00  0.00    +0.330 C 
ENDROOT
BRANCH   1   6
ATOM      2  C   LIG    1       -1.301   1.939   0.019  0.00  0.00    +0.030 A 
ATOM      3  N   LIG    1       -1.414   3.250   0.021  0.00  0.00    -0.530 NA
ATOM      4  S   LIG    1       -2.931   3.611   0.032  0.00  0.00    +0.540 S 
ATOM      5  N   LIG    1       -3.526   2.170   0.034  0.00  0.00    -0.560 NA
ATOM      6  C   LIG    1       -2.548   1.313   0.021  0.00  0.00    +0.080 A 
BRANCH   2   8
ATOM      7  O   LIG    1        0.002  -0.004   0.002  0.00  0.00    -0.640 OA
ATOM      8  C   LIG    1       -0.015   1.219   0.009  0.00  0.00    +0.560 C 
ATOM      9  O   LIG    1        1.036   1.845   0.002  0.00  0.00    -0.660 OA
ENDBRANCH   2   8
ENDBRANCH   1   6
BRANCH   1  10
ATOM     10  O   LIG    1       -3.755  -0.530  -0.924  0.00  0.00    -0.540 OA
ATOM     11  H   LIG    1       -4.617  -0.133  -0.739  0.00  0.00    +0.360 HD
ENDBRANCH   1  10
BRANCH   1  12
ATOM     12  C   LIG    1       -3.159  -0.644   1.415  0.00  0.00    +0.120 C 
BRANCH  12  13
ATOM     13  C   LIG    1       -3.469  -2.119   1.384  0.00  0.00    +0.490 C 
ATOM     14  O   LIG    1       -4.605  -2.508   1.597  0.00  0.00    -0.700 OA
ATOM     15  O   LIG    1       -2.584  -2.923   1.145  0.00  0.00    -0.680 OA
ENDBRANCH  12  13
BRANCH  12  16
ATOM     16  O   LIG    1       -4.321   0.078   1.827  0.00  0.00    -0.550 OA
ATOM     17  H   LIG    1       -5.084  -0.041   1.246  0.00  0.00    +0.360 HD
ENDBRANCH  12  16
ENDBRANCH   1  12
TORSDOF 6
ENDMDL
MODEL       84
REMARK  Name = ZINC000003100657
REMARK                            x       y       z     vdW  Elec       q    Type
REMARK                         _______ _______ _______ _____ _____    ______ ____
ROOT
ATOM      1  C   LIG    1       -2.739  -0.181   0.019  0.00  0.00    +0.330 C 
ENDROOT
BRANCH   1   6
ATOM      2  C   LIG    1       -1.301   1.939   0.019  0.00  0.00    +0.030 A 
ATOM      3  N   LIG    1       -1.414   3.250   0.021  0.00  0.00    -0.530 NA
ATOM      4  S   LIG    1       -2.931   3.611   0.032  0.00  0.00    +0.540 S 
ATOM      5  N   LIG    1       -3.526   2.170   0.034  0.00  0.00    -0.560 NA
ATOM      6  C   LIG    1       -2.548   1.313   0.021  0.00  0.00    +0.080 A 
BRANCH   2   8
ATOM      7  O   LIG    1        0.002  -0.004   0.002  0.00  0.00    -0.640 OA
ATOM      8  C   LIG    1       -0.015   1.219   0.009  0.00  0.00    +0.560 C 
ATOM      9  O   LIG    1        1.036   1.845   0.002  0.00  0.00    -0.660 OA
ENDBRANCH   2   8
ENDBRANCH   1   6
BRANCH   1  10
ATOM     10  O   LIG    1       -3.734  -0.536   0.981  0.00  0.00    -0.540 OA
ATOM     11  H   LIG    1       -4.600  -0.137   0.818  0.00  0.00    +0.360 HD
ENDBRANCH   1  10
BRANCH   1  12
ATOM     12  C   LIG    1       -3.190  -0.636  -1.371  0.00  0.00    +0.120 C 
BRANCH  12  13
ATOM     13  C   LIG    1       -3.499  -2.110  -1.342  0.00  0.00    +0.490 C 
ATOM     14  O   LIG    1       -2.609  -2.916  -1.128  0.00  0.00    -0.680 OA
ATOM     15  O   LIG    1       -4.639  -2.498  -1.533  0.00  0.00    -0.700 OA
ENDBRANCH  12  13
BRANCH  12  16
ATOM     16  O   LIG    1       -4.360   0.089  -1.753  0.00  0.00    -0.550 OA
ATOM     17  H   LIG    1       -5.111  -0.033  -1.156  0.00  0.00    +0.360 HD
ENDBRANCH  12  16
ENDBRANCH   1  12
TORSDOF 6
ENDMDL
MODEL       85
REMARK  Name = ZINC000261492795
REMARK                            x       y       z     vdW  Elec       q    Type
REMARK                         _______ _______ _______ _____ _____    ______ ____
ROOT
ATOM      1  C   LIG    1       -1.330   1.951   0.019  0.00  0.00    -0.060 C 
ATOM      2  C   LIG    1       -2.296   1.469   1.114  0.00  0.00    -0.070 C 
ATOM      3  C   LIG    1       -2.667   2.947   1.326  0.00  0.00    -0.060 C 
ATOM      4  C   LIG    1       -1.277   3.296   0.763  0.00  0.00    -0.070 C 
ENDROOT
BRANCH   1   6
ATOM      5  O   LIG    1        0.002  -0.004   0.002  0.00  0.00    -0.730 OA
ATOM      6  C   LIG    1       -0.015   1.215   0.009  0.00  0.00    +0.510 C 
ATOM      7  O   LIG    1        1.033   1.839   0.002  0.00  0.00    -0.720 OA
ENDBRANCH   1   6
BRANCH   3   8
ATOM      8  C   LIG    1       -2.845   3.322   2.774  0.00  0.00    +0.510 C 
ATOM      9  O   LIG    1       -3.235   2.491   3.576  0.00  0.00    -0.720 OA
ATOM     10  O   LIG    1       -2.598   4.458   3.144  0.00  0.00    -0.730 OA
ENDBRANCH   3   8
BRANCH   2  11
ATOM     11  C   LIG    1       -3.432   0.629   0.590  0.00  0.00    +0.530 C 
ATOM     12  O   LIG    1       -3.978   0.928  -0.459  0.00  0.00    -0.720 OA
ATOM     13  O   LIG    1       -3.805  -0.349   1.214  0.00  0.00    -0.740 OA
ENDBRANCH   2  11
BRANCH   4  14
ATOM     14  C   LIG    1       -1.280   4.495  -0.149  0.00  0.00    +0.530 C 
ATOM     15  O   LIG    1       -2.192   4.657  -0.942  0.00  0.00    -0.720 OA
ATOM     16  O   LIG    1       -0.369   5.304  -0.095  0.00  0.00    -0.740 OA
ENDBRANCH   4  14
TORSDOF 4
ENDMDL
MODEL       86
REMARK  Name = ZINC000001808108
REMARK                            x       y       z     vdW  Elec       q    Type
REMARK                         _______ _______ _______ _____ _____    ______ ____
ROOT
ATOM      1  C   LIG    1       -6.236   1.168   0.038  0.00  0.00    +0.270 A 
ATOM      2  N   LIG    1       -6.505   2.448   0.041  0.00  0.00    -0.330 NA
ATOM      3  N   LIG    1       -7.836   2.880   0.049  0.00  0.00    -0.580 N 
ATOM      4  H   LIG    1       -8.030   3.830   0.051  0.00  0.00    +0.410 HD
ATOM      5  C   LIG    1       -8.850   1.997   0.054  0.00  0.00    +0.640 A 
ATOM      6  N   LIG    1       -8.618   0.671   0.051  0.00  0.00    -0.690 NA
ATOM      7  O   LIG    1       -9.996   2.403   0.061  0.00  0.00    -0.630 OA
ATOM      8  C   LIG    1       -7.351   0.206   0.038  0.00  0.00    +0.500 A 
ATOM      9  O   LIG    1       -7.133  -0.991   0.035  0.00  0.00    -0.580 OA
ENDROOT
BRANCH   1  10
ATOM     10  N   LIG    1       -4.915   0.721   0.029  0.00  0.00    -0.700 N 
ATOM     11  H   LIG    1       -4.724  -0.231   0.023  0.00  0.00    +0.410 HD
BRANCH  10  12
ATOM     12  C   LIG    1       -3.814   1.688   0.029  0.00  0.00    +0.230 C 
BRANCH  12  13
ATOM     13  C   LIG    1       -2.479   0.941   0.019  0.00  0.00    +0.020 C 
BRANCH  13  14
ATOM     14  C   LIG    1       -1.330   1.951   0.019  0.00  0.00    -0.060 C 
BRANCH  14  16
ATOM     15  O   LIG    1        0.002  -0.004   0.002  0.00  0.00    -0.700 OA
ATOM     16  C   LIG    1       -0.015   1.215   0.009  0.00  0.00    +0.490 C 
ATOM     17  O   LIG    1        1.033   1.839   0.002  0.00  0.00    -0.710 OA
ENDBRANCH  14  16
ENDBRANCH  13  14
ENDBRANCH  12  13
ENDBRANCH  10  12
ENDBRANCH   1  10
TORSDOF 5
ENDMDL
MODEL       87
REMARK  Name = ZINC000012397349
REMARK                            x       y       z     vdW  Elec       q    Type
REMARK                         _______ _______ _______ _____ _____    ______ ____
ROOT
ATOM      1  C   LIG    1       -0.060   1.452   0.009  0.00  0.00    +0.340 C 
ATOM      2  N   LIG    1       -0.015  -0.012   0.003  0.00  0.00    -0.360 N 
ATOM      3  N   LIG    1       -0.099  -0.830  -1.130  0.00  0.00    -0.320 NA
ATOM      4  C   LIG    1       -0.025  -2.082  -0.761  0.00  0.00    +0.260 A 
ATOM      5  C   LIG    1        0.111  -2.124   0.638  0.00  0.00    -0.240 A 
ATOM      6  C   LIG    1        0.120  -0.804   1.089  0.00  0.00    +0.070 A 
ENDROOT
BRANCH   6   7
ATOM      7  C   LIG    1        0.244  -0.357   2.490  0.00  0.00    +0.600 C 
ATOM      8  N   LIG    1        1.438   0.050   2.965  0.00  0.00    -0.690 N 
ATOM      9  H   LIG    1        2.199   0.120   2.367  0.00  0.00    +0.410 HD
ATOM     10  O   LIG    1       -0.731  -0.356   3.217  0.00  0.00    -0.540 OA
BRANCH   8  11
ATOM     11  C   LIG    1        1.587   0.385   4.383  0.00  0.00    +0.190 C 
BRANCH  11  12
ATOM     12  C   LIG    1        3.008   0.807   4.653  0.00  0.00    +0.490 C 
ATOM     13  O   LIG    1        3.345   1.129   5.780  0.00  0.00    -0.700 OA
ATOM     14  O   LIG    1        3.821   0.826   3.745  0.00  0.00    -0.690 OA
ENDBRANCH  11  12
ENDBRANCH   8  11
ENDBRANCH   6   7
BRANCH   5  15
ATOM     15  C   LIG    1        0.229  -3.335   1.470  0.00  0.00    +0.550 C 
ATOM     16  O   LIG    1        0.343  -3.235   2.684  0.00  0.00    -0.670 OA
ATOM     17  O   LIG    1        0.212  -4.441   0.947  0.00  0.00    -0.700 OA
ENDBRANCH   5  15
TORSDOF 4
ENDMDL
MODEL       88
REMARK  Name = ZINC000013533920
REMARK                            x       y       z     vdW  Elec       q    Type
REMARK                         _______ _______ _______ _____ _____    ______ ____
ROOT
ATOM      1  C   LIG    1       -1.483   2.739  -1.283  0.00  0.00    +0.160 C 
ENDROOT
BRANCH   1   2
ATOM      2  O   LIG    1       -0.413   3.678  -1.401  0.00  0.00    -0.520 OA
ATOM      3  H   LIG    1       -0.374   4.322  -0.680  0.00  0.00    +0.360 HD
ENDBRANCH   1   2
BRANCH   1   4
ATOM      4  C   LIG    1       -1.330   1.951   0.019  0.00  0.00    +0.100 C 
BRANCH   4   6
ATOM      5  O   LIG    1        0.002  -0.004   0.002  0.00  0.00    -0.700 OA
ATOM      6  C   LIG    1       -0.015   1.215   0.009  0.00  0.00    +0.480 C 
ATOM      7  O   LIG    1        1.033   1.839   0.002  0.00  0.00    -0.680 OA
ENDBRANCH   4   6
BRANCH   4   8
ATOM      8  O   LIG    1       -2.400   1.011   0.136  0.00  0.00    -0.550 OA
ATOM      9  H   LIG    1       -2.439   0.367  -0.584  0.00  0.00    +0.370 HD
ENDBRANCH   4   8
ENDBRANCH   1   4
BRANCH   1  10
ATOM     10  C   LIG    1       -2.819   3.486  -1.273  0.00  0.00    +0.180 C 
BRANCH  10  11
ATOM     11  O   LIG    1       -2.900   4.300  -0.101  0.00  0.00    -0.550 OA
ATOM     12  H   LIG    1       -2.201   4.965  -0.035  0.00  0.00    +0.360 HD
ENDBRANCH  10  11
BRANCH  10  13
ATOM     13  C   LIG    1       -2.917   4.371  -2.517  0.00  0.00    +0.100 C 
BRANCH  13  14
ATOM     14  C   LIG    1       -4.175   5.198  -2.446  0.00  0.00    +0.480 C 
ATOM     15  O   LIG    1       -5.266   4.654  -2.479  0.00  0.00    -0.700 OA
ATOM     16  O   LIG    1       -4.102   6.412  -2.356  0.00  0.00    -0.700 OA
ENDBRANCH  13  14
BRANCH  13  17
ATOM     17  O   LIG    1       -1.781   5.236  -2.578  0.00  0.00    -0.540 OA
ATOM     18  H   LIG    1       -1.694   5.824  -1.815  0.00  0.00    +0.360 HD
ENDBRANCH  13  17
ENDBRANCH  10  13
ENDBRANCH   1  10
TORSDOF 9
ENDMDL
MODEL       89
REMARK  Name = ZINC000005975509
REMARK                            x       y       z     vdW  Elec       q    Type
REMARK                         _______ _______ _______ _____ _____    ______ ____
ROOT
ATOM      1  C   LIG    1       -1.706   3.608   2.960  0.00  0.00    +0.180 C 
ENDROOT
BRANCH   1   2
ATOM      2  O   LIG    1       -3.024   3.074   2.820  0.00  0.00    -0.550 OA
ATOM      3  H   LIG    1       -3.557   3.513   2.143  0.00  0.00    +0.370 HD
ENDBRANCH   1   2
BRANCH   1   4
ATOM      4  C   LIG    1       -0.956   3.467   1.634  0.00  0.00    +0.200 C 
BRANCH   4   5
ATOM      5  O   LIG    1       -0.773   2.082   1.335  0.00  0.00    -0.750 OA
BRANCH   5   7
ATOM      6  O   LIG    1        0.002  -0.004   0.002  0.00  0.00    -1.170 OA
ATOM      7  P   LIG    1       -0.019   1.562   0.011  0.00  0.00    +2.130 P 
ATOM      8  O   LIG    1       -0.777   2.081  -1.259  0.00  0.00    -1.190 OA
ATOM      9  O   LIG    1        1.451   2.105  -0.001  0.00  0.00    -1.190 OA
ENDBRANCH   5   7
ENDBRANCH   4   5
ENDBRANCH   1   4
BRANCH   1  10
ATOM     10  C   LIG    1       -1.793   5.087   3.342  0.00  0.00    +0.190 C 
BRANCH  10  11
ATOM     11  O   LIG    1       -0.475   5.621   3.481  0.00  0.00    -0.540 OA
ATOM     12  H   LIG    1        0.058   5.182   4.159  0.00  0.00    +0.370 HD
ENDBRANCH  10  11
BRANCH  10  13
ATOM     13  C   LIG    1       -2.543   5.228   4.668  0.00  0.00    +0.160 C 
BRANCH  13  14
ATOM     14  O   LIG    1       -2.727   6.613   4.967  0.00  0.00    -0.570 OA
ATOM     15  H   LIG    1       -3.197   6.778   5.795  0.00  0.00    +0.370 HD
ENDBRANCH  13  14
ENDBRANCH  10  13
ENDBRANCH   1  10
TORSDOF 8
ENDMDL
MODEL       90
REMARK  Name = ZINC000034582806
REMARK                            x       y       z     vdW  Elec       q    Type
REMARK                         _______ _______ _______ _____ _____    ______ ____
ROOT
ATOM      1  N   LIG    1       -2.953   1.936   2.770  0.00  0.00    -0.340 NA
ENDROOT
BRANCH   1   2
ATOM      2  O   LIG    1       -3.127   3.388   2.760  0.00  0.00    -0.440 OA
ATOM      3  H   LIG    1       -3.567   3.737   3.547  0.00  0.00    +0.370 HD
ENDBRANCH   1   2
BRANCH   1   4
ATOM      4  C   LIG    1       -2.280   1.478   1.546  0.00  0.00    +0.230 C 
BRANCH   4   5
ATOM      5  C   LIG    1       -0.848   2.016   1.520  0.00  0.00    -0.440 C 
BRANCH   5   7
ATOM      6  O   LIG    1        0.002  -0.004   0.002  0.00  0.00    -1.070 OA
ATOM      7  S   LIG    1       -0.018   1.450   0.010  0.00  0.00    +2.640 S 
ATOM      8  O   LIG    1       -0.752   1.947  -1.143  0.00  0.00    -1.070 OA
ATOM      9  O   LIG    1        1.341   1.970  -0.000  0.00  0.00    -1.070 OA
ENDBRANCH   5   7
ENDBRANCH   4   5
ENDBRANCH   1   4
BRANCH   1  10
ATOM     10  C   LIG    1       -4.241   1.252   2.949  0.00  0.00    +0.190 C 
BRANCH  10  11
ATOM     11  C   LIG    1       -4.852   1.661   4.291  0.00  0.00    -0.460 C 
BRANCH  11  12
ATOM     12  S   LIG    1       -6.443   0.817   4.513  0.00  0.00    +2.650 S 
ATOM     13  O   LIG    1       -6.218  -0.620   4.491  0.00  0.00    -1.060 OA
ATOM     14  O   LIG    1       -7.333   1.202   3.429  0.00  0.00    -1.070 OA
ATOM     15  O   LIG    1       -7.010   1.215   5.792  0.00  0.00    -1.070 OA
ENDBRANCH  11  12
ENDBRANCH  10  11
ENDBRANCH   1  10
TORSDOF 7
ENDMDL
MODEL       91
REMARK  Name = ZINC000001725633
REMARK                            x       y       z     vdW  Elec       q    Type
REMARK                         _______ _______ _______ _____ _____    ______ ____
ROOT
ATOM      1  C   LIG    1       -2.305   1.428   1.365  0.00  0.00    -0.070 C 
ATOM      2  C   LIG    1       -2.901   1.439  -0.055  0.00  0.00    +0.200 C 
ATOM      3  O   LIG    1       -3.301   0.082   0.225  0.00  0.00    -0.350 OA
ATOM      4  C   LIG    1       -2.274  -0.105   1.219  0.00  0.00    +0.230 C 
ENDROOT
BRANCH   1   5
ATOM      5  C   LIG    1       -0.919   2.068   1.458  0.00  0.00    -0.460 C 
BRANCH   5   7
ATOM      6  O   LIG    1       -0.780   1.337   4.048  0.00  0.00    -1.050 OA
ATOM      7  S   LIG    1        0.005   1.313   2.825  0.00  0.00    +2.640 S 
ATOM      8  O   LIG    1        0.263  -0.064   2.432  0.00  0.00    -1.060 OA
ATOM      9  O   LIG    1        1.265   2.009   3.036  0.00  0.00    -1.080 OA
ENDBRANCH   5   7
ENDBRANCH   1   5
BRANCH   1  10
ATOM     10  C   LIG    1       -3.267   1.926   2.446  0.00  0.00    -0.430 C 
BRANCH  10  11
ATOM     11  S   LIG    1       -4.875   1.109   2.247  0.00  0.00    +2.650 S 
ATOM     12  O   LIG    1       -4.643  -0.323   2.365  0.00  0.00    -1.050 OA
ATOM     13  O   LIG    1       -5.359   1.439   0.916  0.00  0.00    -1.060 OA
ATOM     14  O   LIG    1       -5.822   1.554   3.257  0.00  0.00    -1.090 OA
ENDBRANCH  10  11
ENDBRANCH   1  10
TORSDOF 4
ENDMDL
MODEL       92
REMARK  Name = ZINC000001529334
REMARK                            x       y       z     vdW  Elec       q    Type
REMARK                         _______ _______ _______ _____ _____    ______ ____
ROOT
ATOM      1  C   LIG    1       -1.353   1.940  -0.066  0.00  0.00    +0.060 C 
ATOM      2  C   LIG    1       -2.533   1.281  -0.096  0.00  0.00    -0.320 C 
ENDROOT
BRANCH   1   4
ATOM      3  O   LIG    1        0.401   0.838  -1.170  0.00  0.00    -0.690 OA
ATOM      4  C   LIG    1       -0.078   1.181  -0.099  0.00  0.00    +0.600 C 
ATOM      5  O   LIG    1        0.495   0.904   0.944  0.00  0.00    -0.700 OA
ENDBRANCH   1   4
BRANCH   2   6
ATOM      6  C   LIG    1       -2.557  -0.183  -0.017  0.00  0.00    +0.540 C 
ATOM      7  O   LIG    1       -3.626  -0.775   0.050  0.00  0.00    -0.720 OA
ATOM      8  O   LIG    1       -1.508  -0.814  -0.019  0.00  0.00    -0.680 OA
ENDBRANCH   2   6
BRANCH   1   9
ATOM      9  O   LIG    1       -1.334   3.291  -0.006  0.00  0.00    -0.490 OA
ATOM     10  H   LIG    1       -2.208   3.692   0.094  0.00  0.00    +0.360 HD
ENDBRANCH   1   9
BRANCH   2  11
ATOM     11  C   LIG    1       -3.823   2.051  -0.209  0.00  0.00    +0.160 C 
BRANCH  11  12
ATOM     12  C   LIG    1       -4.506   1.699  -1.505  0.00  0.00    +0.500 C 
ATOM     13  O   LIG    1       -3.985   1.990  -2.568  0.00  0.00    -0.710 OA
ATOM     14  O   LIG    1       -5.581   1.122  -1.490  0.00  0.00    -0.700 OA
ENDBRANCH  11  12
BRANCH  11  15
ATOM     15  O   LIG    1       -4.677   1.715   0.887  0.00  0.00    -0.580 OA
ATOM     16  H   LIG    1       -4.907   0.776   0.932  0.00  0.00    +0.390 HD
ENDBRANCH  11  15
ENDBRANCH   2  11
TORSDOF 6
ENDMDL
MODEL       93
REMARK  Name = ZINC000001529333
REMARK                            x       y       z     vdW  Elec       q    Type
REMARK                         _______ _______ _______ _____ _____    ______ ____
ROOT
ATOM      1  C   LIG    1       -1.327   1.861  -0.035  0.00  0.00    +0.060 C 
ATOM      2  C   LIG    1       -2.501   1.193  -0.102  0.00  0.00    -0.320 C 
ENDROOT
BRANCH   1   4
ATOM      3  O   LIG    1        0.458   0.797  -1.125  0.00  0.00    -0.700 OA
ATOM      4  C   LIG    1       -0.046   1.113  -0.058  0.00  0.00    +0.600 C 
ATOM      5  O   LIG    1        0.508   0.818   0.991  0.00  0.00    -0.690 OA
ENDBRANCH   1   4
BRANCH   2   6
ATOM      6  C   LIG    1       -2.515  -0.272  -0.045  0.00  0.00    +0.540 C 
ATOM      7  O   LIG    1       -3.580  -0.873  -0.003  0.00  0.00    -0.710 OA
ATOM      8  O   LIG    1       -1.461  -0.895  -0.039  0.00  0.00    -0.680 OA
ENDBRANCH   2   6
BRANCH   1   9
ATOM      9  O   LIG    1       -1.321   3.210   0.053  0.00  0.00    -0.490 OA
ATOM     10  H   LIG    1       -2.200   3.602   0.143  0.00  0.00    +0.360 HD
ENDBRANCH   1   9
BRANCH   2  11
ATOM     11  C   LIG    1       -3.795   1.954  -0.236  0.00  0.00    +0.150 C 
BRANCH  11  12
ATOM     12  C   LIG    1       -4.606   1.791   1.023  0.00  0.00    +0.500 C 
ATOM     13  O   LIG    1       -5.675   1.205   0.988  0.00  0.00    -0.700 OA
ATOM     14  O   LIG    1       -4.195   2.246   2.077  0.00  0.00    -0.720 OA
ENDBRANCH  11  12
BRANCH  11  15
ATOM     15  O   LIG    1       -4.533   1.446  -1.349  0.00  0.00    -0.580 OA
ATOM     16  H   LIG    1       -4.760   0.509  -1.275  0.00  0.00    +0.380 HD
ENDBRANCH  11  15
ENDBRANCH   2  11
TORSDOF 6
ENDMDL
MODEL       94
REMARK  Name = ZINC000001529331
REMARK                            x       y       z     vdW  Elec       q    Type
REMARK                         _______ _______ _______ _____ _____    ______ ____
ROOT
ATOM      1  C   LIG    1       -1.327   1.861  -0.035  0.00  0.00    +0.060 C 
ATOM      2  C   LIG    1       -2.501   1.193  -0.102  0.00  0.00    -0.320 C 
ENDROOT
BRANCH   1   4
ATOM      3  O   LIG    1        0.458   0.797  -1.125  0.00  0.00    -0.700 OA
ATOM      4  C   LIG    1       -0.046   1.113  -0.058  0.00  0.00    +0.600 C 
ATOM      5  O   LIG    1        0.508   0.818   0.991  0.00  0.00    -0.690 OA
ENDBRANCH   1   4
BRANCH   2   6
ATOM      6  C   LIG    1       -2.515  -0.272  -0.045  0.00  0.00    +0.540 C 
ATOM      7  O   LIG    1       -3.580  -0.873  -0.003  0.00  0.00    -0.710 OA
ATOM      8  O   LIG    1       -1.461  -0.895  -0.039  0.00  0.00    -0.680 OA
ENDBRANCH   2   6
BRANCH   1   9
ATOM      9  O   LIG    1       -1.321   3.210   0.053  0.00  0.00    -0.490 OA
ATOM     10  H   LIG    1       -2.200   3.602   0.143  0.00  0.00    +0.360 HD
ENDBRANCH   1   9
BRANCH   2  11
ATOM     11  C   LIG    1       -3.795   1.954  -0.236  0.00  0.00    +0.150 C 
BRANCH  11  12
ATOM     12  C   LIG    1       -4.606   1.791   1.023  0.00  0.00    +0.500 C 
ATOM     13  O   LIG    1       -5.675   1.205   0.988  0.00  0.00    -0.700 OA
ATOM     14  O   LIG    1       -4.195   2.246   2.077  0.00  0.00    -0.720 OA
ENDBRANCH  11  12
BRANCH  11  15
ATOM     15  O   LIG    1       -4.533   1.446  -1.349  0.00  0.00    -0.580 OA
ATOM     16  H   LIG    1       -4.760   0.509  -1.275  0.00  0.00    +0.380 HD
ENDBRANCH  11  15
ENDBRANCH   2  11
TORSDOF 6
ENDMDL
MODEL       95
REMARK  Name = ZINC000075249927
REMARK                            x       y       z     vdW  Elec       q    Type
REMARK                         _______ _______ _______ _____ _____    ______ ____
ROOT
ATOM      1  C   LIG    1       -3.745   1.973   0.030  0.00  0.00    +0.550 C 
ATOM      2  N   LIG    1       -4.903   1.284   0.032  0.00  0.00    -0.720 N 
ATOM      3  H   LIG    1       -4.890   0.314   0.027  0.00  0.00    +0.410 HD
ATOM      4  O   LIG    1       -3.762   3.188   0.037  0.00  0.00    -0.560 OA
ENDROOT
BRANCH   1   6
ATOM      5  C   LIG    1       -1.301   1.938   0.019  0.00  0.00    +0.010 C 
ATOM      6  C   LIG    1       -2.455   1.251   0.021  0.00  0.00    -0.070 C 
BRANCH   5   8
ATOM      7  O   LIG    1        0.002  -0.004   0.002  0.00  0.00    -0.680 OA
ATOM      8  C   LIG    1       -0.015   1.219   0.009  0.00  0.00    +0.510 C 
ATOM      9  O   LIG    1        1.036   1.844   0.002  0.00  0.00    -0.690 OA
ENDBRANCH   5   8
ENDBRANCH   1   6
BRANCH   2  10
ATOM     10  C   LIG    1       -6.182   1.999   0.042  0.00  0.00    +0.280 C 
BRANCH  10  11
ATOM     11  C   LIG    1       -7.314   1.004   0.042  0.00  0.00    +0.500 C 
ATOM     12  N   LIG    1       -8.591   1.436   0.051  0.00  0.00    -0.700 N 
ATOM     13  H   LIG    1       -8.781   2.387   0.057  0.00  0.00    +0.410 HD
ATOM     14  O   LIG    1       -7.076  -0.185   0.035  0.00  0.00    -0.560 OA
BRANCH  12  15
ATOM     15  C   LIG    1       -9.691   0.469   0.051  0.00  0.00    +0.190 C 
BRANCH  15  16
ATOM     16  C   LIG    1      -11.006   1.205   0.061  0.00  0.00    +0.490 C 
ATOM     17  O   LIG    1      -12.054   0.581   0.062  0.00  0.00    -0.690 OA
ATOM     18  O   LIG    1      -11.023   2.424   0.068  0.00  0.00    -0.690 OA
ENDBRANCH  15  16
ENDBRANCH  12  15
ENDBRANCH  10  11
ENDBRANCH   2  10
TORSDOF 6
ENDMDL
MODEL       96
REMARK  Name = ZINC000001656424
REMARK                            x       y       z     vdW  Elec       q    Type
REMARK                         _______ _______ _______ _____ _____    ______ ____
ROOT
ATOM      1  C   LIG    1       -2.479   0.941   0.019  0.00  0.00    +0.070 C 
ENDROOT
BRANCH   1   2
ATOM      2  C   LIG    1       -2.381   0.069   1.244  0.00  0.00    +0.570 C 
ATOM      3  O   LIG    1       -2.254  -1.138   1.125  0.00  0.00    -0.680 OA
ATOM      4  O   LIG    1       -2.430   0.570   2.355  0.00  0.00    -0.730 OA
ENDBRANCH   1   2
BRANCH   1   5
ATOM      5  O   LIG    1       -2.398   0.127  -1.153  0.00  0.00    -0.510 OA
ATOM      6  H   LIG    1       -2.454   0.623  -1.981  0.00  0.00    +0.310 HD
ENDBRANCH   1   5
BRANCH   1   7
ATOM      7  C   LIG    1       -1.330   1.951   0.019  0.00  0.00    -0.090 C 
BRANCH   7   9
ATOM      8  O   LIG    1        0.002  -0.004   0.002  0.00  0.00    -0.650 OA
ATOM      9  C   LIG    1       -0.015   1.215   0.009  0.00  0.00    +0.490 C 
ATOM     10  O   LIG    1        1.033   1.839   0.002  0.00  0.00    -0.760 OA
ENDBRANCH   7   9
ENDBRANCH   1   7
BRANCH   1  11
ATOM     11  C   LIG    1       -3.814   1.688   0.029  0.00  0.00    +0.110 C 
BRANCH  11  12
ATOM     12  C   LIG    1       -4.946   0.693   0.029  0.00  0.00    +0.490 C 
ATOM     13  O   LIG    1       -5.703   0.631  -0.924  0.00  0.00    -0.730 OA
ATOM     14  O   LIG    1       -5.105  -0.050   0.983  0.00  0.00    -0.670 OA
ENDBRANCH  11  12
BRANCH  11  15
ATOM     15  O   LIG    1       -3.907   2.514  -1.133  0.00  0.00    -0.570 OA
ATOM     16  H   LIG    1       -3.858   2.027  -1.967  0.00  0.00    +0.350 HD
ENDBRANCH  11  15
ENDBRANCH   1  11
TORSDOF 7
ENDMDL
MODEL       97
REMARK  Name = ZINC000001656421
REMARK                            x       y       z     vdW  Elec       q    Type
REMARK                         _______ _______ _______ _____ _____    ______ ____
ROOT
ATOM      1  C   LIG    1       -2.479   0.941   0.019  0.00  0.00    +0.070 C 
ENDROOT
BRANCH   1   2
ATOM      2  C   LIG    1       -2.324   0.003  -1.151  0.00  0.00    +0.570 C 
ATOM      3  O   LIG    1       -2.318   0.443  -2.288  0.00  0.00    -0.730 OA
ATOM      4  O   LIG    1       -2.204  -1.195  -0.960  0.00  0.00    -0.680 OA
ENDBRANCH   1   2
BRANCH   1   5
ATOM      5  O   LIG    1       -2.455   0.192   1.236  0.00  0.00    -0.510 OA
ATOM      6  H   LIG    1       -2.550   0.732   2.032  0.00  0.00    +0.310 HD
ENDBRANCH   1   5
BRANCH   1   7
ATOM      7  C   LIG    1       -1.330   1.951   0.019  0.00  0.00    -0.090 C 
BRANCH   7   9
ATOM      8  O   LIG    1        0.002  -0.004   0.002  0.00  0.00    -0.650 OA
ATOM      9  C   LIG    1       -0.015   1.215   0.009  0.00  0.00    +0.490 C 
ATOM     10  O   LIG    1        1.033   1.839   0.002  0.00  0.00    -0.760 OA
ENDBRANCH   7   9
ENDBRANCH   1   7
BRANCH   1  11
ATOM     11  C   LIG    1       -3.811   1.684  -0.096  0.00  0.00    +0.110 C 
BRANCH  11  12
ATOM     12  C   LIG    1       -4.943   0.690  -0.097  0.00  0.00    +0.490 C 
ATOM     13  O   LIG    1       -5.057  -0.104  -1.015  0.00  0.00    -0.670 OA
ATOM     14  O   LIG    1       -5.745   0.679   0.822  0.00  0.00    -0.730 OA
ENDBRANCH  11  12
BRANCH  11  15
ATOM     15  O   LIG    1       -3.958   2.573   1.013  0.00  0.00    -0.570 OA
ATOM     16  H   LIG    1       -3.951   2.133   1.873  0.00  0.00    +0.350 HD
ENDBRANCH  11  15
ENDBRANCH   1  11
TORSDOF 7
ENDMDL
MODEL       98
REMARK  Name = ZINC000001656422
REMARK                            x       y       z     vdW  Elec       q    Type
REMARK                         _______ _______ _______ _____ _____    ______ ____
ROOT
ATOM      1  C   LIG    1       -2.479   0.941   0.019  0.00  0.00    +0.070 C 
ENDROOT
BRANCH   1   2
ATOM      2  C   LIG    1       -2.381   0.069   1.244  0.00  0.00    +0.550 C 
ATOM      3  O   LIG    1       -2.254  -1.138   1.125  0.00  0.00    -0.670 OA
ATOM      4  O   LIG    1       -2.430   0.570   2.355  0.00  0.00    -0.730 OA
ENDBRANCH   1   2
BRANCH   1   5
ATOM      5  O   LIG    1       -2.398   0.127  -1.153  0.00  0.00    -0.500 OA
ATOM      6  H   LIG    1       -2.454   0.623  -1.981  0.00  0.00    +0.320 HD
ENDBRANCH   1   5
BRANCH   1   7
ATOM      7  C   LIG    1       -1.330   1.951   0.019  0.00  0.00    -0.090 C 
BRANCH   7   9
ATOM      8  O   LIG    1        0.002  -0.004   0.002  0.00  0.00    -0.650 OA
ATOM      9  C   LIG    1       -0.015   1.215   0.009  0.00  0.00    +0.490 C 
ATOM     10  O   LIG    1        1.033   1.839   0.002  0.00  0.00    -0.760 OA
ENDBRANCH   7   9
ENDBRANCH   1   7
BRANCH   1  11
ATOM     11  C   LIG    1       -3.814   1.688   0.029  0.00  0.00    +0.090 C 
BRANCH  11  12
ATOM     12  C   LIG    1       -4.943   0.697   0.153  0.00  0.00    +0.490 C 
ATOM     13  O   LIG    1       -5.150  -0.106  -0.741  0.00  0.00    -0.700 OA
ATOM     14  O   LIG    1       -5.649   0.699   1.147  0.00  0.00    -0.710 OA
ENDBRANCH  11  12
BRANCH  11  15
ATOM     15  O   LIG    1       -3.847   2.589   1.138  0.00  0.00    -0.580 OA
ATOM     16  H   LIG    1       -3.755   2.157   1.998  0.00  0.00    +0.390 HD
ENDBRANCH  11  15
ENDBRANCH   1  11
TORSDOF 7
ENDMDL
MODEL       99
REMARK  Name = ZINC000003861125
REMARK                            x       y       z     vdW  Elec       q    Type
REMARK                         _______ _______ _______ _____ _____    ______ ____
ROOT
ATOM      1  C   LIG    1       -1.418   3.328  -0.430  0.00  0.00    +0.080 C 
ATOM      2  O   LIG    1       -1.134   4.426   0.465  0.00  0.00    -0.350 OA
ATOM      3  C   LIG    1       -2.315   4.564   1.284  0.00  0.00    +0.080 C 
ATOM      4  C   LIG    1       -2.750   3.116   1.598  0.00  0.00    -0.100 C 
ATOM      5  C   LIG    1       -2.147   2.283   0.442  0.00  0.00    -0.100 C 
ENDROOT
BRANCH   1   7
ATOM      6  O   LIG    1       -0.176   1.838  -1.784  0.00  0.00    -0.710 OA
ATOM      7  C   LIG    1       -0.138   2.753  -0.978  0.00  0.00    +0.510 C 
ATOM      8  O   LIG    1        0.936   3.205  -0.620  0.00  0.00    -0.710 OA
ENDBRANCH   1   7
BRANCH   4   9
ATOM      9  C   LIG    1       -4.253   3.004   1.603  0.00  0.00    +0.530 C 
ATOM     10  O   LIG    1       -4.805   2.247   2.382  0.00  0.00    -0.740 OA
ATOM     11  O   LIG    1       -4.916   3.672   0.829  0.00  0.00    -0.690 OA
ENDBRANCH   4   9
BRANCH   3  12
ATOM     12  C   LIG    1       -1.988   5.304   2.555  0.00  0.00    +0.510 C 
ATOM     13  O   LIG    1       -2.856   5.496   3.390  0.00  0.00    -0.710 OA
ATOM     14  O   LIG    1       -0.855   5.711   2.749  0.00  0.00    -0.710 OA
ENDBRANCH   3  12
BRANCH   5  15
ATOM     15  C   LIG    1       -3.239   1.600  -0.341  0.00  0.00    +0.530 C 
ATOM     16  O   LIG    1       -3.532   0.442  -0.097  0.00  0.00    -0.740 OA
ATOM     17  O   LIG    1       -3.829   2.206  -1.219  0.00  0.00    -0.690 OA
ENDBRANCH   5  15
TORSDOF 4
ENDMDL
MODEL      100
REMARK  Name = ZINC000018060935
REMARK                            x       y       z     vdW  Elec       q    Type
REMARK                         _______ _______ _______ _____ _____    ______ ____
ROOT
ATOM      1  C   LIG    1       -1.195   1.733   0.160  0.00  0.00    -0.070 C 
ATOM      2  C   LIG    1       -1.179   2.764  -1.008  0.00  0.00    +0.220 C 
ATOM      3  O   LIG    1       -1.854   2.008  -2.066  0.00  0.00    -0.380 OA
ATOM      4  C   LIG    1       -3.086   1.645  -1.362  0.00  0.00    +0.220 C 
ATOM      5  C   LIG    1       -3.598   3.043  -0.904  0.00  0.00    +0.120 C 
ATOM      6  O   LIG    1       -3.214   3.484   0.400  0.00  0.00    -0.290 OA
ATOM      7  C   LIG    1       -2.256   3.826  -0.635  0.00  0.00    +0.060 C 
ATOM      8  C   LIG    1       -2.515   0.957  -0.080  0.00  0.00    -0.080 C 
ENDROOT
BRANCH   1  10
ATOM      9  O   LIG    1       -0.179  -0.388  -0.090  0.00  0.00    -0.700 OA
ATOM     10  C   LIG    1       -0.009   0.808   0.072  0.00  0.00    +0.510 C 
ATOM     11  O   LIG    1        1.122   1.256   0.158  0.00  0.00    -0.720 OA
ENDBRANCH   1  10
BRANCH   8  12
ATOM     12  C   LIG    1       -3.461   1.124   1.081  0.00  0.00    +0.520 C 
ATOM     13  O   LIG    1       -3.022   1.293   2.206  0.00  0.00    -0.700 OA
ATOM     14  O   LIG    1       -4.666   1.090   0.896  0.00  0.00    -0.720 OA
ENDBRANCH   8  12
TORSDOF 2
ENDMDL
MODEL      101
REMARK  Name = ZINC000001787697
REMARK                            x       y       z     vdW  Elec       q    Type
REMARK                         _______ _______ _______ _____ _____    ______ ____
ROOT
ATOM      1  N   LIG    1       -2.401   1.106   0.048  0.00  0.00    -0.450 NA
ENDROOT
BRANCH   1   2
ATOM      2  C   LIG    1       -1.234   1.977  -0.146  0.00  0.00    +0.160 C 
BRANCH   2   4
ATOM      3  O   LIG    1       -2.454   2.708  -2.037  0.00  0.00    -0.710 OA
ATOM      4  C   LIG    1       -1.463   2.863  -1.344  0.00  0.00    +0.470 C 
ATOM      5  O   LIG    1       -0.659   3.739  -1.617  0.00  0.00    -0.730 OA
ENDBRANCH   2   4
ENDBRANCH   1   2
BRANCH   1   6
ATOM      6  C   LIG    1       -2.576   0.198  -1.093  0.00  0.00    -0.430 C 
BRANCH   6   7
ATOM      7  P   LIG    1       -1.546  -1.286  -0.854  0.00  0.00    +2.260 P 
ATOM      8  O   LIG    1       -0.053  -0.887  -0.881  0.00  0.00    -1.100 OA
ATOM      9  O   LIG    1       -1.881  -1.931   0.509  0.00  0.00    -1.100 OA
BRANCH   7  10
ATOM     10  O   LIG    1       -1.841  -2.341  -2.034  0.00  0.00    -0.910 OA
ATOM     11  H   LIG    1       -1.327  -3.157  -1.970  0.00  0.00    +0.400 HD
ENDBRANCH   7  10
ENDBRANCH   6   7
ENDBRANCH   1   6
BRANCH   1  12
ATOM     12  C   LIG    1       -3.615   1.898   0.283  0.00  0.00    +0.070 C 
BRANCH  12  13
ATOM     13  C   LIG    1       -3.492   2.630   1.594  0.00  0.00    +0.500 C 
ATOM     14  O   LIG    1       -4.399   3.349   1.979  0.00  0.00    -0.740 OA
ATOM     15  O   LIG    1       -2.485   2.504   2.271  0.00  0.00    -0.680 OA
ENDBRANCH  12  13
ENDBRANCH   1  12
TORSDOF 7
ENDMDL
MODEL      102
REMARK  Name = ZINC000003902808
REMARK                            x       y       z     vdW  Elec       q    Type
REMARK                         _______ _______ _______ _____ _____    ______ ____
ROOT
ATOM      1  C   UNK A  0        2.078  -0.591  -1.215  0.00  0.00    +0.280 A 
ATOM      2  N   UNK A  0        2.779  -0.284  -0.155  0.00  0.00    -0.340 NA
ATOM      3  N   UNK A  0        4.173  -0.405  -0.183  0.00  0.00    -0.580 N 
ATOM      4  H   UNK A  0        4.689  -0.176   0.606  0.00  0.00    +0.410 HD
ATOM      5  C   UNK A  0        4.808  -0.833  -1.288  0.00  0.00    +0.640 A 
ATOM      6  N   UNK A  0        4.125  -1.159  -2.401  0.00  0.00    -0.700 NA
ATOM      7  O   UNK A  0        6.021  -0.928  -1.282  0.00  0.00    -0.630 OA
ATOM      8  C   UNK A  0        2.779  -1.064  -2.420  0.00  0.00    +0.500 A 
ATOM      9  O   UNK A  0        2.154  -1.358  -3.422  0.00  0.00    -0.580 OA
ENDROOT
BRANCH   1  10
ATOM     10  N   ALA A  1        0.688  -0.476  -1.203  0.00  0.00    -0.670 N 
ATOM     11  H   ALA A  1        0.175  -0.710  -1.993  0.00  0.00    +0.420 HD
BRANCH  10  13
ATOM     12  CB  ALA A  1       -0.019   1.526   0.010  0.00  0.00    +0.010 C 
ATOM     13  CA  ALA A  1        0.002  -0.004   0.002  0.00  0.00    +0.160 C 
BRANCH  13  14
ATOM     14  C   ALA A  1       -1.412  -0.526   0.013  0.00  0.00    +0.500 C 
ATOM     15  OXT ALA A  1       -2.099  -0.403   1.012  0.00  0.00    -0.700 OA
ATOM     16  O   ALA A  1       -1.868  -1.070  -0.978  0.00  0.00    -0.690 OA
ENDBRANCH  13  14
ENDBRANCH  10  13
ENDBRANCH   1  10
TORSDOF 3
ENDMDL
MODEL      103
REMARK  Name = ZINC000075283661
REMARK                            x       y       z     vdW  Elec       q    Type
REMARK                         _______ _______ _______ _____ _____    ______ ____
ROOT
ATOM      1  CA  THR A  1       -1.433  -0.534   0.013  0.00  0.00    +0.040 C 
ENDROOT
BRANCH   1   2
ATOM      2  C   THR A  1       -2.100  -0.151   1.309  0.00  0.00    +0.500 C 
ATOM      3  OXT THR A  1       -2.034  -0.896   2.272  0.00  0.00    -0.680 OA
ATOM      4  O   THR A  1       -2.705   0.904   1.395  0.00  0.00    -0.720 OA
ENDBRANCH   1   2
BRANCH   1   6
ATOM      5  CG2 THR A  1       -0.019   1.526   0.010  0.00  0.00    +0.010 C 
ATOM      6  CB  THR A  1        0.002  -0.004   0.002  0.00  0.00    +0.210 C 
BRANCH   6   7
ATOM      7  OG1 THR A  1        0.693  -0.477   1.160  0.00  0.00    -0.560 OA
ATOM      8  HG1 THR A  1        0.294  -0.202   1.996  0.00  0.00    +0.370 HD
ENDBRANCH   6   7
ENDBRANCH   1   6
BRANCH   1   9
ATOM      9  N   THR A  1       -1.416  -1.997  -0.116  0.00  0.00    -0.620 NA
ATOM     10  H   THR A  1       -0.625  -2.303  -0.662  0.00  0.00    +0.330 HD
BRANCH   9  11
ATOM     11  C   UNK A  0       -2.675  -2.489  -0.691  0.00  0.00    -0.410 C 
BRANCH  11  12
ATOM     12  P   UNK A  0       -2.483  -2.688  -2.493  0.00  0.00    +2.220 P 
ATOM     13  O   UNK A  0       -1.442  -3.792  -2.782  0.00  0.00    -1.090 OA
ATOM     14  O   UNK A  0       -2.004  -1.355  -3.110  0.00  0.00    -1.090 OA
BRANCH  12  15
ATOM     15  O   UNK A  0       -3.898  -3.101  -3.141  0.00  0.00    -0.900 OA
ATOM     16  H   UNK A  0       -3.871  -3.224  -4.100  0.00  0.00    +0.400 HD
ENDBRANCH  12  15
ENDBRANCH  11  12
ENDBRANCH   9  11
ENDBRANCH   1   9
TORSDOF 7
ENDMDL
MODEL      104
REMARK  Name = ZINC000075283655
REMARK                            x       y       z     vdW  Elec       q    Type
REMARK                         _______ _______ _______ _____ _____    ______ ____
ROOT
ATOM      1  CA  THR A  1        1.212  -0.826  -1.151  0.00  0.00    +0.070 C 
ENDROOT
BRANCH   1   2
ATOM      2  C   THR A  1        2.689  -1.121  -1.089  0.00  0.00    +0.470 C 
ATOM      3  OXT THR A  1        3.490  -0.207  -1.001  0.00  0.00    -0.700 OA
ATOM      4  O   THR A  1        3.082  -2.275  -1.126  0.00  0.00    -0.700 OA
ENDBRANCH   1   2
BRANCH   1   6
ATOM      5  CG2 THR A  1        1.344   0.772   0.765  0.00  0.00    -0.010 C 
ATOM      6  CB  THR A  1        0.694  -0.516   0.255  0.00  0.00    +0.230 C 
BRANCH   6   7
ATOM      7  OG1 THR A  1        1.023  -1.595   1.133  0.00  0.00    -0.570 OA
ATOM      8  HG1 THR A  1        1.972  -1.765   1.209  0.00  0.00    +0.370 HD
ENDBRANCH   6   7
ENDBRANCH   1   6
BRANCH   1   9
ATOM      9  N   THR A  1        0.501  -1.994  -1.688  0.00  0.00    -0.620 NA
ATOM     10  H   THR A  1        0.887  -2.851  -1.323  0.00  0.00    +0.330 HD
BRANCH   9  11
ATOM     11  C   UNK A  0        0.519  -1.991  -3.157  0.00  0.00    -0.440 C 
BRANCH  11  12
ATOM     12  P   UNK A  0       -1.014  -1.230  -3.782  0.00  0.00    +2.270 P 
ATOM     13  O   UNK A  0       -1.051   0.261  -3.378  0.00  0.00    -1.100 OA
ATOM     14  O   UNK A  0       -2.235  -1.957  -3.176  0.00  0.00    -1.100 OA
BRANCH  12  15
ATOM     15  O   UNK A  0       -1.059  -1.352  -5.387  0.00  0.00    -0.910 OA
ATOM     16  H   UNK A  0       -1.849  -0.967  -5.789  0.00  0.00    +0.400 HD
ENDBRANCH  12  15
ENDBRANCH  11  12
ENDBRANCH   9  11
ENDBRANCH   1   9
TORSDOF 7
ENDMDL
MODEL      105
REMARK  Name = ZINC000075283656
REMARK                            x       y       z     vdW  Elec       q    Type
REMARK                         _______ _______ _______ _____ _____    ______ ____
ROOT
ATOM      1  CA  THR A  1       -1.500  -0.939   0.432  0.00  0.00    +0.070 C 
ENDROOT
BRANCH   1   2
ATOM      2  C   THR A  1       -1.748  -2.269   1.097  0.00  0.00    +0.480 C 
ATOM      3  OXT THR A  1       -1.355  -3.296   0.571  0.00  0.00    -0.710 OA
ATOM      4  O   THR A  1       -2.342  -2.316   2.161  0.00  0.00    -0.710 OA
ENDBRANCH   1   2
BRANCH   1   6
ATOM      5  CG2 THR A  1        0.212   0.824  -0.015  0.00  0.00    +0.010 C 
ATOM      6  CB  THR A  1       -0.018  -0.579   0.549  0.00  0.00    +0.220 C 
BRANCH   6   7
ATOM      7  OG1 THR A  1        0.373  -0.610   1.923  0.00  0.00    -0.570 OA
ATOM      8  HG1 THR A  1       -0.116   0.006   2.485  0.00  0.00    +0.370 HD
ENDBRANCH   6   7
ENDBRANCH   1   6
BRANCH   1   9
ATOM      9  N   THR A  1       -2.309   0.096   1.089  0.00  0.00    -0.620 NA
ATOM     10  H   THR A  1       -2.307  -0.026   2.091  0.00  0.00    +0.330 HD
BRANCH   9  11
ATOM     11  C   UNK A  0       -3.680   0.106   0.562  0.00  0.00    -0.430 C 
BRANCH  11  12
ATOM     12  P   UNK A  0       -3.816   1.360  -0.754  0.00  0.00    +2.270 P 
ATOM     13  O   UNK A  0       -2.887   0.977  -1.928  0.00  0.00    -1.100 OA
ATOM     14  O   UNK A  0       -3.400   2.739  -0.196  0.00  0.00    -1.100 OA
BRANCH  12  15
ATOM     15  O   UNK A  0       -5.338   1.428  -1.275  0.00  0.00    -0.910 OA
ATOM     16  H   UNK A  0       -5.484   2.076  -1.978  0.00  0.00    +0.400 HD
ENDBRANCH  12  15
ENDBRANCH  11  12
ENDBRANCH   9  11
ENDBRANCH   1   9
TORSDOF 7
ENDMDL
MODEL      106
REMARK  Name = ZINC000075283659
REMARK                            x       y       z     vdW  Elec       q    Type
REMARK                         _______ _______ _______ _____ _____    ______ ____
ROOT
ATOM      1  CA  THR A  1        0.718  -0.497  -1.257  0.00  0.00    +0.050 C 
ENDROOT
BRANCH   1   2
ATOM      2  C   THR A  1        0.739  -2.004  -1.265  0.00  0.00    +0.510 C 
ATOM      3  OXT THR A  1        1.666  -2.604  -0.749  0.00  0.00    -0.680 OA
ATOM      4  O   THR A  1       -0.172  -2.623  -1.788  0.00  0.00    -0.720 OA
ENDBRANCH   1   2
BRANCH   1   6
ATOM      5  CG2 THR A  1       -0.019   1.526   0.010  0.00  0.00    +0.010 C 
ATOM      6  CB  THR A  1        0.002  -0.004   0.002  0.00  0.00    +0.210 C 
BRANCH   6   7
ATOM      7  OG1 THR A  1        0.693  -0.477   1.160  0.00  0.00    -0.560 OA
ATOM      8  HG1 THR A  1        1.611  -0.180   1.219  0.00  0.00    +0.370 HD
ENDBRANCH   6   7
ENDBRANCH   1   6
BRANCH   1   9
ATOM      9  N   THR A  1        2.096   0.011  -1.267  0.00  0.00    -0.630 NA
ATOM     10  H   THR A  1        2.155   0.907  -0.807  0.00  0.00    +0.320 HD
BRANCH   9  11
ATOM     11  C   UNK A  0        2.619   0.088  -2.638  0.00  0.00    -0.400 C 
BRANCH  11  12
ATOM     12  P   UNK A  0        2.373   1.774  -3.288  0.00  0.00    +2.210 P 
ATOM     13  O   UNK A  0        3.224   2.770  -2.469  0.00  0.00    -1.090 OA
ATOM     14  O   UNK A  0        0.880   2.157  -3.174  0.00  0.00    -1.090 OA
BRANCH  12  15
ATOM     15  O   UNK A  0        2.824   1.825  -4.832  0.00  0.00    -0.900 OA
ATOM     16  H   UNK A  0        2.721   2.694  -5.244  0.00  0.00    +0.400 HD
ENDBRANCH  12  15
ENDBRANCH  11  12
ENDBRANCH   9  11
ENDBRANCH   1   9
TORSDOF 7
ENDMDL
MODEL      107
REMARK  Name = ZINC000020462611
REMARK                            x       y       z     vdW  Elec       q    Type
REMARK                         _______ _______ _______ _____ _____    ______ ____
ROOT
ATOM      1  C   LIG    1       -0.019   1.526   0.010  0.00  0.00    +0.050 C 
ATOM      2  C   LIG    1        0.002  -0.004   0.002  0.00  0.00    -1.100 C 
ENDROOT
BRANCH   2   3
ATOM      3  P   LIG    1        0.855  -0.592  -1.498  0.00  0.00    +2.180 P 
ATOM      4  O   LIG    1        0.990  -2.152  -1.445  0.00  0.00    -1.150 OA
ATOM      5  O   LIG    1        2.281   0.052  -1.574  0.00  0.00    -1.190 OA
ATOM      6  O   LIG    1        0.029  -0.182  -2.764  0.00  0.00    -1.140 OA
ENDBRANCH   2   3
BRANCH   2   7
ATOM      7  P   LIG    1       -1.708  -0.635   0.015  0.00  0.00    +2.180 P 
ATOM      8  O   LIG    1       -1.690  -2.196  -0.122  0.00  0.00    -1.150 OA
ATOM      9  O   LIG    1       -2.503  -0.015  -1.184  0.00  0.00    -1.140 OA
ATOM     10  O   LIG    1       -2.401  -0.237   1.363  0.00  0.00    -1.190 OA
ENDBRANCH   2   7
BRANCH   2  11
ATOM     11  N   LIG    1        0.713  -0.491   1.192  0.00  0.00    -0.560 N 
ATOM     12  H   LIG    1        1.659  -0.141   1.185  0.00  0.00    +0.380 HD
ATOM     13  H   LIG    1        0.726  -1.500   1.187  0.00  0.00    +0.420 HD
ATOM     14  H   LIG    1        0.240  -0.165   2.022  0.00  0.00    +0.390 HD
ENDBRANCH   2  11
TORSDOF 3
ENDMDL
MODEL      108
REMARK  Name = ZINC000002581481
REMARK                            x       y       z     vdW  Elec       q    Type
REMARK                         _______ _______ _______ _____ _____    ______ ____
ROOT
ATOM      1  N   LIG    1       -6.117   1.136   0.037  0.00  0.00    -0.690 N 
ATOM      2  H   LIG    1       -6.130   2.106   0.043  0.00  0.00    +0.420 HD
ENDROOT
BRANCH   1   3
ATOM      3  C   LIG    1       -7.316   0.422   0.039  0.00  0.00    +0.280 A 
ATOM      4  N   LIG    1       -7.310  -0.886   0.037  0.00  0.00    -0.330 NA
ATOM      5  N   LIG    1       -8.522  -1.587   0.040  0.00  0.00    -0.580 N 
ATOM      6  H   LIG    1       -8.513  -2.557   0.038  0.00  0.00    +0.410 HD
ATOM      7  C   LIG    1       -9.698  -0.936   0.044  0.00  0.00    +0.640 A 
ATOM      8  N   LIG    1       -9.749   0.409   0.046  0.00  0.00    -0.690 NA
ATOM      9  O   LIG    1      -10.734  -1.573   0.046  0.00  0.00    -0.620 OA
ATOM     10  C   LIG    1       -8.607   1.129   0.049  0.00  0.00    +0.500 A 
ATOM     11  O   LIG    1       -8.645   2.345   0.051  0.00  0.00    -0.570 OA
ENDBRANCH   1   3
BRANCH   1  12
ATOM     12  C   LIG    1       -4.839   0.421   0.027  0.00  0.00    +0.300 C 
BRANCH  12  15
ATOM     13  N   LIG    1       -2.430   0.984   0.019  0.00  0.00    -0.700 N 
ATOM     14  H   LIG    1       -2.240   0.033   0.013  0.00  0.00    +0.410 HD
ATOM     15  C   LIG    1       -3.707   1.416   0.027  0.00  0.00    +0.500 C 
ATOM     16  O   LIG    1       -3.945   2.605   0.035  0.00  0.00    -0.550 OA
BRANCH  13  17
ATOM     17  C   LIG    1       -1.330   1.951   0.019  0.00  0.00    +0.190 C 
BRANCH  17  19
ATOM     18  O   LIG    1        0.002  -0.004   0.002  0.00  0.00    -0.690 OA
ATOM     19  C   LIG    1       -0.015   1.215   0.009  0.00  0.00    +0.490 C 
ATOM     20  O   LIG    1        1.033   1.839   0.002  0.00  0.00    -0.690 OA
ENDBRANCH  17  19
ENDBRANCH  13  17
ENDBRANCH  12  15
ENDBRANCH   1  12
TORSDOF 5
ENDMDL
MODEL      109
REMARK  Name = ZINC000001693256
REMARK                            x       y       z     vdW  Elec       q    Type
REMARK                         _______ _______ _______ _____ _____    ______ ____
ROOT
ATOM      1  O   LIG    1        0.002  -0.004   0.002  0.00  0.00    -0.500 OA
ATOM      2  C   LIG    1       -0.014   1.210   0.009  0.00  0.00    +0.550 A 
ATOM      3  C   LIG    1       -1.228   2.058   0.031  0.00  0.00    -0.120 A 
ATOM      4  C   LIG    1       -2.590   1.788   0.050  0.00  0.00    +0.150 A 
ATOM      5  C   LIG    1       -3.496   2.841   0.069  0.00  0.00    -0.120 A 
ATOM      6  C   LIG    1       -3.036   4.172   0.070  0.00  0.00    -0.120 A 
ATOM      7  C   LIG    1       -4.250   5.020   0.092  0.00  0.00    +0.550 A 
ATOM      8  N   LIG    1       -5.331   4.220   0.103  0.00  0.00    -0.370 N 
ATOM      9  O   LIG    1       -6.669   4.682   0.125  0.00  0.00    -0.640 OA
ATOM     10  O   LIG    1       -4.266   6.234   0.099  0.00  0.00    -0.500 OA
ATOM     11  C   LIG    1       -1.674   4.441   0.052  0.00  0.00    +0.150 A 
ATOM     12  C   LIG    1       -4.974   2.923   0.091  0.00  0.00    +0.550 A 
ATOM     13  O   LIG    1       -5.736   1.978   0.096  0.00  0.00    -0.500 OA
ATOM     14  C   LIG    1       -0.768   3.389   0.032  0.00  0.00    -0.120 A 
ATOM     15  C   LIG    1        0.710   3.307   0.010  0.00  0.00    +0.550 A 
ATOM     16  O   LIG    1        1.472   4.252   0.004  0.00  0.00    -0.500 OA
ATOM     17  N   LIG    1        1.067   2.010   0.003  0.00  0.00    -0.370 N 
ATOM     18  O   LIG    1        2.405   1.548  -0.018  0.00  0.00    -0.640 OA
ENDROOT
TORSDOF 0
ENDMDL
