MODEL        1
REMARK  Name = ZINC000034743445
REMARK                            x       y       z     vdW  Elec       q    Type
REMARK                         _______ _______ _______ _____ _____    ______ ____
ROOT
ATOM      1  N   LIG    1       -3.757   1.656   0.029  0.00  0.00    -0.380 N 
ATOM      2  C   LIG    1       -3.918   2.489  -1.162  0.00  0.00    +0.230 C 
ATOM      3  C   LIG    1       -3.501   1.778  -2.445  0.00  0.00    +0.240 C 
ATOM      4  N   LIG    1       -4.344   2.213  -3.552  0.00  0.00    -0.780 NA
ATOM      5  H   LIG    1       -5.077   2.832  -3.377  0.00  0.00    +0.390 HD
ATOM      6  C   LIG    1       -4.485   1.231  -4.617  0.00  0.00    +0.310 C 
ATOM      7  C   LIG    1       -5.826   0.505  -4.493  0.00  0.00    +0.220 C 
ATOM      8  N   LIG    1       -5.603  -0.864  -4.011  0.00  0.00    -0.510 N 
ATOM      9  C   LIG    1       -6.641  -1.218  -3.035  0.00  0.00    +0.220 C 
ATOM     10  C   LIG    1       -6.021  -2.032  -1.897  0.00  0.00    +0.310 C 
ATOM     11  N   LIG    1       -5.979  -1.237  -0.678  0.00  0.00    -0.780 NA
ATOM     12  H   LIG    1       -6.788  -0.790  -0.372  0.00  0.00    +0.390 HD
ATOM     13  C   LIG    1       -4.684  -0.620  -0.409  0.00  0.00    +0.250 C 
ATOM     14  H   LIG    1       -4.695  -0.929  -3.579  0.00  0.00    +0.420 HD
ATOM     15  H   LIG    1       -5.651  -1.504  -4.793  0.00  0.00    +0.440 HD
ATOM     16  C   LIG    1       -4.892   0.755   0.217  0.00  0.00    +0.230 C 
ATOM     17  H   LIG    1       -3.734   2.289   0.840  0.00  0.00    +0.440 HD
ENDROOT
BRANCH   1  18
ATOM     18  C   LIG    1       -2.479   0.941   0.019  0.00  0.00    +0.270 C 
BRANCH  18  19
ATOM     19  C   LIG    1       -1.330   1.951   0.019  0.00  0.00    -0.050 C 
BRANCH  19  21
ATOM     20  O   LIG    1        0.002  -0.004   0.002  0.00  0.00    -0.690 OA
ATOM     21  C   LIG    1       -0.015   1.215   0.009  0.00  0.00    +0.500 C 
ATOM     22  O   LIG    1        1.033   1.839   0.002  0.00  0.00    -0.660 OA
ENDBRANCH  19  21
ENDBRANCH  18  19
ENDBRANCH   1  18
TORSDOF 3
ENDMDL
MODEL        2
REMARK  Name = ZINC000034743444
REMARK                            x       y       z     vdW  Elec       q    Type
REMARK                         _______ _______ _______ _____ _____    ______ ____
ROOT
ATOM      1  N   LIG    1       -2.433   0.981   0.019  0.00  0.00    -0.490 NA
ATOM      2  C   LIG    1       -2.385   0.128   1.214  0.00  0.00    +0.230 C 
ATOM      3  C   LIG    1       -1.162   0.499   2.056  0.00  0.00    +0.250 C 
ATOM      4  N   LIG    1       -1.590   0.822   3.424  0.00  0.00    -0.510 N 
ATOM      5  C   LIG    1       -1.025   2.119   3.821  0.00  0.00    +0.270 C 
ATOM      6  C   LIG    1       -2.145   3.031   4.324  0.00  0.00    +0.210 C 
ATOM      7  N   LIG    1       -2.144   4.280   3.550  0.00  0.00    -0.690 NA
ATOM      8  H   LIG    1       -1.810   5.051   4.109  0.00  0.00    +0.380 HD
ATOM      9  C   LIG    1       -3.479   4.563   3.006  0.00  0.00    +0.210 C 
ATOM     10  C   LIG    1       -3.374   4.808   1.499  0.00  0.00    +0.270 C 
ATOM     11  N   LIG    1       -4.266   3.882   0.789  0.00  0.00    -0.510 N 
ATOM     12  C   LIG    1       -3.507   3.166  -0.245  0.00  0.00    +0.240 C 
ATOM     13  H   LIG    1       -5.015   4.402   0.357  0.00  0.00    +0.430 HD
ATOM     14  H   LIG    1       -4.652   3.218   1.444  0.00  0.00    +0.410 HD
ATOM     15  H   LIG    1       -1.264   0.106   4.056  0.00  0.00    +0.430 HD
ATOM     16  H   LIG    1       -2.597   0.869   3.459  0.00  0.00    +0.410 HD
ATOM     17  C   LIG    1       -3.731   1.660  -0.091  0.00  0.00    +0.210 C 
ENDROOT
BRANCH   1  18
ATOM     18  C   LIG    1       -1.330   1.951   0.019  0.00  0.00    +0.090 C 
BRANCH  18  20
ATOM     19  O   LIG    1       -0.007   0.007  -0.240  0.00  0.00    -0.660 OA
ATOM     20  C   LIG    1       -0.020   1.222  -0.138  0.00  0.00    +0.480 C 
ATOM     21  O   LIG    1        1.026   1.847  -0.168  0.00  0.00    -0.670 OA
ENDBRANCH  18  20
ENDBRANCH   1  18
TORSDOF 2
ENDMDL
MODEL        3
REMARK  Name = ZINC000050395609
REMARK                            x       y       z     vdW  Elec       q    Type
REMARK                         _______ _______ _______ _____ _____    ______ ____
ROOT
ATOM      1  N   LIG    1       -1.117   4.220   1.248  0.00  0.00    -0.480 N 
ATOM      2  H   LIG    1       -0.757   3.639   0.506  0.00  0.00    +0.440 HD
ATOM      3  H   LIG    1       -0.776   3.881   2.135  0.00  0.00    +0.440 HD
ENDROOT
BRANCH   1   7
ATOM      4  O   LIG    1       -4.415   1.268   0.218  0.00  0.00    -0.430 OA
ATOM      5  C   LIG    1       -3.851   2.332   0.361  0.00  0.00    +0.530 C 
ATOM      6  C   LIG    1       -3.087   2.760   1.595  0.00  0.00    +0.150 C 
ATOM      7  C   LIG    1       -2.586   4.174   1.238  0.00  0.00    +0.190 C 
ATOM      8  C   LIG    1       -3.119   4.396  -0.161  0.00  0.00    +0.520 C 
ATOM      9  O   LIG    1       -2.951   5.396  -0.825  0.00  0.00    -0.430 OA
ATOM     10  N   LIG    1       -3.800   3.311  -0.550  0.00  0.00    -0.670 N 
ATOM     11  H   LIG    1       -4.226   3.243  -1.419  0.00  0.00    +0.440 HD
ENDBRANCH   1   7
BRANCH   1  12
ATOM     12  C   LIG    1       -0.669   5.604   1.048  0.00  0.00    +0.180 C 
ATOM     13  C   LIG    1       -1.102   6.456   2.244  0.00  0.00    +0.070 C 
ATOM     14  C   LIG    1       -0.397   7.815   2.152  0.00  0.00    +0.070 C 
ATOM     15  C   LIG    1        1.102   7.604   2.370  0.00  0.00    +0.280 C 
ATOM     16  N   LIG    1        1.601   6.547   1.500  0.00  0.00    -0.690 N 
ATOM     17  H   LIG    1        2.555   6.507   1.334  0.00  0.00    +0.420 HD
ATOM     18  C   LIG    1        0.827   5.631   0.919  0.00  0.00    +0.510 C 
ATOM     19  O   LIG    1        1.359   4.772   0.248  0.00  0.00    -0.530 OA
ENDBRANCH   1  12
TORSDOF 2
ENDMDL
MODEL        4
REMARK  Name = ZINC000050395610
REMARK                            x       y       z     vdW  Elec       q    Type
REMARK                         _______ _______ _______ _____ _____    ______ ____
ROOT
ATOM      1  N   LIG    1       -1.117   4.220   1.248  0.00  0.00    -0.480 N 
ATOM      2  H   LIG    1       -0.764   3.733   2.058  0.00  0.00    +0.440 HD
ATOM      3  H   LIG    1       -2.125   4.257   1.292  0.00  0.00    +0.440 HD
ENDROOT
BRANCH   1   7
ATOM      4  O   LIG    1       -0.296  -0.049  -0.074  0.00  0.00    -0.430 OA
ATOM      5  C   LIG    1       -0.210   1.159  -0.031  0.00  0.00    +0.530 C 
ATOM      6  C   LIG    1       -1.378   2.121  -0.040  0.00  0.00    +0.130 C 
ATOM      7  C   LIG    1       -0.706   3.507   0.031  0.00  0.00    +0.180 C 
ATOM      8  C   LIG    1        0.771   3.183   0.074  0.00  0.00    +0.520 C 
ATOM      9  O   LIG    1        1.668   3.997   0.134  0.00  0.00    -0.440 OA
ATOM     10  N   LIG    1        0.932   1.854   0.040  0.00  0.00    -0.670 N 
ATOM     11  H   LIG    1        1.804   1.430   0.058  0.00  0.00    +0.440 HD
ENDBRANCH   1   7
BRANCH   1  12
ATOM     12  C   LIG    1       -0.577   5.585   1.223  0.00  0.00    +0.180 C 
ATOM     13  C   LIG    1       -0.787   6.241   2.590  0.00  0.00    +0.070 C 
ATOM     14  C   LIG    1       -0.474   7.737   2.464  0.00  0.00    +0.070 C 
ATOM     15  C   LIG    1       -1.535   8.386   1.574  0.00  0.00    +0.280 C 
ATOM     16  N   LIG    1       -1.684   7.641   0.331  0.00  0.00    -0.680 N 
ATOM     17  H   LIG    1       -2.102   8.089  -0.421  0.00  0.00    +0.420 HD
ATOM     18  C   LIG    1       -1.282   6.381   0.163  0.00  0.00    +0.510 C 
ATOM     19  O   LIG    1       -1.495   5.849  -0.906  0.00  0.00    -0.530 OA
ENDBRANCH   1  12
TORSDOF 2
ENDMDL
MODEL        5
REMARK  Name = ZINC000003794711
REMARK                            x       y       z     vdW  Elec       q    Type
REMARK                         _______ _______ _______ _____ _____    ______ ____
ROOT
ATOM      1  N   LIG    1        1.440  -2.513  -2.671  0.00  0.00    -0.370 N 
ATOM      2  C   LIG    1        2.820  -2.012  -2.683  0.00  0.00    +0.280 C 
ATOM      3  C   LIG    1        3.475  -2.279  -1.326  0.00  0.00    +0.150 C 
ATOM      4  C   LIG    1        3.480  -3.786  -1.055  0.00  0.00    +0.130 C 
ATOM      5  C   LIG    1        2.043  -4.311  -1.119  0.00  0.00    +0.200 C 
ATOM      6  C   LIG    1        1.443  -3.969  -2.482  0.00  0.00    +0.200 C 
ATOM      7  H   LIG    1        0.995  -2.289  -3.548  0.00  0.00    +0.440 HD
ENDROOT
BRANCH   5   8
ATOM      8  O   LIG    1        2.045  -5.729  -0.939  0.00  0.00    -0.540 OA
ATOM      9  H   LIG    1        2.416  -6.017  -0.094  0.00  0.00    +0.410 HD
ENDBRANCH   5   8
BRANCH   4  10
ATOM     10  O   LIG    1        4.025  -4.036   0.242  0.00  0.00    -0.550 OA
ATOM     11  H   LIG    1        4.933  -3.724   0.355  0.00  0.00    +0.400 HD
ENDBRANCH   4  10
BRANCH   3  12
ATOM     12  O   LIG    1        4.818  -1.791  -1.340  0.00  0.00    -0.540 OA
ATOM     13  H   LIG    1        5.295  -1.927  -0.510  0.00  0.00    +0.400 HD
ENDBRANCH   3  12
BRANCH   1  14
ATOM     14  C   LIG    1        0.700  -1.879  -1.572  0.00  0.00    +0.240 C 
BRANCH  14  15
ATOM     15  C   LIG    1        0.587  -0.376  -1.833  0.00  0.00    +0.030 C 
BRANCH  15  17
ATOM     16  C   LIG    1       -0.297   1.787  -0.949  0.00  0.00    +0.030 C 
ATOM     17  C   LIG    1       -0.184   0.284  -0.688  0.00  0.00    +0.020 C 
ENDBRANCH  15  17
ENDBRANCH  14  15
ENDBRANCH   1  14
BRANCH   6  18
ATOM     18  C   LIG    1        0.006  -4.491  -2.552  0.00  0.00    +0.240 C 
BRANCH  18  19
ATOM     19  O   LIG    1       -0.542  -4.208  -3.841  0.00  0.00    -0.580 OA
ATOM     20  H   LIG    1       -1.452  -4.512  -3.957  0.00  0.00    +0.410 HD
ENDBRANCH  18  19
ENDBRANCH   6  18
TORSDOF 8
ENDMDL
MODEL        6
REMARK  Name = ZINC000004135997
REMARK                            x       y       z     vdW  Elec       q    Type
REMARK                         _______ _______ _______ _____ _____    ______ ____
ROOT
ATOM      1  N   LIG    1       -4.187  -0.253  -2.522  0.00  0.00    -0.650 NA
ATOM      2  H   LIG    1       -4.157   0.747  -2.655  0.00  0.00    +0.360 HD
ENDROOT
BRANCH   1   3
ATOM      3  C   LIG    1       -5.571  -0.746  -2.547  0.00  0.00    +0.220 C 
ATOM      4  C   LIG    1       -6.501   0.275  -1.840  0.00  0.00    -0.350 C 
ATOM      5  S   LIG    1       -8.146  -0.239  -2.481  0.00  0.00    +2.400 S 
ATOM      6  C   LIG    1       -7.545  -0.686  -4.153  0.00  0.00    -0.330 C 
ATOM      7  O   LIG    1       -9.000   0.894  -2.563  0.00  0.00    -0.920 OA
ATOM      8  O   LIG    1       -8.579  -1.409  -1.800  0.00  0.00    -0.920 OA
ATOM      9  C   LIG    1       -6.035  -0.905  -3.996  0.00  0.00    +0.220 C 
BRANCH   9  10
ATOM     10  O   LIG    1       -5.342   0.043  -4.811  0.00  0.00    -0.550 OA
ATOM     11  H   LIG    1       -5.531  -0.038  -5.756  0.00  0.00    +0.390 HD
ENDBRANCH   9  10
ENDBRANCH   1   3
BRANCH   1  12
ATOM     12  C   LIG    1       -3.513  -0.640  -1.275  0.00  0.00    +0.180 C 
BRANCH  12  13
ATOM     13  C   LIG    1       -2.078  -0.110  -1.286  0.00  0.00    +0.040 C 
BRANCH  13  14
ATOM     14  C   LIG    1       -1.376  -0.512   0.012  0.00  0.00    +0.250 C 
BRANCH  14  16
ATOM     15  C   LIG    1       -0.018   1.465   0.010  0.00  0.00    +0.320 C 
ATOM     16  N   LIG    1        0.002  -0.004   0.002  0.00  0.00    -0.390 N 
ATOM     17  C   LIG    1        0.713  -0.491   1.192  0.00  0.00    +0.320 C 
ATOM     18  H   LIG    1        0.474  -0.330  -0.828  0.00  0.00    +0.430 HD
ENDBRANCH  14  16
ENDBRANCH  13  14
ENDBRANCH  12  13
ENDBRANCH   1  12
TORSDOF 6
ENDMDL
MODEL        7
REMARK  Name = ZINC000004135996
REMARK                            x       y       z     vdW  Elec       q    Type
REMARK                         _______ _______ _______ _____ _____    ______ ____
ROOT
ATOM      1  N   LIG    1       -4.187  -0.253  -2.522  0.00  0.00    -0.680 NA
ATOM      2  H   LIG    1       -4.157   0.747  -2.655  0.00  0.00    +0.350 HD
ENDROOT
BRANCH   1   3
ATOM      3  C   LIG    1       -5.571  -0.746  -2.547  0.00  0.00    +0.190 C 
ATOM      4  C   LIG    1       -5.574  -2.203  -3.051  0.00  0.00    -0.290 C 
ATOM      5  S   LIG    1       -7.149  -2.307  -3.993  0.00  0.00    +2.390 S 
ATOM      6  C   LIG    1       -7.052  -0.579  -4.612  0.00  0.00    -0.320 C 
ATOM      7  O   LIG    1       -8.241  -2.436  -3.092  0.00  0.00    -0.910 OA
ATOM      8  O   LIG    1       -7.004  -3.216  -5.076  0.00  0.00    -0.920 OA
ATOM      9  C   LIG    1       -6.406   0.171  -3.433  0.00  0.00    +0.200 C 
BRANCH   9  10
ATOM     10  O   LIG    1       -7.437   0.760  -2.637  0.00  0.00    -0.560 OA
ATOM     11  H   LIG    1       -7.976   1.409  -3.110  0.00  0.00    +0.400 HD
ENDBRANCH   9  10
ENDBRANCH   1   3
BRANCH   1  12
ATOM     12  C   LIG    1       -3.513  -0.640  -1.275  0.00  0.00    +0.200 C 
BRANCH  12  13
ATOM     13  C   LIG    1       -2.078  -0.110  -1.286  0.00  0.00    +0.040 C 
BRANCH  13  14
ATOM     14  C   LIG    1       -1.376  -0.512   0.012  0.00  0.00    +0.250 C 
BRANCH  14  16
ATOM     15  C   LIG    1       -0.018   1.465   0.010  0.00  0.00    +0.320 C 
ATOM     16  N   LIG    1        0.002  -0.004   0.002  0.00  0.00    -0.390 N 
ATOM     17  C   LIG    1        0.713  -0.491   1.192  0.00  0.00    +0.320 C 
ATOM     18  H   LIG    1        0.474  -0.330  -0.828  0.00  0.00    +0.430 HD
ENDBRANCH  14  16
ENDBRANCH  13  14
ENDBRANCH  12  13
ENDBRANCH   1  12
TORSDOF 6
ENDMDL
MODEL        8
REMARK  Name = ZINC000048333412
REMARK                            x       y       z     vdW  Elec       q    Type
REMARK                         _______ _______ _______ _____ _____    ______ ____
ROOT
ATOM      1  C   LIG    1       -3.355  -4.952  -0.614  0.00  0.00    +0.530 C 
ATOM      2  N   LIG    1       -3.499  -6.291  -0.649  0.00  0.00    -0.630 N 
ATOM      3  C   LIG    1       -2.522  -7.175   0.005  0.00  0.00    +0.310 C 
ATOM      4  C   LIG    1       -3.281  -8.167   0.892  0.00  0.00    +0.270 C 
ATOM      5  N   LIG    1       -4.289  -8.869   0.088  0.00  0.00    -0.390 N 
ATOM      6  C   LIG    1       -5.298  -7.916  -0.393  0.00  0.00    +0.260 C 
ATOM      7  C   LIG    1       -4.943  -9.894   0.912  0.00  0.00    +0.330 C 
ATOM      8  H   LIG    1       -3.841  -9.309  -0.702  0.00  0.00    +0.430 HD
ATOM      9  C   LIG    1       -4.641  -6.911  -1.339  0.00  0.00    +0.330 C 
ATOM     10  O   LIG    1       -4.221  -4.236  -1.072  0.00  0.00    -0.500 OA
ENDROOT
BRANCH   1  11
ATOM     11  C   LIG    1       -2.119  -4.343  -0.005  0.00  0.00    +0.240 C 
ATOM     12  C   LIG    1       -2.321  -4.178   1.503  0.00  0.00    +0.070 C 
BRANCH  11  14
ATOM     13  C   LIG    1       -0.623  -2.523  -0.628  0.00  0.00    +0.520 C 
ATOM     14  N   LIG    1       -1.871  -3.032  -0.610  0.00  0.00    -0.720 N 
ATOM     15  H   LIG    1       -2.606  -2.530  -0.997  0.00  0.00    +0.410 HD
ATOM     16  O   LIG    1        0.295  -3.150  -0.144  0.00  0.00    -0.510 OA
BRANCH  13  17
ATOM     17  C   LIG    1       -0.369  -1.174  -1.251  0.00  0.00    +0.210 C 
BRANCH  17  19
ATOM     18  C   LIG    1        1.371   0.409  -1.711  0.00  0.00    +0.230 C 
ATOM     19  O   LIG    1        1.021  -0.857  -1.148  0.00  0.00    -0.370 OA
ENDBRANCH  17  19
ENDBRANCH  13  17
ENDBRANCH  11  14
ENDBRANCH   1  11
TORSDOF 4
ENDMDL
MODEL        9
REMARK  Name = ZINC000048333413
REMARK                            x       y       z     vdW  Elec       q    Type
REMARK                         _______ _______ _______ _____ _____    ______ ____
ROOT
ATOM      1  C   LIG    1       -3.314  -5.035   0.603  0.00  0.00    +0.520 C 
ATOM      2  N   LIG    1       -3.295  -6.371   0.786  0.00  0.00    -0.630 N 
ATOM      3  C   LIG    1       -2.081  -7.155   0.512  0.00  0.00    +0.310 C 
ATOM      4  C   LIG    1       -1.787  -8.037   1.730  0.00  0.00    +0.270 C 
ATOM      5  N   LIG    1       -2.973  -8.845   2.045  0.00  0.00    -0.390 N 
ATOM      6  C   LIG    1       -4.081  -7.971   2.449  0.00  0.00    +0.260 C 
ATOM      7  C   LIG    1       -2.656  -9.767   3.144  0.00  0.00    +0.330 C 
ATOM      8  H   LIG    1       -3.243  -9.375   1.230  0.00  0.00    +0.430 HD
ATOM      9  C   LIG    1       -4.486  -7.084   1.272  0.00  0.00    +0.330 C 
ATOM     10  O   LIG    1       -4.291  -4.393   0.925  0.00  0.00    -0.500 OA
ENDROOT
BRANCH   1  11
ATOM     11  C   LIG    1       -2.121  -4.341  -0.002  0.00  0.00    +0.240 C 
ATOM     12  C   LIG    1       -2.124  -4.549  -1.518  0.00  0.00    +0.070 C 
BRANCH  11  14
ATOM     13  C   LIG    1       -1.059  -2.172   0.321  0.00  0.00    +0.520 C 
ATOM     14  N   LIG    1       -2.188  -2.908   0.294  0.00  0.00    -0.720 N 
ATOM     15  H   LIG    1       -3.045  -2.489   0.471  0.00  0.00    +0.410 HD
ATOM     16  O   LIG    1        0.012  -2.696   0.100  0.00  0.00    -0.510 OA
BRANCH  13  17
ATOM     17  C   LIG    1       -1.128  -0.698   0.626  0.00  0.00    +0.210 C 
BRANCH  17  19
ATOM     18  C   LIG    1        0.235   1.258   0.873  0.00  0.00    +0.230 C 
ATOM     19  O   LIG    1        0.188  -0.143   0.595  0.00  0.00    -0.370 OA
ENDBRANCH  17  19
ENDBRANCH  13  17
ENDBRANCH  11  14
ENDBRANCH   1  11
TORSDOF 4
ENDMDL
MODEL       10
REMARK  Name = ZINC000084526165
REMARK                            x       y       z     vdW  Elec       q    Type
REMARK                         _______ _______ _______ _____ _____    ______ ____
ROOT
ATOM      1  N   LIG    1       -1.153   4.233  -1.164  0.00  0.00    -0.480 N 
ATOM      2  H   LIG    1       -0.971   3.803  -2.058  0.00  0.00    +0.440 HD
ATOM      3  H   LIG    1       -0.641   3.744  -0.445  0.00  0.00    +0.440 HD
ENDROOT
BRANCH   1   7
ATOM      4  O   LIG    1       -4.096   1.364   0.774  0.00  0.00    -0.430 OA
ATOM      5  C   LIG    1       -3.605   2.413   0.416  0.00  0.00    +0.530 C 
ATOM      6  C   LIG    1       -3.099   2.714  -0.978  0.00  0.00    +0.150 C 
ATOM      7  C   LIG    1       -2.591   4.167  -0.872  0.00  0.00    +0.190 C 
ATOM      8  C   LIG    1       -2.862   4.534   0.570  0.00  0.00    +0.520 C 
ATOM      9  O   LIG    1       -2.611   5.603   1.082  0.00  0.00    -0.430 OA
ATOM     10  N   LIG    1       -3.430   3.492   1.190  0.00  0.00    -0.670 N 
ATOM     11  H   LIG    1       -3.687   3.514   2.126  0.00  0.00    +0.440 HD
ENDBRANCH   1   7
BRANCH   1  12
ATOM     12  C   LIG    1       -0.725   5.638  -1.201  0.00  0.00    +0.180 C 
ATOM     13  C   LIG    1       -1.402   6.345  -2.378  0.00  0.00    +0.070 C 
ATOM     14  C   LIG    1       -0.741   7.716  -2.565  0.00  0.00    +0.070 C 
ATOM     15  C   LIG    1        0.698   7.505  -3.038  0.00  0.00    +0.280 C 
ATOM     16  N   LIG    1        1.387   6.559  -2.169  0.00  0.00    -0.690 N 
ATOM     17  H   LIG    1        2.357   6.551  -2.183  0.00  0.00    +0.420 HD
ATOM     18  C   LIG    1        0.767   5.701  -1.359  0.00  0.00    +0.510 C 
ATOM     19  O   LIG    1        1.444   4.932  -0.711  0.00  0.00    -0.530 OA
ENDBRANCH   1  12
TORSDOF 2
ENDMDL
MODEL       11
REMARK  Name = ZINC000084526163
REMARK                            x       y       z     vdW  Elec       q    Type
REMARK                         _______ _______ _______ _____ _____    ______ ____
ROOT
ATOM      1  N   LIG    1       -1.153   4.233  -1.164  0.00  0.00    -0.480 N 
ATOM      2  H   LIG    1       -2.153   4.116  -1.103  0.00  0.00    +0.440 HD
ATOM      3  H   LIG    1       -0.828   3.896  -2.058  0.00  0.00    +0.440 HD
ENDROOT
BRANCH   1   7
ATOM      4  O   LIG    1        0.430   0.033  -0.457  0.00  0.00    -0.430 OA
ATOM      5  C   LIG    1        0.332   1.238  -0.362  0.00  0.00    +0.530 C 
ATOM      6  C   LIG    1       -0.955   1.996  -0.121  0.00  0.00    +0.130 C 
ATOM      7  C   LIG    1       -0.504   3.471  -0.089  0.00  0.00    +0.180 C 
ATOM      8  C   LIG    1        0.990   3.390  -0.315  0.00  0.00    +0.520 C 
ATOM      9  O   LIG    1        1.745   4.338  -0.362  0.00  0.00    -0.440 OA
ATOM     10  N   LIG    1        1.347   2.107  -0.448  0.00  0.00    -0.670 N 
ATOM     11  H   LIG    1        2.264   1.830  -0.601  0.00  0.00    +0.440 HD
ENDBRANCH   1   7
BRANCH   1  12
ATOM     12  C   LIG    1       -0.817   5.657  -1.026  0.00  0.00    +0.180 C 
ATOM     13  C   LIG    1       -1.280   6.411  -2.275  0.00  0.00    +0.070 C 
ATOM     14  C   LIG    1       -1.174   7.916  -1.999  0.00  0.00    +0.070 C 
ATOM     15  C   LIG    1       -2.206   8.292  -0.934  0.00  0.00    +0.280 C 
ATOM     16  N   LIG    1       -2.097   7.406   0.217  0.00  0.00    -0.680 N 
ATOM     17  H   LIG    1       -2.484   7.701   1.056  0.00  0.00    +0.420 HD
ATOM     18  C   LIG    1       -1.500   6.215   0.189  0.00  0.00    +0.510 C 
ATOM     19  O   LIG    1       -1.507   5.545   1.200  0.00  0.00    -0.530 OA
ENDBRANCH   1  12
TORSDOF 2
ENDMDL
MODEL       12
REMARK  Name = ZINC000022606602
REMARK                            x       y       z     vdW  Elec       q    Type
REMARK                         _______ _______ _______ _____ _____    ______ ____
ROOT
ATOM      1  C   LIG    1       -1.384  -0.909   1.776  0.00  0.00    +0.500 C 
ATOM      2  N   LIG    1       -1.610  -1.563   2.933  0.00  0.00    -0.640 N 
ATOM      3  C   LIG    1       -0.496  -2.117   3.718  0.00  0.00    +0.310 C 
ATOM      4  C   LIG    1       -0.645  -1.648   5.170  0.00  0.00    +0.260 C 
ATOM      5  N   LIG    1       -1.977  -2.013   5.667  0.00  0.00    -0.390 N 
ATOM      6  C   LIG    1       -3.008  -1.291   4.911  0.00  0.00    +0.260 C 
ATOM      7  C   LIG    1       -2.081  -1.661   7.089  0.00  0.00    +0.330 C 
ATOM      8  H   LIG    1       -2.116  -3.007   5.557  0.00  0.00    +0.430 HD
ATOM      9  C   LIG    1       -2.976  -1.736   3.450  0.00  0.00    +0.330 C 
ATOM     10  O   LIG    1       -2.315  -0.455   1.145  0.00  0.00    -0.490 OA
ENDROOT
BRANCH   1  11
ATOM     11  C   LIG    1        0.024  -0.743   1.267  0.00  0.00    +0.340 C 
BRANCH  11  13
ATOM     12  C   LIG    1       -0.018   1.461   0.010  0.00  0.00    +0.300 C 
ATOM     13  N   LIG    1        0.002  -0.004   0.002  0.00  0.00    -0.990 NA
BRANCH  13  14
ATOM     14  S   LIG    1       -0.000  -0.824  -1.437  0.00  0.00    +2.610 S 
ATOM     15  O   LIG    1       -0.626   0.068  -2.348  0.00  0.00    -0.940 OA
ATOM     16  O   LIG    1       -0.586  -2.081  -1.123  0.00  0.00    -0.950 OA
ATOM     17  C   LIG    1        1.755  -1.025  -1.846  0.00  0.00    -0.280 C 
ENDBRANCH  13  14
ENDBRANCH  11  13
ENDBRANCH   1  11
TORSDOF 3
ENDMDL
MODEL       13
REMARK  Name = ZINC000019366373
REMARK                            x       y       z     vdW  Elec       q    Type
REMARK                         _______ _______ _______ _____ _____    ______ ____
ROOT
ATOM      1  C   LIG    1       -4.913   1.478  -3.956  0.00  0.00    +0.220 C 
ENDROOT
BRANCH   1   2
ATOM      2  C   LIG    1       -6.410   1.438  -3.642  0.00  0.00    +0.190 C 
ATOM      3  N   LIG    1       -6.699   2.340  -2.521  0.00  0.00    -0.490 N 
ATOM      4  C   LIG    1       -8.120   2.251  -2.163  0.00  0.00    +0.250 C 
ATOM      5  C   LIG    1       -8.976   2.726  -3.339  0.00  0.00    +0.060 C 
ATOM      6  C   LIG    1       -8.698   1.839  -4.557  0.00  0.00    +0.020 C 
ATOM      7  H   LIG    1       -6.480   3.288  -2.788  0.00  0.00    +0.430 HD
ATOM      8  H   LIG    1       -6.136   2.078  -1.726  0.00  0.00    +0.440 HD
ATOM      9  C   LIG    1       -7.200   1.882  -4.875  0.00  0.00    +0.190 C 
BRANCH   9  10
ATOM     10  O   LIG    1       -6.826   3.215  -5.230  0.00  0.00    -0.570 OA
ATOM     11  H   LIG    1       -7.292   3.561  -6.003  0.00  0.00    +0.410 HD
ENDBRANCH   9  10
ENDBRANCH   1   2
BRANCH   1  15
ATOM     12  N   LIG    1       -2.197  -0.222  -1.203  0.00  0.00    -0.530 NA
ATOM     13  C   LIG    1       -1.969   1.166  -1.627  0.00  0.00    +0.190 C 
ATOM     14  C   LIG    1       -2.716   1.426  -2.937  0.00  0.00    +0.210 C 
ATOM     15  N   LIG    1       -4.149   1.167  -2.740  0.00  0.00    -0.560 NA
ATOM     16  C   LIG    1       -4.377  -0.221  -2.316  0.00  0.00    +0.170 C 
ATOM     17  C   LIG    1       -3.630  -0.481  -1.006  0.00  0.00    +0.200 C 
BRANCH  12  18
ATOM     18  C   LIG    1       -1.433  -0.534   0.013  0.00  0.00    +0.240 C 
BRANCH  18  19
ATOM     19  C   LIG    1       -1.632   0.583   1.040  0.00  0.00    +0.130 C 
BRANCH  19  20
ATOM     20  O   LIG    1       -2.999   0.609   1.457  0.00  0.00    -0.570 OA
ATOM     21  H   LIG    1       -3.198   1.294   2.109  0.00  0.00    +0.380 HD
ENDBRANCH  19  20
ENDBRANCH  18  19
ENDBRANCH  12  18
ENDBRANCH   1  15
TORSDOF 6
ENDMDL
MODEL       14
REMARK  Name = ZINC000019366374
REMARK                            x       y       z     vdW  Elec       q    Type
REMARK                         _______ _______ _______ _____ _____    ______ ____
ROOT
ATOM      1  C   LIG    1       -4.913   1.478  -3.956  0.00  0.00    +0.180 C 
ENDROOT
BRANCH   1   2
ATOM      2  C   LIG    1       -6.402   1.561  -3.615  0.00  0.00    +0.170 C 
ATOM      3  N   LIG    1       -7.165   1.869  -4.831  0.00  0.00    -0.500 N 
ATOM      4  C   LIG    1       -8.601   1.875  -4.530  0.00  0.00    +0.260 C 
ATOM      5  C   LIG    1       -8.911   2.987  -3.525  0.00  0.00    +0.060 C 
ATOM      6  C   LIG    1       -8.119   2.739  -2.238  0.00  0.00    +0.010 C 
ATOM      7  H   LIG    1       -6.973   1.170  -5.533  0.00  0.00    +0.430 HD
ATOM      8  H   LIG    1       -6.891   2.776  -5.178  0.00  0.00    +0.430 HD
ATOM      9  C   LIG    1       -6.627   2.661  -2.576  0.00  0.00    +0.180 C 
BRANCH   9  10
ATOM     10  O   LIG    1       -5.885   2.358  -1.393  0.00  0.00    -0.510 OA
ATOM     11  H   LIG    1       -5.984   3.014  -0.688  0.00  0.00    +0.390 HD
ENDBRANCH   9  10
ENDBRANCH   1   2
BRANCH   1  15
ATOM     12  N   LIG    1       -2.263  -0.605  -1.409  0.00  0.00    -0.540 NA
ATOM     13  C   LIG    1       -1.997   0.818  -1.664  0.00  0.00    +0.180 C 
ATOM     14  C   LIG    1       -2.727   1.250  -2.938  0.00  0.00    +0.190 C 
ATOM     15  N   LIG    1       -4.168   1.006  -2.781  0.00  0.00    -0.500 NA
ATOM     16  C   LIG    1       -4.433  -0.417  -2.526  0.00  0.00    +0.170 C 
ATOM     17  C   LIG    1       -3.703  -0.849  -1.252  0.00  0.00    +0.200 C 
BRANCH  12  18
ATOM     18  C   LIG    1       -1.518  -1.077  -0.234  0.00  0.00    +0.220 C 
BRANCH  18  19
ATOM     19  C   LIG    1       -1.758  -0.125   0.939  0.00  0.00    +0.130 C 
BRANCH  19  20
ATOM     20  O   LIG    1       -3.132  -0.187   1.329  0.00  0.00    -0.570 OA
ATOM     21  H   LIG    1       -3.357   0.393   2.069  0.00  0.00    +0.380 HD
ENDBRANCH  19  20
ENDBRANCH  18  19
ENDBRANCH  12  18
ENDBRANCH   1  15
TORSDOF 6
ENDMDL
MODEL       15
REMARK  Name = ZINC000019366377
REMARK                            x       y       z     vdW  Elec       q    Type
REMARK                         _______ _______ _______ _____ _____    ______ ____
ROOT
ATOM      1  C   LIG    1       -4.913   1.478  -3.956  0.00  0.00    +0.200 C 
ENDROOT
BRANCH   1   2
ATOM      2  C   LIG    1       -6.402   1.561  -3.615  0.00  0.00    +0.180 C 
ATOM      3  N   LIG    1       -7.165   1.869  -4.831  0.00  0.00    -0.500 N 
ATOM      4  C   LIG    1       -8.601   1.875  -4.530  0.00  0.00    +0.270 C 
ATOM      5  C   LIG    1       -8.911   2.987  -3.525  0.00  0.00    +0.060 C 
ATOM      6  C   LIG    1       -8.119   2.739  -2.238  0.00  0.00    +0.020 C 
ATOM      7  H   LIG    1       -6.973   1.170  -5.533  0.00  0.00    +0.430 HD
ATOM      8  H   LIG    1       -6.891   2.776  -5.178  0.00  0.00    +0.430 HD
ATOM      9  C   LIG    1       -6.627   2.661  -2.576  0.00  0.00    +0.210 C 
BRANCH   9  10
ATOM     10  O   LIG    1       -6.191   3.915  -3.104  0.00  0.00    -0.570 OA
ATOM     11  H   LIG    1       -6.307   4.659  -2.497  0.00  0.00    +0.410 HD
ENDBRANCH   9  10
ENDBRANCH   1   2
BRANCH   1  15
ATOM     12  N   LIG    1       -2.250  -0.570  -1.395  0.00  0.00    -0.540 NA
ATOM     13  C   LIG    1       -1.997   0.854  -1.654  0.00  0.00    +0.180 C 
ATOM     14  C   LIG    1       -2.728   1.275  -2.932  0.00  0.00    +0.200 C 
ATOM     15  N   LIG    1       -4.166   1.017  -2.777  0.00  0.00    -0.530 NA
ATOM     16  C   LIG    1       -4.419  -0.407  -2.518  0.00  0.00    +0.170 C 
ATOM     17  C   LIG    1       -3.688  -0.828  -1.241  0.00  0.00    +0.210 C 
BRANCH  12  18
ATOM     18  C   LIG    1       -1.503  -1.031  -0.217  0.00  0.00    +0.230 C 
BRANCH  18  19
ATOM     19  C   LIG    1       -1.748  -0.072   0.950  0.00  0.00    +0.130 C 
BRANCH  19  20
ATOM     20  O   LIG    1       -3.122  -0.135   1.338  0.00  0.00    -0.570 OA
ATOM     21  H   LIG    1       -3.350   0.449   2.074  0.00  0.00    +0.380 HD
ENDBRANCH  19  20
ENDBRANCH  18  19
ENDBRANCH  12  18
ENDBRANCH   1  15
TORSDOF 6
ENDMDL
MODEL       16
REMARK  Name = ZINC000019366376
REMARK                            x       y       z     vdW  Elec       q    Type
REMARK                         _______ _______ _______ _____ _____    ______ ____
ROOT
ATOM      1  C   LIG    1       -4.913   1.478  -3.956  0.00  0.00    +0.220 C 
ENDROOT
BRANCH   1   2
ATOM      2  C   LIG    1       -6.410   1.438  -3.642  0.00  0.00    +0.180 C 
ATOM      3  N   LIG    1       -6.699   2.340  -2.521  0.00  0.00    -0.490 N 
ATOM      4  C   LIG    1       -8.120   2.251  -2.163  0.00  0.00    +0.260 C 
ATOM      5  C   LIG    1       -8.976   2.726  -3.339  0.00  0.00    +0.070 C 
ATOM      6  C   LIG    1       -8.698   1.839  -4.557  0.00  0.00    +0.020 C 
ATOM      7  H   LIG    1       -6.480   3.288  -2.788  0.00  0.00    +0.420 HD
ATOM      8  H   LIG    1       -6.136   2.078  -1.726  0.00  0.00    +0.440 HD
ATOM      9  C   LIG    1       -7.200   1.882  -4.875  0.00  0.00    +0.180 C 
BRANCH   9  10
ATOM     10  O   LIG    1       -6.919   1.002  -5.965  0.00  0.00    -0.550 OA
ATOM     11  H   LIG    1       -7.390   1.222  -6.780  0.00  0.00    +0.400 HD
ENDBRANCH   9  10
ENDBRANCH   1   2
BRANCH   1  15
ATOM     12  N   LIG    1       -2.197  -0.222  -1.203  0.00  0.00    -0.530 NA
ATOM     13  C   LIG    1       -1.969   1.166  -1.627  0.00  0.00    +0.190 C 
ATOM     14  C   LIG    1       -2.716   1.426  -2.937  0.00  0.00    +0.210 C 
ATOM     15  N   LIG    1       -4.149   1.167  -2.740  0.00  0.00    -0.560 NA
ATOM     16  C   LIG    1       -4.377  -0.221  -2.316  0.00  0.00    +0.170 C 
ATOM     17  C   LIG    1       -3.630  -0.481  -1.006  0.00  0.00    +0.200 C 
BRANCH  12  18
ATOM     18  C   LIG    1       -1.433  -0.534   0.013  0.00  0.00    +0.240 C 
BRANCH  18  19
ATOM     19  C   LIG    1       -1.632   0.583   1.040  0.00  0.00    +0.130 C 
BRANCH  19  20
ATOM     20  O   LIG    1       -2.999   0.609   1.457  0.00  0.00    -0.570 OA
ATOM     21  H   LIG    1       -3.198   1.294   2.109  0.00  0.00    +0.380 HD
ENDBRANCH  19  20
ENDBRANCH  18  19
ENDBRANCH  12  18
ENDBRANCH   1  15
TORSDOF 6
ENDMDL
MODEL       17
REMARK  Name = ZINC000004097426
REMARK                            x       y       z     vdW  Elec       q    Type
REMARK                         _______ _______ _______ _____ _____    ______ ____
ROOT
ATOM      1  N   LIG    1       -2.174  -0.008  -1.359  0.00  0.00    -0.360 N 
ATOM      2  C   LIG    1       -1.457  -0.580  -2.505  0.00  0.00    +0.290 C 
ATOM      3  C   LIG    1       -1.192  -2.066  -2.255  0.00  0.00    +0.150 C 
ATOM      4  C   LIG    1       -2.527  -2.793  -2.071  0.00  0.00    +0.130 C 
ATOM      5  C   LIG    1       -3.299  -2.140  -0.921  0.00  0.00    +0.200 C 
ATOM      6  C   LIG    1       -3.485  -0.653  -1.220  0.00  0.00    +0.190 C 
ATOM      7  H   LIG    1       -2.301   0.983  -1.503  0.00  0.00    +0.450 HD
ENDROOT
BRANCH   5   8
ATOM      8  O   LIG    1       -4.577  -2.766  -0.788  0.00  0.00    -0.540 OA
ATOM      9  H   LIG    1       -4.533  -3.713  -0.600  0.00  0.00    +0.410 HD
ENDBRANCH   5   8
BRANCH   4  10
ATOM     10  O   LIG    1       -2.284  -4.168  -1.766  0.00  0.00    -0.550 OA
ATOM     11  H   LIG    1       -1.794  -4.642  -2.452  0.00  0.00    +0.400 HD
ENDBRANCH   4  10
BRANCH   3  12
ATOM     12  O   LIG    1       -0.496  -2.621  -3.373  0.00  0.00    -0.540 OA
ATOM     13  H   LIG    1       -0.294  -3.562  -3.283  0.00  0.00    +0.400 HD
ENDBRANCH   3  12
BRANCH   1  14
ATOM     14  C   LIG    1       -1.391  -0.226  -0.135  0.00  0.00    +0.260 C 
BRANCH  14  15
ATOM     15  C   LIG    1       -0.079   0.555  -0.223  0.00  0.00    +0.220 C 
BRANCH  15  16
ATOM     16  O   LIG    1       -0.359   1.956  -0.247  0.00  0.00    -0.580 OA
ATOM     17  H   LIG    1        0.429   2.514  -0.303  0.00  0.00    +0.410 HD
ENDBRANCH  15  16
ENDBRANCH  14  15
ENDBRANCH   1  14
BRANCH   6  18
ATOM     18  C   LIG    1       -4.255   0.005  -0.074  0.00  0.00    +0.240 C 
BRANCH  18  19
ATOM     19  O   LIG    1       -4.466   1.387  -0.372  0.00  0.00    -0.580 OA
ATOM     20  H   LIG    1       -4.949   1.868   0.313  0.00  0.00    +0.410 HD
ENDBRANCH  18  19
ENDBRANCH   6  18
TORSDOF 8
ENDMDL
MODEL       18
REMARK  Name = ZINC000003831131
REMARK                            x       y       z     vdW  Elec       q    Type
REMARK                         _______ _______ _______ _____ _____    ______ ____
ROOT
ATOM      1  N   LIG    1       -2.167  -0.015  -1.326  0.00  0.00    -0.370 N 
ATOM      2  C   LIG    1       -1.434  -0.576  -2.467  0.00  0.00    +0.280 C 
ATOM      3  C   LIG    1       -2.180  -0.256  -3.764  0.00  0.00    +0.160 C 
ATOM      4  C   LIG    1       -3.582  -0.870  -3.705  0.00  0.00    +0.120 C 
ATOM      5  C   LIG    1       -4.311  -0.335  -2.469  0.00  0.00    +0.210 C 
ATOM      6  C   LIG    1       -3.485  -0.653  -1.220  0.00  0.00    +0.190 C 
ATOM      7  H   LIG    1       -2.285   0.978  -1.458  0.00  0.00    +0.450 HD
ENDROOT
BRANCH   5   8
ATOM      8  O   LIG    1       -4.476   1.080  -2.587  0.00  0.00    -0.520 OA
ATOM      9  H   LIG    1       -4.988   1.353  -3.361  0.00  0.00    +0.400 HD
ENDBRANCH   5   8
BRANCH   4  10
ATOM     10  O   LIG    1       -4.310  -0.515  -4.882  0.00  0.00    -0.550 OA
ATOM     11  H   LIG    1       -3.901  -0.818  -5.704  0.00  0.00    +0.400 HD
ENDBRANCH   4  10
BRANCH   3  12
ATOM     12  O   LIG    1       -2.285   1.161  -3.918  0.00  0.00    -0.550 OA
ATOM     13  H   LIG    1       -2.748   1.436  -4.721  0.00  0.00    +0.400 HD
ENDBRANCH   3  12
BRANCH   1  14
ATOM     14  C   LIG    1       -1.408  -0.257  -0.092  0.00  0.00    +0.260 C 
BRANCH  14  15
ATOM     15  C   LIG    1       -0.089   0.517  -0.145  0.00  0.00    +0.210 C 
BRANCH  15  16
ATOM     16  O   LIG    1       -0.360   1.920  -0.154  0.00  0.00    -0.570 OA
ATOM     17  H   LIG    1        0.432   2.473  -0.186  0.00  0.00    +0.410 HD
ENDBRANCH  15  16
ENDBRANCH  14  15
ENDBRANCH   1  14
BRANCH   6  18
ATOM     18  C   LIG    1       -4.208  -0.120   0.018  0.00  0.00    +0.210 C 
BRANCH  18  19
ATOM     19  O   LIG    1       -4.431   1.284  -0.128  0.00  0.00    -0.550 OA
ATOM     20  H   LIG    1       -4.887   1.690   0.622  0.00  0.00    +0.400 HD
ENDBRANCH  18  19
ENDBRANCH   6  18
TORSDOF 8
ENDMDL
MODEL       19
REMARK  Name = ZINC000008737478
REMARK                            x       y       z     vdW  Elec       q    Type
REMARK                         _______ _______ _______ _____ _____    ______ ____
ROOT
ATOM      1  N   LIG    1        1.448  -3.871  -0.033  0.00  0.00    -0.560 N 
ATOM      2  H   LIG    1        0.635  -4.399  -0.001  0.00  0.00    +0.410 HD
ATOM      3  C   LIG    1        2.647  -4.484  -0.085  0.00  0.00    +0.530 C 
ATOM      4  O   LIG    1        3.665  -3.825  -0.126  0.00  0.00    -0.480 OA
ENDROOT
BRANCH   1   9
ATOM      5  C   LIG    1       -0.018   1.465   0.010  0.00  0.00    +0.340 C 
ATOM      6  N   LIG    1        0.002  -0.004   0.002  0.00  0.00    -0.390 N 
ATOM      7  C   LIG    1        0.712  -0.490   1.192  0.00  0.00    +0.280 C 
ATOM      8  C   LIG    1        0.717  -2.021   1.194  0.00  0.00    +0.210 C 
ATOM      9  N   LIG    1        1.378  -2.507  -0.025  0.00  0.00    -0.290 NA
ATOM     10  C   LIG    1        0.693  -2.008  -1.225  0.00  0.00    +0.200 C 
ATOM     11  C   LIG    1        0.689  -0.477  -1.207  0.00  0.00    +0.280 C 
ATOM     12  H   LIG    1       -0.945  -0.353   0.009  0.00  0.00    +0.420 HD
ENDBRANCH   1   9
BRANCH   3  13
ATOM     13  C   LIG    1        2.724  -5.977  -0.094  0.00  0.00    +0.520 C 
ATOM     14  N   LIG    1        3.923  -6.590  -0.147  0.00  0.00    -0.660 N 
ATOM     15  H   LIG    1        4.736  -6.062  -0.179  0.00  0.00    +0.420 HD
ATOM     16  O   LIG    1        1.706  -6.637  -0.054  0.00  0.00    -0.510 OA
BRANCH  14  17
ATOM     17  C   LIG    1        3.998  -8.053  -0.155  0.00  0.00    +0.210 C 
ATOM     18  C   LIG    1        4.975  -8.705  -1.136  0.00  0.00    +0.030 C 
ATOM     19  C   LIG    1        5.285  -8.697   0.362  0.00  0.00    +0.030 C 
ENDBRANCH  14  17
ENDBRANCH   3  13
TORSDOF 3
ENDMDL
MODEL       20
REMARK  Name = ZINC000102305290
REMARK                            x       y       z     vdW  Elec       q    Type
REMARK                         _______ _______ _______ _____ _____    ______ ____
ROOT
ATOM      1  C   LIG    1       -1.156  -2.837  -2.728  0.00  0.00    +0.320 C 
ATOM      2  N   LIG    1       -0.926  -2.763  -1.283  0.00  0.00    -0.580 N 
ATOM      3  C   LIG    1       -1.711  -3.380  -0.391  0.00  0.00    +0.520 C 
ATOM      4  C   LIG    1       -1.196  -3.100   1.004  0.00  0.00    +0.060 C 
ATOM      5  C   LIG    1        0.035  -2.204   0.761  0.00  0.00    +0.210 C 
ATOM      6  O   LIG    1       -2.680  -4.057  -0.659  0.00  0.00    -0.460 OA
ATOM      7  C   LIG    1        0.090  -2.077  -0.746  0.00  0.00    +0.530 C 
ATOM      8  O   LIG    1        0.919  -1.448  -1.368  0.00  0.00    -0.450 OA
ENDROOT
BRANCH   5   9
ATOM      9  N   LIG    1        1.253  -2.850   1.269  0.00  0.00    -0.510 NA
ATOM     10  C   LIG    1        1.452  -4.165   0.643  0.00  0.00    +0.200 C 
ATOM     11  C   LIG    1        2.758  -4.777   1.154  0.00  0.00    +0.280 C 
ATOM     12  N   LIG    1        2.696  -4.915   2.615  0.00  0.00    -0.390 N 
ATOM     13  C   LIG    1        2.522  -3.591   3.227  0.00  0.00    +0.280 C 
ATOM     14  C   LIG    1        3.944  -5.519   3.102  0.00  0.00    +0.330 C 
ATOM     15  H   LIG    1        1.917  -5.505   2.864  0.00  0.00    +0.420 HD
ATOM     16  C   LIG    1        1.214  -2.969   2.733  0.00  0.00    +0.220 C 
ENDBRANCH   5   9
TORSDOF 1
ENDMDL
MODEL       21
REMARK  Name = ZINC000100498303
REMARK                            x       y       z     vdW  Elec       q    Type
REMARK                         _______ _______ _______ _____ _____    ______ ____
ROOT
ATOM      1  N   LIG    1       -3.842  -1.714   1.349  0.00  0.00    -0.430 N 
ATOM      2  C   LIG    1       -3.956  -2.991   0.966  0.00  0.00    +0.500 C 
ATOM      3  C   LIG    1       -3.511  -3.121  -0.474  0.00  0.00    +0.060 C 
ATOM      4  C   LIG    1       -3.116  -1.681  -0.861  0.00  0.00    +0.210 C 
ATOM      5  O   LIG    1       -4.353  -3.900   1.663  0.00  0.00    -0.470 OA
ATOM      6  C   LIG    1       -3.384  -0.889   0.400  0.00  0.00    +0.540 C 
ATOM      7  O   LIG    1       -3.206   0.303   0.531  0.00  0.00    -0.420 OA
ENDROOT
BRANCH   4   8
ATOM      8  N   LIG    1       -3.954  -1.194  -1.965  0.00  0.00    -0.510 NA
ATOM      9  C   LIG    1       -5.379  -1.250  -1.609  0.00  0.00    +0.200 C 
ATOM     10  C   LIG    1       -6.212  -0.679  -2.759  0.00  0.00    +0.280 C 
ATOM     11  N   LIG    1       -5.963  -1.460  -3.978  0.00  0.00    -0.390 N 
ATOM     12  C   LIG    1       -4.541  -1.375  -4.334  0.00  0.00    +0.280 C 
ATOM     13  C   LIG    1       -6.777  -0.923  -5.077  0.00  0.00    +0.330 C 
ATOM     14  H   LIG    1       -6.212  -2.425  -3.815  0.00  0.00    +0.420 HD
ATOM     15  C   LIG    1       -3.694  -1.951  -3.197  0.00  0.00    +0.220 C 
ENDBRANCH   4   8
BRANCH   1  17
ATOM     16  C   LIG    1       -5.583  -1.559   2.901  0.00  0.00    +0.220 C 
ATOM     17  N   LIG    1       -4.170  -1.286   2.604  0.00  0.00    -0.300 NA
ATOM     18  C   LIG    1       -3.293  -1.894   3.614  0.00  0.00    +0.230 C 
ENDBRANCH   1  17
TORSDOF 2
ENDMDL
MODEL       22
REMARK  Name = ZINC000019595379
REMARK                            x       y       z     vdW  Elec       q    Type
REMARK                         _______ _______ _______ _____ _____    ______ ____
ROOT
ATOM      1  C   LIG    1       -0.018   1.461   0.010  0.00  0.00    +0.320 C 
ATOM      2  N   LIG    1        0.002  -0.004   0.002  0.00  0.00    -0.570 N 
ATOM      3  C   LIG    1        0.007  -0.722  -1.128  0.00  0.00    +0.520 C 
ATOM      4  C   LIG    1        0.028  -2.195  -0.781  0.00  0.00    +0.120 C 
ATOM      5  C   LIG    1        0.035  -2.204   0.761  0.00  0.00    +0.200 C 
ATOM      6  O   LIG    1       -0.004  -0.265  -2.251  0.00  0.00    -0.460 OA
ATOM      7  C   LIG    1        0.023  -0.735   1.124  0.00  0.00    +0.490 C 
ATOM      8  O   LIG    1        0.024  -0.290   2.252  0.00  0.00    -0.470 OA
ENDROOT
BRANCH   5   9
ATOM      9  N   LIG    1       -1.160  -2.882   1.280  0.00  0.00    -0.510 NA
ATOM     10  C   LIG    1       -2.386  -2.260   0.761  0.00  0.00    +0.190 C 
ATOM     11  C   LIG    1       -3.603  -3.031   1.276  0.00  0.00    +0.280 C 
ATOM     12  N   LIG    1       -3.608  -3.014   2.745  0.00  0.00    -0.390 N 
ATOM     13  C   LIG    1       -2.389  -3.661   3.248  0.00  0.00    +0.280 C 
ATOM     14  C   LIG    1       -4.786  -3.740   3.239  0.00  0.00    +0.320 C 
ATOM     15  H   LIG    1       -3.641  -2.060   3.070  0.00  0.00    +0.420 HD
ATOM     16  C   LIG    1       -1.162  -2.895   2.749  0.00  0.00    +0.220 C 
ENDBRANCH   5   9
TORSDOF 1
ENDMDL
MODEL       23
REMARK  Name = ZINC000019732057
REMARK                            x       y       z     vdW  Elec       q    Type
REMARK                         _______ _______ _______ _____ _____    ______ ____
ROOT
ATOM      1  N   LIG    1       -1.264  -0.510  -0.077  0.00  0.00    -0.420 N 
ATOM      2  C   LIG    1       -2.204  -0.258   0.843  0.00  0.00    +0.500 C 
ATOM      3  C   LIG    1       -3.483  -0.967   0.456  0.00  0.00    +0.120 C 
ATOM      4  C   LIG    1       -3.116  -1.681  -0.861  0.00  0.00    +0.220 C 
ATOM      5  O   LIG    1       -2.054   0.431   1.829  0.00  0.00    -0.460 OA
ATOM      6  C   LIG    1       -1.669  -1.296  -1.082  0.00  0.00    +0.510 C 
ATOM      7  O   LIG    1       -0.984  -1.648  -2.018  0.00  0.00    -0.450 OA
ENDROOT
BRANCH   4   8
ATOM      8  N   LIG    1       -3.255  -3.136  -0.716  0.00  0.00    -0.500 NA
ATOM      9  C   LIG    1       -2.438  -3.635   0.399  0.00  0.00    +0.190 C 
ATOM     10  C   LIG    1       -2.656  -5.142   0.554  0.00  0.00    +0.280 C 
ATOM     11  N   LIG    1       -2.280  -5.822  -0.693  0.00  0.00    -0.390 N 
ATOM     12  C   LIG    1       -3.121  -5.331  -1.793  0.00  0.00    +0.280 C 
ATOM     13  C   LIG    1       -2.473  -7.269  -0.538  0.00  0.00    +0.320 C 
ATOM     14  H   LIG    1       -1.311  -5.632  -0.900  0.00  0.00    +0.420 HD
ATOM     15  C   LIG    1       -2.906  -3.826  -1.967  0.00  0.00    +0.220 C 
ENDBRANCH   4   8
BRANCH   1  17
ATOM     16  C   LIG    1       -0.018   1.465   0.010  0.00  0.00    +0.230 C 
ATOM     17  N   LIG    1        0.002  -0.004   0.002  0.00  0.00    -0.300 NA
ATOM     18  C   LIG    1        0.706  -0.527   1.180  0.00  0.00    +0.230 C 
ENDBRANCH   1  17
TORSDOF 2
ENDMDL
MODEL       24
REMARK  Name = ZINC000002292863
REMARK                            x       y       z     vdW  Elec       q    Type
REMARK                         _______ _______ _______ _____ _____    ______ ____
ROOT
ATOM      1  C   LIG    1        2.106  -3.549  -0.039  0.00  0.00    +0.480 A 
ATOM      2  N   LIG    1        2.637  -4.100   1.022  0.00  0.00    -0.450 NA
ATOM      3  C   LIG    1        3.543  -5.037   0.635  0.00  0.00    -0.130 A 
ATOM      4  C   LIG    1        3.558  -5.049  -0.763  0.00  0.00    +0.330 A 
ATOM      5  N   LIG    1        4.373  -5.891  -1.410  0.00  0.00    -0.590 NA
ATOM      6  C   LIG    1        5.163  -6.710  -0.753  0.00  0.00    +0.670 A 
ATOM      7  N   LIG    1        5.193  -6.743   0.609  0.00  0.00    -0.650 N 
ATOM      8  H   LIG    1        5.788  -7.359   1.064  0.00  0.00    +0.420 HD
ATOM      9  C   LIG    1        4.397  -5.922   1.329  0.00  0.00    +0.590 A 
ATOM     10  O   LIG    1        4.417  -5.943   2.548  0.00  0.00    -0.500 OA
ATOM     11  N   LIG    1        2.643  -4.109  -1.166  0.00  0.00    -0.580 N 
ATOM     12  H   LIG    1        2.421  -3.880  -2.082  0.00  0.00    +0.420 HD
ENDROOT
BRANCH   1  17
ATOM     13  C   LIG    1       -0.018   1.465   0.010  0.00  0.00    +0.330 C 
ATOM     14  N   LIG    1        0.002  -0.004   0.002  0.00  0.00    -0.380 N 
ATOM     15  C   LIG    1        0.709  -0.489   1.194  0.00  0.00    +0.260 C 
ATOM     16  C   LIG    1        0.631  -2.018   1.246  0.00  0.00    +0.350 C 
ATOM     17  N   LIG    1        1.144  -2.555  -0.024  0.00  0.00    -0.610 N 
ATOM     18  C   LIG    1        0.605  -2.005  -1.277  0.00  0.00    +0.320 C 
ATOM     19  C   LIG    1        0.686  -0.476  -1.209  0.00  0.00    +0.260 C 
ATOM     20  H   LIG    1       -0.945  -0.352   0.009  0.00  0.00    +0.430 HD
ENDBRANCH   1  17
BRANCH   6  21
ATOM     21  N   LIG    1        5.982  -7.556  -1.459  0.00  0.00    -0.810 N 
ATOM     22  H   LIG    1        6.571  -8.166  -0.988  0.00  0.00    +0.420 HD
ATOM     23  H   LIG    1        5.972  -7.544  -2.429  0.00  0.00    +0.430 HD
ENDBRANCH   6  21
TORSDOF 2
ENDMDL
MODEL       25
REMARK  Name = ZINC000618256963
REMARK                            x       y       z     vdW  Elec       q    Type
REMARK                         _______ _______ _______ _____ _____    ______ ____
ROOT
ATOM      1  N   LIG    1       -1.173  -4.650  -0.309  0.00  0.00    -0.390 N 
ATOM      2  C   LIG    1       -1.596  -4.644  -1.718  0.00  0.00    +0.280 C 
ATOM      3  C   LIG    1       -1.051  -5.899  -2.402  0.00  0.00    +0.310 C 
ATOM      4  N   LIG    1       -1.391  -7.082  -1.615  0.00  0.00    -0.720 N 
ATOM      5  H   LIG    1       -1.343  -7.953  -2.039  0.00  0.00    +0.430 HD
ATOM      6  C   LIG    1       -1.768  -7.012  -0.334  0.00  0.00    +0.500 C 
ATOM      7  O   LIG    1       -2.012  -8.042   0.259  0.00  0.00    -0.490 OA
ATOM      8  C   LIG    1       -1.899  -5.709   0.404  0.00  0.00    +0.320 C 
ATOM      9  H   LIG    1       -0.180  -4.826  -0.255  0.00  0.00    +0.430 HD
ENDROOT
BRANCH   1  10
ATOM     10  C   LIG    1       -1.476  -3.349   0.302  0.00  0.00    +0.290 C 
BRANCH  10  14
ATOM     11  C   LIG    1        0.500   1.278   0.471  0.00  0.00    +0.320 C 
ATOM     12  N   LIG    1        0.360  -0.172   0.321  0.00  0.00    -0.620 N 
ATOM     13  C   LIG    1       -0.925  -0.877   0.246  0.00  0.00    +0.300 C 
ATOM     14  C   LIG    1       -0.599  -2.270  -0.336  0.00  0.00    -0.010 C 
ATOM     15  C   LIG    1        0.882  -2.444   0.075  0.00  0.00    +0.050 C 
ATOM     16  C   LIG    1        1.392  -1.028   0.227  0.00  0.00    +0.520 C 
ATOM     17  O   LIG    1        2.562  -0.712   0.266  0.00  0.00    -0.510 OA
ENDBRANCH  10  14
ENDBRANCH   1  10
TORSDOF 2
ENDMDL
MODEL       26
REMARK  Name = ZINC000618256963
REMARK                            x       y       z     vdW  Elec       q    Type
REMARK                         _______ _______ _______ _____ _____    ______ ____
ROOT
ATOM      1  N   LIG    1       -1.081  -4.660  -0.230  0.00  0.00    -0.390 N 
ATOM      2  C   LIG    1       -1.721  -5.725   0.558  0.00  0.00    +0.280 C 
ATOM      3  C   LIG    1       -1.109  -7.069   0.160  0.00  0.00    +0.310 C 
ATOM      4  N   LIG    1       -1.137  -7.217  -1.293  0.00  0.00    -0.720 N 
ATOM      5  H   LIG    1       -1.025  -8.102  -1.673  0.00  0.00    +0.430 HD
ATOM      6  C   LIG    1       -1.310  -6.179  -2.120  0.00  0.00    +0.500 C 
ATOM      7  O   LIG    1       -1.298  -6.381  -3.316  0.00  0.00    -0.490 OA
ATOM      8  C   LIG    1       -1.516  -4.775  -1.628  0.00  0.00    +0.320 C 
ATOM      9  H   LIG    1       -0.078  -4.758  -0.179  0.00  0.00    +0.430 HD
ENDROOT
BRANCH   1  10
ATOM     10  C   LIG    1       -1.476  -3.349   0.302  0.00  0.00    +0.300 C 
BRANCH  10  14
ATOM     11  C   LIG    1       -0.018   1.461   0.010  0.00  0.00    +0.320 C 
ATOM     12  N   LIG    1        0.002  -0.004   0.002  0.00  0.00    -0.620 N 
ATOM     13  C   LIG    1       -1.198  -0.849   0.003  0.00  0.00    +0.310 C 
ATOM     14  C   LIG    1       -0.718  -2.248  -0.442  0.00  0.00    -0.020 C 
ATOM     15  C   LIG    1        0.770  -2.219  -0.024  0.00  0.00    +0.060 C 
ATOM     16  C   LIG    1        1.122  -0.747  -0.013  0.00  0.00    +0.520 C 
ATOM     17  O   LIG    1        2.251  -0.303  -0.011  0.00  0.00    -0.510 OA
ENDBRANCH  10  14
ENDBRANCH   1  10
TORSDOF 2
ENDMDL
MODEL       27
REMARK  Name = ZINC000005197896
REMARK                            x       y       z     vdW  Elec       q    Type
REMARK                         _______ _______ _______ _____ _____    ______ ____
ROOT
ATOM      1  C   LIG    1       -3.825  -4.761  -0.516  0.00  0.00    +0.280 C 
ENDROOT
BRANCH   1   2
ATOM      2  N   LIG    1       -3.776  -6.204  -0.764  0.00  0.00    -0.700 N 
ATOM      3  H   LIG    1       -2.922  -6.644  -0.903  0.00  0.00    +0.410 HD
ATOM      4  C   LIG    1       -4.917  -6.920  -0.800  0.00  0.00    +0.500 C 
ATOM      5  O   LIG    1       -5.984  -6.371  -0.627  0.00  0.00    -0.530 OA
BRANCH   4   6
ATOM      6  C   LIG    1       -4.866  -8.405  -1.055  0.00  0.00    +0.290 C 
BRANCH   6   7
ATOM      7  N   LIG    1       -6.230  -8.950  -1.045  0.00  0.00    -0.370 N 
ATOM      8  C   LIG    1       -6.174 -10.412  -1.174  0.00  0.00    +0.330 C 
ATOM      9  C   LIG    1       -6.991  -8.388  -2.170  0.00  0.00    +0.330 C 
ATOM     10  H   LIG    1       -6.684  -8.706  -0.177  0.00  0.00    +0.430 HD
ENDBRANCH   6   7
ENDBRANCH   4   6
ENDBRANCH   1   2
BRANCH   1  11
ATOM     11  C   LIG    1       -2.404  -4.193  -0.527  0.00  0.00    +0.270 C 
BRANCH  11  13
ATOM     12  C   LIG    1       -1.312  -2.034  -0.243  0.00  0.00    +0.520 C 
ATOM     13  N   LIG    1       -2.453  -2.750  -0.279  0.00  0.00    -0.740 N 
ATOM     14  H   LIG    1       -3.306  -2.311  -0.140  0.00  0.00    +0.400 HD
ATOM     15  O   LIG    1       -0.245  -2.583  -0.416  0.00  0.00    -0.510 OA
BRANCH  12  16
ATOM     16  C   LIG    1       -1.362  -0.549   0.012  0.00  0.00    +0.210 C 
BRANCH  16  18
ATOM     17  C   LIG    1       -0.018   1.465   0.010  0.00  0.00    +0.200 C 
ATOM     18  N   LIG    1        0.002  -0.004   0.002  0.00  0.00    -0.530 NA
ATOM     19  C   LIG    1        0.786  -0.526   1.129  0.00  0.00    +0.190 C 
ENDBRANCH  16  18
ENDBRANCH  12  16
ENDBRANCH  11  13
ENDBRANCH   1  11
TORSDOF 7
ENDMDL
MODEL       28
REMARK  Name = ZINC000016052637
REMARK                            x       y       z     vdW  Elec       q    Type
REMARK                         _______ _______ _______ _____ _____    ______ ____
ROOT
ATOM      1  N   LIG    1        0.711  -0.489   1.189  0.00  0.00    -0.630 N 
ATOM      2  H   LIG    1        1.077   0.142   1.827  0.00  0.00    +0.430 HD
ATOM      3  C   LIG    1        0.857  -1.841   1.398  0.00  0.00    +0.470 C 
ATOM      4  N   LIG    1        1.454  -2.373   2.405  0.00  0.00    -0.630 N 
ATOM      5  C   LIG    1        1.579  -3.824   2.485  0.00  0.00    +0.270 C 
ATOM      6  C   LIG    1        0.827  -4.486   1.354  0.00  0.00    +0.290 C 
ATOM      7  O   LIG    1        1.416  -5.503   0.623  0.00  0.00    -0.300 OA
ATOM      8  C   LIG    1        2.816  -5.668   0.589  0.00  0.00    +0.140 C 
ATOM      9  C   LIG    1        3.419  -5.505   1.973  0.00  0.00    +0.150 C 
ATOM     10  C   LIG    1        3.045  -4.189   2.581  0.00  0.00    +0.180 C 
ATOM     11  H   LIG    1        1.819  -1.812   3.107  0.00  0.00    +0.440 HD
ATOM     12  S   LIG    1        0.244  -3.108   0.325  0.00  0.00    +0.040 S 
ENDROOT
BRANCH   1  14
ATOM     13  C   LIG    1       -0.019   1.526   0.010  0.00  0.00    +0.070 C 
ATOM     14  C   LIG    1        0.002  -0.004   0.002  0.00  0.00    +0.290 C 
ENDBRANCH   1  14
BRANCH   9  15
ATOM     15  O   LIG    1        4.842  -5.594   1.877  0.00  0.00    -0.550 OA
ATOM     16  H   LIG    1        5.160  -6.435   1.521  0.00  0.00    +0.400 HD
ENDBRANCH   9  15
BRANCH  10  17
ATOM     17  O   LIG    1        3.413  -4.207   3.962  0.00  0.00    -0.550 OA
ATOM     18  H   LIG    1        4.357  -4.344   4.115  0.00  0.00    +0.410 HD
ENDBRANCH  10  17
BRANCH   8  19
ATOM     19  C   LIG    1        3.144  -7.066   0.061  0.00  0.00    +0.220 C 
BRANCH  19  20
ATOM     20  O   LIG    1        2.714  -7.176  -1.298  0.00  0.00    -0.560 OA
ATOM     21  H   LIG    1        2.891  -8.038  -1.698  0.00  0.00    +0.400 HD
ENDBRANCH  19  20
ENDBRANCH   8  19
TORSDOF 5
ENDMDL
MODEL       29
REMARK  Name = ZINC000106263724
REMARK                            x       y       z     vdW  Elec       q    Type
REMARK                         _______ _______ _______ _____ _____    ______ ____
ROOT
ATOM      1  O   LIG    1        0.002  -0.004   0.002  0.00  0.00    -0.530 OA
ATOM      2  C   LIG    1       -0.014   1.209   0.009  0.00  0.00    +0.530 C 
ATOM      3  N   LIG    1       -1.195   1.841   0.029  0.00  0.00    -0.710 N 
ATOM      4  H   LIG    1       -2.004   1.307  -0.005  0.00  0.00    +0.420 HD
ATOM      5  C   LIG    1       -1.325   3.293   0.100  0.00  0.00    +0.300 C 
ATOM      6  C   LIG    1       -0.004   3.969  -0.277  0.00  0.00    +0.220 C 
ATOM      7  N   LIG    1        1.081   3.326   0.472  0.00  0.00    -0.540 NA
ATOM      8  C   LIG    1        2.333   4.088   0.414  0.00  0.00    +0.220 C 
ATOM      9  C   LIG    1        3.379   3.389   1.289  0.00  0.00    +0.270 C 
ATOM     10  N   LIG    1        3.585   2.014   0.818  0.00  0.00    -0.370 N 
ATOM     11  C   LIG    1        2.322   1.264   0.885  0.00  0.00    +0.310 C 
ATOM     12  H   LIG    1        4.275   1.561   1.399  0.00  0.00    +0.440 HD
ATOM     13  C   LIG    1        1.288   1.952   0.000  0.00  0.00    +0.130 C 
ENDROOT
BRANCH  10  14
ATOM     14  C   LIG    1        4.061   2.041  -0.572  0.00  0.00    +0.170 C 
BRANCH  14  15
ATOM     15  C   LIG    1        4.277   0.609  -1.065  0.00  0.00    +0.210 C 
BRANCH  15  16
ATOM     16  O   LIG    1        5.332   0.002  -0.316  0.00  0.00    -0.550 OA
ATOM     17  H   LIG    1        5.524  -0.910  -0.576  0.00  0.00    +0.400 HD
ENDBRANCH  15  16
ENDBRANCH  14  15
BRANCH  14  18
ATOM     18  C   LIG    1        5.382   2.810  -0.644  0.00  0.00    +0.220 C 
BRANCH  18  19
ATOM     19  O   LIG    1        6.386   2.102   0.085  0.00  0.00    -0.550 OA
ATOM     20  H   LIG    1        7.252   2.532   0.082  0.00  0.00    +0.400 HD
ENDBRANCH  18  19
ENDBRANCH  14  18
ENDBRANCH  10  14
TORSDOF 5
ENDMDL
MODEL       30
REMARK  Name = ZINC000027977679
REMARK                            x       y       z     vdW  Elec       q    Type
REMARK                         _______ _______ _______ _____ _____    ______ ____
ROOT
ATOM      1  N   LIG    1        0.690  -0.478  -1.207  0.00  0.00    -0.390 N 
ATOM      2  C   LIG    1        0.601  -1.942  -1.276  0.00  0.00    +0.270 C 
ATOM      3  C   LIG    1        1.216  -2.428  -2.592  0.00  0.00    +0.330 C 
ATOM      4  N   LIG    1        2.585  -1.898  -2.691  0.00  0.00    -0.630 N 
ATOM      5  C   LIG    1        2.788  -0.457  -2.471  0.00  0.00    +0.320 C 
ATOM      6  C   LIG    1        3.624  -2.708  -2.975  0.00  0.00    +0.510 C 
ATOM      7  O   LIG    1        3.437  -3.893  -3.153  0.00  0.00    -0.470 OA
ATOM      8  C   LIG    1        2.098  -0.066  -1.159  0.00  0.00    +0.260 C 
ATOM      9  H   LIG    1        0.250  -0.076  -2.021  0.00  0.00    +0.420 HD
ENDROOT
BRANCH   1  11
ATOM     10  C   LIG    1       -0.019   1.526   0.010  0.00  0.00    +0.080 C 
ATOM     11  C   LIG    1        0.002  -0.004   0.002  0.00  0.00    +0.250 C 
ENDBRANCH   1  11
BRANCH   6  12
ATOM     12  C   LIG    1        5.017  -2.142  -3.070  0.00  0.00    +0.390 C 
BRANCH  12  13
ATOM     13  N   LIG    1        5.960  -3.217  -3.387  0.00  0.00    -0.320 N 
ATOM     14  C   LIG    1        6.826  -3.244  -4.417  0.00  0.00    +0.410 A 
ATOM     15  N   LIG    1        7.477  -4.379  -4.332  0.00  0.00    -0.290 NA
ATOM     16  N   LIG    1        7.034  -5.016  -3.304  0.00  0.00    -0.060 NA
ATOM     17  N   LIG    1        6.121  -4.315  -2.727  0.00  0.00    -0.070 NA
ENDBRANCH  12  13
ENDBRANCH   6  12
TORSDOF 3
ENDMDL
MODEL       31
REMARK  Name = ZINC000064219141
REMARK                            x       y       z     vdW  Elec       q    Type
REMARK                         _______ _______ _______ _____ _____    ______ ____
ROOT
ATOM      1  C   LIG    1       -1.136  -2.159   0.001  0.00  0.00    +0.230 C 
ATOM      2  C   LIG    1       -1.146  -2.662  -1.444  0.00  0.00    +0.360 C 
ATOM      3  O   LIG    1       -2.353  -2.243  -2.085  0.00  0.00    -0.360 OA
ATOM      4  C   LIG    1       -3.542  -2.750  -1.477  0.00  0.00    +0.170 C 
ATOM      5  C   LIG    1       -3.629  -2.250  -0.033  0.00  0.00    +0.130 C 
ATOM      6  C   LIG    1       -2.374  -2.691   0.729  0.00  0.00    +0.200 C 
ENDROOT
BRANCH   1   9
ATOM      7  C   LIG    1       -0.617   1.489   1.041  0.00  0.00    +0.110 C 
ATOM      8  C   LIG    1       -0.596  -0.018   1.032  0.00  0.00    +0.520 C 
ATOM      9  N   LIG    1       -1.156  -0.694   0.009  0.00  0.00    -0.720 N 
ATOM     10  H   LIG    1       -1.572  -0.210  -0.722  0.00  0.00    +0.410 HD
ATOM     11  O   LIG    1       -0.076  -0.622   1.946  0.00  0.00    -0.510 OA
ENDBRANCH   1   9
BRANCH   2  12
ATOM     12  N   LIG    1        0.009  -2.109  -2.164  0.00  0.00    -0.620 N 
ATOM     13  H   LIG    1       -0.043  -1.101  -2.159  0.00  0.00    +0.440 HD
ATOM     14  H   LIG    1        0.002  -2.441  -3.117  0.00  0.00    +0.450 HD
ATOM     15  H   LIG    1        0.861  -2.404  -1.711  0.00  0.00    +0.450 HD
ENDBRANCH   2  12
BRANCH   5  16
ATOM     16  O   LIG    1       -3.716  -0.824  -0.026  0.00  0.00    -0.540 OA
ATOM     17  H   LIG    1       -4.486  -0.474  -0.495  0.00  0.00    +0.380 HD
ENDBRANCH   5  16
BRANCH   6  18
ATOM     18  O   LIG    1       -2.413  -2.168   2.058  0.00  0.00    -0.520 OA
ATOM     19  H   LIG    1       -3.177  -2.460   2.574  0.00  0.00    +0.390 HD
ENDBRANCH   6  18
BRANCH   4  20
ATOM     20  C   LIG    1       -4.763  -2.263  -2.260  0.00  0.00    +0.220 C 
BRANCH  20  21
ATOM     21  O   LIG    1       -4.742  -2.824  -3.574  0.00  0.00    -0.570 OA
ATOM     22  H   LIG    1       -5.488  -2.557  -4.128  0.00  0.00    +0.400 HD
ENDBRANCH  20  21
ENDBRANCH   4  20
TORSDOF 6
ENDMDL
MODEL       32
REMARK  Name = ZINC000019321188
REMARK                            x       y       z     vdW  Elec       q    Type
REMARK                         _______ _______ _______ _____ _____    ______ ____
ROOT
ATOM      1  C   LIG    1       -0.019   1.526   0.010  0.00  0.00    +0.160 C 
ATOM      2  C   LIG    1        0.002  -0.004   0.002  0.00  0.00    +0.200 C 
ATOM      3  C   LIG    1        0.740  -0.513  -1.256  0.00  0.00    +0.120 C 
ATOM      4  C   LIG    1        1.532  -1.725  -0.718  0.00  0.00    +0.230 C 
ATOM      5  C   LIG    1        2.750  -1.982  -1.538  0.00  0.00    +0.010 A 
ATOM      6  N   LIG    1        2.913  -2.523  -2.702  0.00  0.00    -0.250 NA
ATOM      7  O   LIG    1        4.099  -2.530  -2.972  0.00  0.00    +0.310 OA
ATOM      8  N   LIG    1        4.814  -2.044  -2.114  0.00  0.00    -0.030 N 
ATOM      9  O   LIG    1        6.224  -1.937  -2.177  0.00  0.00    -0.410 OA
ATOM     10  C   LIG    1        4.073  -1.644  -1.138  0.00  0.00    +0.020 A 
ATOM     11  C   LIG    1        4.380  -0.959   0.162  0.00  0.00    +0.260 C 
ATOM     12  C   LIG    1        3.098  -0.266   0.634  0.00  0.00    +0.130 C 
ATOM     13  C   LIG    1        1.928  -1.248   0.699  0.00  0.00    +0.230 C 
ATOM     14  N   LIG    1        0.742  -0.501   1.172  0.00  0.00    -0.320 N 
ATOM     15  O   LIG    1        0.430  -0.327   2.337  0.00  0.00    +0.440 OA
ENDROOT
BRANCH  13  16
ATOM     16  N   LIG    1        2.241  -2.386   1.573  0.00  0.00    -0.760 NA
ATOM     17  H   LIG    1        1.490  -3.060   1.573  0.00  0.00    +0.390 HD
ATOM     18  H   LIG    1        2.449  -2.076   2.510  0.00  0.00    +0.390 HD
ENDBRANCH  13  16
BRANCH   4  19
ATOM     19  O   LIG    1        0.701  -2.886  -0.650  0.00  0.00    -0.520 OA
ATOM     20  H   LIG    1        0.352  -3.170  -1.505  0.00  0.00    +0.420 HD
ENDBRANCH   4  19
TORSDOF 2
ENDMDL
MODEL       33
REMARK  Name = ZINC000019321186
REMARK                            x       y       z     vdW  Elec       q    Type
REMARK                         _______ _______ _______ _____ _____    ______ ____
ROOT
ATOM      1  C   LIG    1       -0.019   1.526   0.010  0.00  0.00    +0.160 C 
ATOM      2  C   LIG    1        0.002  -0.004   0.002  0.00  0.00    +0.200 C 
ATOM      3  C   LIG    1        0.750  -0.518  -1.261  0.00  0.00    +0.120 C 
ATOM      4  C   LIG    1        2.159  -0.772  -0.708  0.00  0.00    +0.230 C 
ATOM      5  C   LIG    1        2.967  -1.822  -1.381  0.00  0.00    +0.020 A 
ATOM      6  N   LIG    1        3.191  -2.152  -2.603  0.00  0.00    -0.250 NA
ATOM      7  O   LIG    1        3.955  -3.100  -2.622  0.00  0.00    +0.300 OA
ATOM      8  N   LIG    1        4.303  -3.488  -1.523  0.00  0.00    -0.040 N 
ATOM      9  O   LIG    1        5.189  -4.565  -1.274  0.00  0.00    -0.420 OA
ATOM     10  C   LIG    1        3.734  -2.759  -0.619  0.00  0.00    +0.050 A 
ATOM     11  C   LIG    1        3.788  -2.815   0.881  0.00  0.00    +0.240 C 
ATOM     12  C   LIG    1        3.047  -1.599   1.478  0.00  0.00    +0.150 C 
ATOM     13  C   LIG    1        1.791  -1.375   0.679  0.00  0.00    +0.200 C 
ATOM     14  N   LIG    1        0.748  -0.507   1.183  0.00  0.00    -0.310 N 
ATOM     15  O   LIG    1        0.526  -0.240   2.350  0.00  0.00    +0.460 OA
ENDROOT
BRANCH  13  16
ATOM     16  N   LIG    1        1.180  -2.688   0.432  0.00  0.00    -0.770 NA
ATOM     17  H   LIG    1        0.358  -2.601  -0.147  0.00  0.00    +0.370 HD
ATOM     18  H   LIG    1        0.962  -3.154   1.300  0.00  0.00    +0.390 HD
ENDBRANCH  13  16
BRANCH   4  19
ATOM     19  O   LIG    1        2.888   0.450  -0.571  0.00  0.00    -0.520 OA
ATOM     20  H   LIG    1        3.026   0.921  -1.404  0.00  0.00    +0.420 HD
ENDBRANCH   4  19
TORSDOF 2
ENDMDL
MODEL       34
REMARK  Name = ZINC000019321183
REMARK                            x       y       z     vdW  Elec       q    Type
REMARK                         _______ _______ _______ _____ _____    ______ ____
ROOT
ATOM      1  C   LIG    1       -0.019   1.526   0.010  0.00  0.00    +0.170 C 
ATOM      2  C   LIG    1        0.002  -0.004   0.002  0.00  0.00    +0.220 C 
ATOM      3  C   LIG    1        0.750  -0.518  -1.261  0.00  0.00    +0.140 C 
ATOM      4  C   LIG    1        1.505  -1.732  -0.704  0.00  0.00    +0.220 C 
ATOM      5  C   LIG    1        2.777  -2.102  -1.380  0.00  0.00    +0.010 A 
ATOM      6  N   LIG    1        3.161  -2.196  -2.603  0.00  0.00    -0.240 NA
ATOM      7  O   LIG    1        4.323  -2.559  -2.624  0.00  0.00    +0.310 OA
ATOM      8  N   LIG    1        4.816  -2.734  -1.526  0.00  0.00    -0.030 N 
ATOM      9  O   LIG    1        6.144  -3.161  -1.279  0.00  0.00    -0.400 OA
ATOM     10  C   LIG    1        3.933  -2.468  -0.620  0.00  0.00    +0.000 A 
ATOM     11  C   LIG    1        4.010  -2.489   0.880  0.00  0.00    +0.220 C 
ATOM     12  C   LIG    1        2.609  -2.243   1.480  0.00  0.00    +0.130 C 
ATOM     13  C   LIG    1        1.937  -1.161   0.678  0.00  0.00    +0.200 C 
ATOM     14  N   LIG    1        0.748  -0.507   1.183  0.00  0.00    -0.270 N 
ATOM     15  O   LIG    1        0.423  -0.391   2.351  0.00  0.00    +0.470 OA
ENDROOT
BRANCH  13  16
ATOM     16  N   LIG    1        2.932  -0.112   0.422  0.00  0.00    -0.820 NA
ATOM     17  H   LIG    1        3.682  -0.459  -0.158  0.00  0.00    +0.390 HD
ATOM     18  H   LIG    1        3.289   0.266   1.287  0.00  0.00    +0.390 HD
ENDBRANCH  13  16
BRANCH   4  19
ATOM     19  O   LIG    1        0.637  -2.858  -0.558  0.00  0.00    -0.520 OA
ATOM     20  H   LIG    1        0.246  -3.164  -1.388  0.00  0.00    +0.420 HD
ENDBRANCH   4  19
TORSDOF 2
ENDMDL
MODEL       35
REMARK  Name = ZINC000019320485
REMARK                            x       y       z     vdW  Elec       q    Type
REMARK                         _______ _______ _______ _____ _____    ______ ____
ROOT
ATOM      1  C   LIG    1       -0.019   1.526   0.010  0.00  0.00    +0.170 C 
ATOM      2  C   LIG    1        0.002  -0.004   0.002  0.00  0.00    +0.190 C 
ATOM      3  C   LIG    1        0.740  -0.512  -1.255  0.00  0.00    +0.130 C 
ATOM      4  C   LIG    1        1.530  -1.741  -0.725  0.00  0.00    +0.240 C 
ATOM      5  C   LIG    1        0.577  -2.896  -0.624  0.00  0.00    -0.020 A 
ATOM      6  N   LIG    1       -0.147  -3.494  -1.512  0.00  0.00    -0.250 NA
ATOM      7  O   LIG    1       -0.776  -4.384  -0.970  0.00  0.00    +0.310 OA
ATOM      8  N   LIG    1       -0.576  -4.487   0.227  0.00  0.00    -0.020 N 
ATOM      9  O   LIG    1       -1.183  -5.433   1.088  0.00  0.00    -0.400 OA
ATOM     10  C   LIG    1        0.282  -3.589   0.581  0.00  0.00    +0.000 A 
ATOM     11  C   LIG    1        0.909  -3.255   1.903  0.00  0.00    +0.210 C 
ATOM     12  C   LIG    1        2.184  -2.449   1.622  0.00  0.00    +0.120 C 
ATOM     13  C   LIG    1        1.898  -1.274   0.702  0.00  0.00    +0.230 C 
ATOM     14  N   LIG    1        0.742  -0.501   1.173  0.00  0.00    -0.280 N 
ATOM     15  O   LIG    1        0.445  -0.304   2.337  0.00  0.00    +0.460 OA
ENDROOT
BRANCH  13  16
ATOM     16  N   LIG    1        3.074  -0.395   0.645  0.00  0.00    -0.790 NA
ATOM     17  H   LIG    1        3.859  -0.869   0.223  0.00  0.00    +0.410 HD
ATOM     18  H   LIG    1        3.312  -0.049   1.562  0.00  0.00    +0.380 HD
ENDBRANCH  13  16
BRANCH   4  19
ATOM     19  O   LIG    1        2.680  -2.037  -1.519  0.00  0.00    -0.490 OA
ATOM     20  H   LIG    1        2.477  -2.262  -2.437  0.00  0.00    +0.420 HD
ENDBRANCH   4  19
TORSDOF 2
ENDMDL
MODEL       36
REMARK  Name = ZINC000046087353
REMARK                            x       y       z     vdW  Elec       q    Type
REMARK                         _______ _______ _______ _____ _____    ______ ____
ROOT
ATOM      1  C   LIG    1        0.105   1.840   0.105  0.00  0.00    +0.320 C 
ATOM      2  N   LIG    1        0.262   0.435  -0.293  0.00  0.00    -0.380 N 
ATOM      3  C   LIG    1        1.141   0.355  -1.466  0.00  0.00    +0.250 C 
ATOM      4  C   LIG    1        2.486   1.011  -1.146  0.00  0.00    +0.060 C 
ATOM      5  C   LIG    1        3.137   0.280   0.032  0.00  0.00    +0.020 C 
ATOM      6  C   LIG    1        2.180   0.305   1.228  0.00  0.00    +0.090 C 
ATOM      7  C   LIG    1        0.848  -0.324   0.819  0.00  0.00    +0.290 C 
ATOM      8  H   LIG    1       -0.641   0.049  -0.523  0.00  0.00    +0.430 HD
ENDROOT
BRANCH   6   9
ATOM      9  O   LIG    1        1.964   1.657   1.637  0.00  0.00    -0.570 OA
ATOM     10  H   LIG    1        2.763   2.201   1.635  0.00  0.00    +0.400 HD
ENDBRANCH   6   9
BRANCH   6  11
ATOM     11  C   LIG    1        2.788  -0.489   2.385  0.00  0.00    +0.240 C 
BRANCH  11  12
ATOM     12  N   LIG    1        4.144   0.006   2.660  0.00  0.00    -0.510 NA
ATOM     13  C   LIG    1        4.197   1.474   2.572  0.00  0.00    +0.170 C 
ATOM     14  C   LIG    1        5.526   1.953   3.160  0.00  0.00    +0.280 C 
ATOM     15  N   LIG    1        6.633   1.206   2.569  0.00  0.00    -0.720 N 
ATOM     16  H   LIG    1        7.528   1.572   2.639  0.00  0.00    +0.410 HD
ATOM     17  C   LIG    1        6.467   0.041   1.935  0.00  0.00    +0.520 C 
ATOM     18  O   LIG    1        7.445  -0.528   1.499  0.00  0.00    -0.540 OA
ATOM     19  C   LIG    1        5.119  -0.593   1.738  0.00  0.00    +0.220 C 
ENDBRANCH  11  12
ENDBRANCH   6  11
TORSDOF 3
ENDMDL
MODEL       37
REMARK  Name = ZINC000046087355
REMARK                            x       y       z     vdW  Elec       q    Type
REMARK                         _______ _______ _______ _____ _____    ______ ____
ROOT
ATOM      1  C   LIG    1       -0.409   1.478   0.290  0.00  0.00    +0.310 C 
ATOM      2  N   LIG    1       -0.175   0.035   0.147  0.00  0.00    -0.380 N 
ATOM      3  C   LIG    1        0.652  -0.210  -1.041  0.00  0.00    +0.250 C 
ATOM      4  C   LIG    1        0.830  -1.716  -1.241  0.00  0.00    +0.060 C 
ATOM      5  C   LIG    1        1.516  -2.312  -0.008  0.00  0.00    +0.030 C 
ATOM      6  C   LIG    1        0.682  -1.986   1.235  0.00  0.00    +0.120 C 
ATOM      7  C   LIG    1        0.511  -0.469   1.342  0.00  0.00    +0.310 C 
ATOM      8  H   LIG    1       -1.060  -0.439   0.043  0.00  0.00    +0.430 HD
ENDROOT
BRANCH   6   9
ATOM      9  O   LIG    1       -0.601  -2.606   1.125  0.00  0.00    -0.560 OA
ATOM     10  H   LIG    1       -0.564  -3.559   0.965  0.00  0.00    +0.400 HD
ENDBRANCH   6   9
BRANCH   6  11
ATOM     11  C   LIG    1        1.398  -2.510   2.482  0.00  0.00    +0.190 C 
BRANCH  11  12
ATOM     12  N   LIG    1        0.679  -2.064   3.682  0.00  0.00    -0.530 NA
ATOM     13  C   LIG    1        1.453  -2.355   4.899  0.00  0.00    +0.180 C 
ATOM     14  C   LIG    1        0.822  -1.607   6.075  0.00  0.00    +0.280 C 
ATOM     15  N   LIG    1       -0.615  -1.865   6.118  0.00  0.00    -0.720 N 
ATOM     16  H   LIG    1       -1.094  -1.683   6.942  0.00  0.00    +0.410 HD
ATOM     17  C   LIG    1       -1.300  -2.340   5.072  0.00  0.00    +0.520 C 
ATOM     18  O   LIG    1       -2.497  -2.496   5.185  0.00  0.00    -0.540 OA
ATOM     19  C   LIG    1       -0.648  -2.689   3.764  0.00  0.00    +0.240 C 
ENDBRANCH  11  12
ENDBRANCH   6  11
TORSDOF 3
ENDMDL
MODEL       38
REMARK  Name = ZINC000046091037
REMARK                            x       y       z     vdW  Elec       q    Type
REMARK                         _______ _______ _______ _____ _____    ______ ____
ROOT
ATOM      1  C   LIG    1       -2.432  -2.813   0.010  0.00  0.00    +0.310 C 
ENDROOT
BRANCH   1   8
ATOM      2  N   LIG    1       -0.016   1.344   0.009  0.00  0.00    -0.850 N 
ATOM      3  H   LIG    1       -0.863   1.817   0.016  0.00  0.00    +0.410 HD
ATOM      4  H   LIG    1        0.817   1.840   0.004  0.00  0.00    +0.430 HD
ATOM      5  C   LIG    1        0.002  -0.004   0.002  0.00  0.00    +0.700 C 
ATOM      6  N   LIG    1       -1.156  -0.694   0.009  0.00  0.00    -0.680 N 
ATOM      7  H   LIG    1       -2.002  -0.220   0.020  0.00  0.00    +0.420 HD
ATOM      8  C   LIG    1       -1.137  -2.041   0.002  0.00  0.00    +0.510 C 
ATOM      9  O   LIG    1       -0.080  -2.633  -0.011  0.00  0.00    -0.450 OA
ATOM     10  O   LIG    1        1.063  -0.597  -0.011  0.00  0.00    -0.520 OA
ENDBRANCH   1   8
BRANCH   1  11
ATOM     11  N   LIG    1       -2.144  -4.253  -0.000  0.00  0.00    -0.370 N 
ATOM     12  C   LIG    1       -3.402  -5.001  -0.117  0.00  0.00    +0.270 C 
ATOM     13  C   LIG    1       -3.102  -6.499  -0.209  0.00  0.00    +0.070 C 
ATOM     14  C   LIG    1       -2.356  -6.944   1.052  0.00  0.00    +0.000 C 
ATOM     15  C   LIG    1       -1.084  -6.106   1.203  0.00  0.00    +0.080 C 
ATOM     16  C   LIG    1       -1.460  -4.623   1.244  0.00  0.00    +0.260 C 
ATOM     17  H   LIG    1       -1.551  -4.471  -0.787  0.00  0.00    +0.430 HD
BRANCH  14  18
ATOM     18  C   LIG    1       -1.984  -8.423   0.931  0.00  0.00    +0.190 C 
BRANCH  18  19
ATOM     19  O   LIG    1       -1.392  -8.867   2.154  0.00  0.00    -0.570 OA
ATOM     20  H   LIG    1       -1.130  -9.797   2.149  0.00  0.00    +0.390 HD
ENDBRANCH  18  19
ENDBRANCH  14  18
ENDBRANCH   1  11
TORSDOF 4
ENDMDL
MODEL       39
REMARK  Name = ZINC000019831212
REMARK                            x       y       z     vdW  Elec       q    Type
REMARK                         _______ _______ _______ _____ _____    ______ ____
ROOT
ATOM      1  C   LIG    1       -2.522  -2.866   0.011  0.00  0.00    +0.300 C 
ENDROOT
BRANCH   1   3
ATOM      2  C   LIG    1       -1.282  -0.769   0.010  0.00  0.00    +0.510 C 
ATOM      3  N   LIG    1       -1.264  -2.116   0.003  0.00  0.00    -0.710 N 
ATOM      4  H   LIG    1       -0.417  -2.590  -0.008  0.00  0.00    +0.420 HD
ATOM      5  O   LIG    1       -2.341  -0.176   0.024  0.00  0.00    -0.510 OA
BRANCH   2   9
ATOM      6  N   LIG    1       -0.016   1.344   0.009  0.00  0.00    -0.820 N 
ATOM      7  H   LIG    1       -0.863   1.817   0.016  0.00  0.00    +0.420 HD
ATOM      8  H   LIG    1        0.817   1.840   0.004  0.00  0.00    +0.420 HD
ATOM      9  C   LIG    1        0.002  -0.004   0.002  0.00  0.00    +0.510 C 
ATOM     10  O   LIG    1        1.061  -0.596  -0.011  0.00  0.00    -0.520 OA
ENDBRANCH   2   9
ENDBRANCH   1   3
BRANCH   1  11
ATOM     11  C   LIG    1       -2.222  -4.366  -0.000  0.00  0.00    +0.030 C 
BRANCH  11  12
ATOM     12  C   LIG    1       -3.537  -5.149   0.008  0.00  0.00    +0.280 C 
BRANCH  12  13
ATOM     13  N   LIG    1       -3.249  -6.590  -0.002  0.00  0.00    -0.390 N 
ATOM     14  C   LIG    1       -4.507  -7.340  -0.115  0.00  0.00    +0.240 C 
ATOM     15  C   LIG    1       -4.204  -8.841  -0.126  0.00  0.00    +0.260 C 
ATOM     16  O   LIG    1       -3.491  -9.187   1.065  0.00  0.00    -0.360 OA
ATOM     17  C   LIG    1       -2.268  -8.463   1.232  0.00  0.00    +0.260 C 
ATOM     18  C   LIG    1       -2.567  -6.962   1.245  0.00  0.00    +0.230 C 
ATOM     19  H   LIG    1       -2.655  -6.809  -0.788  0.00  0.00    +0.420 HD
ENDBRANCH  12  13
ENDBRANCH  11  12
ENDBRANCH   1  11
TORSDOF 5
ENDMDL
MODEL       40
REMARK  Name = ZINC000102190836
REMARK                            x       y       z     vdW  Elec       q    Type
REMARK                         _______ _______ _______ _____ _____    ______ ____
ROOT
ATOM      1  C   LIG    1       -1.558  -3.274  -0.011  0.00  0.00    +0.280 C 
ENDROOT
BRANCH   1   7
ATOM      2  N   LIG    1       -0.017   1.381   0.010  0.00  0.00    -0.800 N 
ATOM      3  H   LIG    1       -0.863   1.854   0.016  0.00  0.00    +0.440 HD
ATOM      4  H   LIG    1        0.817   1.877   0.004  0.00  0.00    +0.440 HD
ATOM      5  C   LIG    1        0.002  -0.004   0.002  0.00  0.00    +0.600 A 
ATOM      6  N   LIG    1       -1.052  -0.786   0.003  0.00  0.00    -0.510 N 
ATOM      7  C   LIG    1       -0.653  -2.069  -0.007  0.00  0.00    +0.010 A 
ATOM      8  C   LIG    1        0.691  -2.094  -0.014  0.00  0.00    +0.260 A 
ATOM      9  H   LIG    1       -1.974  -0.485   0.009  0.00  0.00    +0.460 HD
ATOM     10  N   LIG    1        1.116  -0.784  -0.013  0.00  0.00    -0.550 N 
ATOM     11  H   LIG    1        2.036  -0.477  -0.018  0.00  0.00    +0.460 HD
ENDBRANCH   1   7
BRANCH   1  12
ATOM     12  O   LIG    1       -0.958  -4.322   0.753  0.00  0.00    -0.500 OA
ATOM     13  H   LIG    1       -0.097  -4.610   0.418  0.00  0.00    +0.380 HD
ENDBRANCH   1  12
BRANCH   1  14
ATOM     14  C   LIG    1       -1.770  -3.749  -1.450  0.00  0.00    +0.160 C 
BRANCH  14  15
ATOM     15  O   LIG    1       -2.369  -2.700  -2.213  0.00  0.00    -0.550 OA
ATOM     16  H   LIG    1       -3.230  -2.413  -1.878  0.00  0.00    +0.380 HD
ENDBRANCH  14  15
BRANCH  14  17
ATOM     17  C   LIG    1       -2.688  -4.972  -1.453  0.00  0.00    +0.190 C 
BRANCH  17  18
ATOM     18  O   LIG    1       -2.088  -6.021  -0.689  0.00  0.00    -0.530 OA
ATOM     19  H   LIG    1       -1.228  -6.309  -1.024  0.00  0.00    +0.370 HD
ENDBRANCH  17  18
BRANCH  17  20
ATOM     20  C   LIG    1       -2.900  -5.447  -2.892  0.00  0.00    +0.150 C 
BRANCH  20  21
ATOM     21  O   LIG    1       -3.849  -6.516  -2.906  0.00  0.00    -0.560 OA
ATOM     22  H   LIG    1       -4.032  -6.867  -3.788  0.00  0.00    +0.390 HD
ENDBRANCH  20  21
ENDBRANCH  17  20
ENDBRANCH  14  17
ENDBRANCH   1  14
TORSDOF 8
ENDMDL
MODEL       41
REMARK  Name = ZINC000019831213
REMARK                            x       y       z     vdW  Elec       q    Type
REMARK                         _______ _______ _______ _____ _____    ______ ____
ROOT
ATOM      1  C   LIG    1        1.208  -4.284  -2.054  0.00  0.00    +0.290 C 
ENDROOT
BRANCH   1   3
ATOM      2  C   LIG    1        0.605  -2.159  -1.026  0.00  0.00    +0.510 C 
ATOM      3  N   LIG    1        1.188  -2.819  -2.046  0.00  0.00    -0.710 N 
ATOM      4  H   LIG    1        1.595  -2.325  -2.775  0.00  0.00    +0.420 HD
ATOM      5  O   LIG    1        0.097  -2.778  -0.115  0.00  0.00    -0.510 OA
BRANCH   2   9
ATOM      6  C   LIG    1       -0.018   1.461   0.010  0.00  0.00    +0.310 C 
ATOM      7  N   LIG    1        0.002  -0.004   0.002  0.00  0.00    -0.700 N 
ATOM      8  H   LIG    1       -0.404  -0.499   0.731  0.00  0.00    +0.420 HD
ATOM      9  C   LIG    1        0.585  -0.664  -1.018  0.00  0.00    +0.500 C 
ATOM     10  O   LIG    1        1.093  -0.046  -1.930  0.00  0.00    -0.520 OA
ENDBRANCH   2   9
ENDBRANCH   1   3
BRANCH   1  11
ATOM     11  C   LIG    1        1.924  -4.778  -3.313  0.00  0.00    +0.030 C 
BRANCH  11  12
ATOM     12  C   LIG    1        1.945  -6.307  -3.321  0.00  0.00    +0.280 C 
BRANCH  12  13
ATOM     13  N   LIG    1        2.633  -6.781  -4.530  0.00  0.00    -0.390 N 
ATOM     14  C   LIG    1        2.549  -8.246  -4.599  0.00  0.00    +0.240 C 
ATOM     15  C   LIG    1        3.266  -8.738  -5.859  0.00  0.00    +0.260 C 
ATOM     16  O   LIG    1        4.624  -8.290  -5.834  0.00  0.00    -0.360 OA
ATOM     17  C   LIG    1        4.758  -6.869  -5.743  0.00  0.00    +0.260 C 
ATOM     18  C   LIG    1        4.044  -6.374  -4.482  0.00  0.00    +0.230 C 
ATOM     19  H   LIG    1        2.194  -6.380  -5.346  0.00  0.00    +0.420 HD
ENDBRANCH  12  13
ENDBRANCH  11  12
ENDBRANCH   1  11
TORSDOF 5
ENDMDL
MODEL       42
REMARK  Name = ZINC000083872762
REMARK                            x       y       z     vdW  Elec       q    Type
REMARK                         _______ _______ _______ _____ _____    ______ ____
ROOT
ATOM      1  N   LIG    1       -2.806  -3.896   0.008  0.00  0.00    -0.690 N 
ATOM      2  H   LIG    1       -1.936  -4.325  -0.003  0.00  0.00    +0.420 HD
ATOM      3  C   LIG    1       -3.926  -4.646   0.015  0.00  0.00    +0.510 C 
ATOM      4  O   LIG    1       -5.014  -4.110   0.028  0.00  0.00    -0.520 OA
ENDROOT
BRANCH   3   5
ATOM      5  C   LIG    1       -3.827  -6.149   0.006  0.00  0.00    +0.150 C 
ATOM      6  C   LIG    1       -3.062  -6.618   1.246  0.00  0.00    +0.290 C 
ATOM      7  O   LIG    1       -3.019  -8.048   1.261  0.00  0.00    -0.350 OA
ATOM      8  C   LIG    1       -4.311  -8.661   1.248  0.00  0.00    +0.270 C 
ATOM      9  C   LIG    1       -5.079  -8.196   0.008  0.00  0.00    +0.260 C 
ATOM     10  N   LIG    1       -5.177  -6.730   0.016  0.00  0.00    -0.490 N 
ATOM     11  H   LIG    1       -5.683  -6.422  -0.801  0.00  0.00    +0.440 HD
ATOM     12  H   LIG    1       -5.665  -6.430   0.847  0.00  0.00    +0.430 HD
ENDBRANCH   3   5
BRANCH   1  13
ATOM     13  C   LIG    1       -2.902  -2.434   0.017  0.00  0.00    +0.380 C 
BRANCH  13  14
ATOM     14  C   LIG    1       -1.518  -1.840   0.007  0.00  0.00    +0.460 C 
ATOM     15  O   LIG    1       -0.550  -2.562  -0.006  0.00  0.00    -0.500 OA
BRANCH  14  16
ATOM     16  O   LIG    1       -1.360  -0.507   0.012  0.00  0.00    -0.350 OA
BRANCH  16  18
ATOM     17  C   LIG    1       -0.019   1.526   0.010  0.00  0.00    +0.070 C 
ATOM     18  C   LIG    1        0.002  -0.004   0.002  0.00  0.00    +0.220 C 
ENDBRANCH  16  18
ENDBRANCH  14  16
ENDBRANCH  13  14
ENDBRANCH   1  13
TORSDOF 5
ENDMDL
MODEL       43
REMARK  Name = ZINC000083872760
REMARK                            x       y       z     vdW  Elec       q    Type
REMARK                         _______ _______ _______ _____ _____    ______ ____
ROOT
ATOM      1  N   LIG    1       -2.806  -3.896   0.008  0.00  0.00    -0.690 N 
ATOM      2  H   LIG    1       -1.936  -4.325  -0.003  0.00  0.00    +0.420 HD
ATOM      3  C   LIG    1       -3.926  -4.646   0.015  0.00  0.00    +0.510 C 
ATOM      4  O   LIG    1       -5.014  -4.110   0.028  0.00  0.00    -0.520 OA
ENDROOT
BRANCH   3   5
ATOM      5  C   LIG    1       -3.827  -6.149   0.006  0.00  0.00    +0.150 C 
ATOM      6  C   LIG    1       -3.086  -6.605  -1.254  0.00  0.00    +0.290 C 
ATOM      7  O   LIG    1       -3.044  -8.034  -1.286  0.00  0.00    -0.350 OA
ATOM      8  C   LIG    1       -4.335  -8.647  -1.255  0.00  0.00    +0.270 C 
ATOM      9  C   LIG    1       -5.079  -8.196   0.005  0.00  0.00    +0.260 C 
ATOM     10  N   LIG    1       -5.177  -6.730   0.014  0.00  0.00    -0.490 N 
ATOM     11  H   LIG    1       -5.681  -6.421  -0.803  0.00  0.00    +0.430 HD
ATOM     12  H   LIG    1       -5.667  -6.431   0.844  0.00  0.00    +0.440 HD
ENDBRANCH   3   5
BRANCH   1  13
ATOM     13  C   LIG    1       -2.902  -2.434   0.017  0.00  0.00    +0.380 C 
BRANCH  13  14
ATOM     14  C   LIG    1       -1.518  -1.840   0.007  0.00  0.00    +0.460 C 
ATOM     15  O   LIG    1       -0.550  -2.562  -0.006  0.00  0.00    -0.500 OA
BRANCH  14  16
ATOM     16  O   LIG    1       -1.360  -0.507   0.012  0.00  0.00    -0.350 OA
BRANCH  16  18
ATOM     17  C   LIG    1       -0.019   1.526   0.010  0.00  0.00    +0.070 C 
ATOM     18  C   LIG    1        0.002  -0.004   0.002  0.00  0.00    +0.220 C 
ENDBRANCH  16  18
ENDBRANCH  14  16
ENDBRANCH  13  14
ENDBRANCH   1  13
TORSDOF 5
ENDMDL
MODEL       44
REMARK  Name = ZINC000091626154
REMARK                            x       y       z     vdW  Elec       q    Type
REMARK                         _______ _______ _______ _____ _____    ______ ____
ROOT
ATOM      1  N   LIG    1       -1.005  -2.216  -0.000  0.00  0.00    -0.370 N 
ATOM      2  C   LIG    1       -0.318  -2.584   1.244  0.00  0.00    +0.260 C 
ATOM      3  C   LIG    1        0.096  -4.058   1.183  0.00  0.00    +0.100 C 
ATOM      4  C   LIG    1       -1.148  -4.914   0.953  0.00  0.00    -0.090 C 
ATOM      5  C   LIG    1       -0.869  -6.422   0.974  0.00  0.00    +0.170 C 
ATOM      6  C   LIG    1       -1.135  -6.367   2.488  0.00  0.00    -0.020 C 
ATOM      7  C   LIG    1       -1.959  -4.458  -0.260  0.00  0.00    +0.110 C 
ATOM      8  C   LIG    1       -1.994  -5.120   2.215  0.00  0.00    +0.170 C 
ATOM      9  C   LIG    1       -2.262  -2.963  -0.119  0.00  0.00    +0.250 C 
ATOM     10  H   LIG    1       -0.411  -2.433  -0.787  0.00  0.00    +0.430 HD
ENDROOT
BRANCH   5  11
ATOM     11  O   LIG    1       -1.830  -7.192   0.249  0.00  0.00    -0.540 OA
ATOM     12  H   LIG    1       -1.659  -8.144   0.259  0.00  0.00    +0.390 HD
ENDBRANCH   5  11
BRANCH   8  13
ATOM     13  O   LIG    1       -3.366  -5.418   1.945  0.00  0.00    -0.540 OA
ATOM     14  H   LIG    1       -3.893  -5.595   2.736  0.00  0.00    +0.390 HD
ENDBRANCH   8  13
BRANCH   1  15
ATOM     15  C   LIG    1       -1.293  -0.775   0.010  0.00  0.00    +0.290 C 
BRANCH  15  19
ATOM     16  N   LIG    1       -0.016   1.344   0.009  0.00  0.00    -0.820 N 
ATOM     17  H   LIG    1       -0.863   1.817   0.016  0.00  0.00    +0.410 HD
ATOM     18  H   LIG    1        0.817   1.840   0.004  0.00  0.00    +0.420 HD
ATOM     19  C   LIG    1        0.002  -0.004   0.002  0.00  0.00    +0.510 C 
ATOM     20  O   LIG    1        1.060  -0.596  -0.011  0.00  0.00    -0.530 OA
ENDBRANCH  15  19
ENDBRANCH   1  15
TORSDOF 4
ENDMDL
MODEL       45
REMARK  Name = ZINC000034085615
REMARK                            x       y       z     vdW  Elec       q    Type
REMARK                         _______ _______ _______ _____ _____    ______ ____
ROOT
ATOM      1  C   LIG    1        0.001  -4.173  -0.023  0.00  0.00    +0.420 C 
ATOM      2  O   LIG    1       -0.855  -4.660  -1.078  0.00  0.00    -0.310 OA
ATOM      3  C   LIG    1       -1.233  -6.001  -0.726  0.00  0.00    +0.160 C 
ATOM      4  C   LIG    1       -1.169  -6.107   0.810  0.00  0.00    +0.190 C 
ATOM      5  C   LIG    1       -0.665  -4.715   1.268  0.00  0.00    +0.170 C 
ENDROOT
BRANCH   1   9
ATOM      6  C   LIG    1        0.002  -0.004   0.002  0.00  0.00    +0.510 A 
ATOM      7  N   LIG    1       -1.135  -0.687   0.004  0.00  0.00    -0.610 NA
ATOM      8  C   LIG    1       -1.129  -2.018  -0.004  0.00  0.00    +0.660 A 
ATOM      9  N   LIG    1        0.026  -2.708  -0.014  0.00  0.00    -0.550 N 
ATOM     10  C   LIG    1        1.220  -2.050  -0.016  0.00  0.00    +0.340 A 
ATOM     11  O   LIG    1       -2.189  -2.623  -0.003  0.00  0.00    -0.520 OA
ATOM     12  C   LIG    1        1.230  -0.697  -0.013  0.00  0.00    -0.100 A 
BRANCH   6  13
ATOM     13  N   LIG    1       -0.017   1.371   0.010  0.00  0.00    -0.800 N 
ATOM     14  H   LIG    1       -0.863   1.845   0.016  0.00  0.00    +0.420 HD
ATOM     15  H   LIG    1        0.817   1.868   0.004  0.00  0.00    +0.420 HD
ENDBRANCH   6  13
ENDBRANCH   1   9
BRANCH   5  16
ATOM     16  N   LIG    1        0.314  -4.843   2.356  0.00  0.00    -0.620 N 
ATOM     17  H   LIG    1       -0.123  -5.285   3.151  0.00  0.00    +0.450 HD
ATOM     18  H   LIG    1        0.645  -3.927   2.620  0.00  0.00    +0.440 HD
ATOM     19  H   LIG    1        1.092  -5.404   2.044  0.00  0.00    +0.440 HD
ENDBRANCH   5  16
BRANCH   4  20
ATOM     20  O   LIG    1       -0.246  -7.126   1.203  0.00  0.00    -0.570 OA
ATOM     21  H   LIG    1       -0.482  -8.011   0.893  0.00  0.00    +0.420 HD
ENDBRANCH   4  20
BRANCH   3  22
ATOM     22  C   LIG    1       -2.657  -6.285  -1.210  0.00  0.00    +0.210 C 
BRANCH  22  23
ATOM     23  O   LIG    1       -2.683  -6.284  -2.639  0.00  0.00    -0.560 OA
ATOM     24  H   LIG    1       -3.556  -6.457  -3.017  0.00  0.00    +0.390 HD
ENDBRANCH  22  23
ENDBRANCH   3  22
TORSDOF 6
ENDMDL
MODEL       46
REMARK  Name = ZINC000062533326
REMARK                            x       y       z     vdW  Elec       q    Type
REMARK                         _______ _______ _______ _____ _____    ______ ____
ROOT
ATOM      1  C   LIG    1       -1.845  -0.829   1.436  0.00  0.00    +0.060 C 
ENDROOT
BRANCH   1   2
ATOM      2  C   LIG    1       -1.293  -0.775   0.010  0.00  0.00    +0.200 C 
BRANCH   2   6
ATOM      3  N   LIG    1       -0.016   1.344   0.009  0.00  0.00    -0.850 N 
ATOM      4  H   LIG    1       -0.863   1.817   0.016  0.00  0.00    +0.400 HD
ATOM      5  H   LIG    1        0.817   1.840   0.004  0.00  0.00    +0.410 HD
ATOM      6  C   LIG    1        0.002  -0.004   0.002  0.00  0.00    +0.480 C 
ATOM      7  O   LIG    1        1.060  -0.596  -0.011  0.00  0.00    -0.530 OA
ENDBRANCH   2   6
BRANCH   2   8
ATOM      8  N   LIG    1       -1.052  -2.141  -0.473  0.00  0.00    -0.830 NA
ATOM      9  H   LIG    1       -0.386  -2.621   0.114  0.00  0.00    +0.360 HD
ATOM     10  H   LIG    1       -0.748  -2.136  -1.435  0.00  0.00    +0.360 HD
ENDBRANCH   2   8
ENDBRANCH   1   2
BRANCH   1  11
ATOM     11  C   LIG    1       -3.219  -1.502   1.425  0.00  0.00    +0.290 C 
BRANCH  11  12
ATOM     12  N   LIG    1       -3.750  -1.554   2.794  0.00  0.00    -0.380 N 
ATOM     13  C   LIG    1       -5.085  -2.099   2.781  0.00  0.00    +0.240 C 
ATOM     14  C   LIG    1       -5.979  -1.450   3.859  0.00  0.00    +0.050 C 
ATOM     15  C   LIG    1       -5.204  -1.238   5.178  0.00  0.00    +0.200 C 
ATOM     16  O   LIG    1       -4.373  -2.313   5.519  0.00  0.00    -0.350 OA
ATOM     17  C   LIG    1       -3.010  -2.154   5.053  0.00  0.00    +0.250 C 
ATOM     18  C   LIG    1       -2.913  -2.439   3.622  0.00  0.00    +0.230 C 
ATOM     19  H   LIG    1       -3.763  -0.626   3.191  0.00  0.00    +0.420 HD
ENDBRANCH  11  12
ENDBRANCH   1  11
TORSDOF 5
ENDMDL
MODEL       47
REMARK  Name = ZINC000062533326
REMARK                            x       y       z     vdW  Elec       q    Type
REMARK                         _______ _______ _______ _____ _____    ______ ____
ROOT
ATOM      1  C   LIG    1       -1.293  -0.775   0.010  0.00  0.00    +0.190 C 
ENDROOT
BRANCH   1   5
ATOM      2  N   LIG    1       -0.016   1.344   0.009  0.00  0.00    -0.820 N 
ATOM      3  H   LIG    1       -0.863   1.817   0.016  0.00  0.00    +0.410 HD
ATOM      4  H   LIG    1        0.817   1.840   0.004  0.00  0.00    +0.430 HD
ATOM      5  C   LIG    1        0.002  -0.004   0.002  0.00  0.00    +0.510 C 
ATOM      6  O   LIG    1        1.060  -0.596  -0.011  0.00  0.00    -0.520 OA
ENDBRANCH   1   5
BRANCH   1   7
ATOM      7  N   LIG    1       -1.052  -2.141  -0.473  0.00  0.00    -0.620 N 
ATOM      8  H   LIG    1       -0.687  -2.106  -1.413  0.00  0.00    +0.440 HD
ATOM      9  H   LIG    1       -1.919  -2.658  -0.468  0.00  0.00    +0.440 HD
ATOM     10  H   LIG    1       -0.384  -2.599   0.130  0.00  0.00    +0.440 HD
ENDBRANCH   1   7
BRANCH   1  11
ATOM     11  C   LIG    1       -1.845  -0.829   1.436  0.00  0.00    +0.030 C 
BRANCH  11  12
ATOM     12  C   LIG    1       -3.219  -1.502   1.425  0.00  0.00    +0.220 C 
BRANCH  12  13
ATOM     13  N   LIG    1       -3.750  -1.554   2.794  0.00  0.00    -0.540 NA
ATOM     14  C   LIG    1       -3.943  -0.195   3.338  0.00  0.00    +0.190 C 
ATOM     15  C   LIG    1       -5.032  -0.240   4.382  0.00  0.00    +0.010 C 
ATOM     16  C   LIG    1       -4.463  -0.496   5.786  0.00  0.00    +0.210 C 
ATOM     17  O   LIG    1       -3.418  -1.489   5.786  0.00  0.00    -0.390 OA
ATOM     18  C   LIG    1       -3.625  -2.625   4.983  0.00  0.00    +0.230 C 
ATOM     19  C   LIG    1       -2.971  -2.396   3.605  0.00  0.00    +0.150 C 
ENDBRANCH  12  13
ENDBRANCH  11  12
ENDBRANCH   1  11
TORSDOF 5
ENDMDL
MODEL       48
REMARK  Name = ZINC000089938932
REMARK                            x       y       z     vdW  Elec       q    Type
REMARK                         _______ _______ _______ _____ _____    ______ ____
ROOT
ATOM      1  C   LIG    1        2.208  -0.047   1.001  0.00  0.00    +0.250 C 
ENDROOT
BRANCH   1  10
ATOM      2  C   LIG    1       -0.003   1.512  -0.046  0.00  0.00    +0.020 C 
ATOM      3  C   LIG    1        0.002  -0.017   0.002  0.00  0.00    +0.190 C 
ATOM      4  C   LIG    1       -1.432  -0.527   0.160  0.00  0.00    +0.280 C 
ATOM      5  N   LIG    1       -1.999  -0.015   1.414  0.00  0.00    -0.390 N 
ATOM      6  C   LIG    1       -1.198  -0.495   2.548  0.00  0.00    +0.280 C 
ATOM      7  C   LIG    1        0.239   0.015   2.410  0.00  0.00    +0.210 C 
ATOM      8  C   LIG    1       -3.382  -0.490   1.557  0.00  0.00    +0.310 C 
ATOM      9  H   LIG    1       -1.990   0.994   1.400  0.00  0.00    +0.420 HD
ATOM     10  N   LIG    1        0.809  -0.470   1.144  0.00  0.00    -0.520 NA
ENDBRANCH   1  10
BRANCH   1  11
ATOM     11  C   LIG    1        3.050  -0.734   2.046  0.00  0.00    +0.520 C 
ATOM     12  N   LIG    1        4.349  -0.406   2.187  0.00  0.00    -0.690 N 
ATOM     13  H   LIG    1        4.743   0.273   1.616  0.00  0.00    +0.410 HD
ATOM     14  C   LIG    1        5.101  -1.020   3.122  0.00  0.00    +0.700 C 
ATOM     15  O   LIG    1        4.608  -1.869   3.837  0.00  0.00    -0.530 OA
ATOM     16  N   LIG    1        6.401  -0.691   3.263  0.00  0.00    -0.850 N 
ATOM     17  H   LIG    1        6.942  -1.133   3.936  0.00  0.00    +0.430 HD
ATOM     18  H   LIG    1        6.795  -0.013   2.692  0.00  0.00    +0.400 HD
ATOM     19  O   LIG    1        2.557  -1.581   2.760  0.00  0.00    -0.450 OA
ENDBRANCH   1  11
TORSDOF 2
ENDMDL
MODEL       49
REMARK  Name = ZINC000223155296
REMARK                            x       y       z     vdW  Elec       q    Type
REMARK                         _______ _______ _______ _____ _____    ______ ____
ROOT
ATOM      1  C   LIG    1        0.232  -4.492   2.380  0.00  0.00    +0.510 C 
ATOM      2  N   LIG    1        0.468  -5.816   2.461  0.00  0.00    -0.690 N 
ATOM      3  H   LIG    1        0.235  -6.397   1.720  0.00  0.00    +0.410 HD
ATOM      4  O   LIG    1        0.524  -3.765   3.306  0.00  0.00    -0.530 OA
ENDROOT
BRANCH   2   5
ATOM      5  C   LIG    1        1.077  -6.379   3.669  0.00  0.00    +0.260 C 
ATOM      6  C   LIG    1        2.602  -6.267   3.574  0.00  0.00    +0.010 C 
ATOM      7  C   LIG    1        3.232  -6.927   4.803  0.00  0.00    +0.230 C 
ATOM      8  O   LIG    1        2.809  -8.290   4.879  0.00  0.00    -0.370 OA
ATOM      9  C   LIG    1        1.396  -8.455   5.017  0.00  0.00    +0.210 C 
ATOM     10  C   LIG    1        0.690  -7.855   3.798  0.00  0.00    +0.130 C 
BRANCH  10  11
ATOM     11  O   LIG    1       -0.725  -7.969   3.962  0.00  0.00    -0.560 OA
ATOM     12  H   LIG    1       -1.038  -8.879   4.053  0.00  0.00    +0.390 HD
ENDBRANCH  10  11
ENDBRANCH   2   5
BRANCH   1  13
ATOM     13  C   LIG    1       -0.394  -3.913   1.137  0.00  0.00    +0.280 C 
BRANCH  13  14
ATOM     14  N   LIG    1       -0.545  -2.460   1.296  0.00  0.00    -0.370 N 
ATOM     15  C   LIG    1        0.782  -1.837   1.389  0.00  0.00    +0.330 C 
ATOM     16  H   LIG    1       -1.067  -2.266   2.138  0.00  0.00    +0.440 HD
BRANCH  14  17
ATOM     17  C   LIG    1       -1.264  -1.913   0.138  0.00  0.00    +0.300 C 
BRANCH  17  18
ATOM     18  C   LIG    1       -2.698  -2.444   0.130  0.00  0.00    +0.190 C 
BRANCH  18  20
ATOM     19  C   LIG    1       -4.743  -2.417   1.381  0.00  0.00    +0.240 C 
ATOM     20  O   LIG    1       -3.386  -1.975   1.291  0.00  0.00    -0.400 OA
ENDBRANCH  18  20
ENDBRANCH  17  18
ENDBRANCH  14  17
ENDBRANCH  13  14
ENDBRANCH   1  13
TORSDOF 7
ENDMDL
MODEL       50
REMARK  Name = ZINC000223155296
REMARK                            x       y       z     vdW  Elec       q    Type
REMARK                         _______ _______ _______ _____ _____    ______ ____
ROOT
ATOM      1  C   LIG    1        0.497  -4.445   2.413  0.00  0.00    +0.500 C 
ATOM      2  N   LIG    1        0.836  -5.739   2.575  0.00  0.00    -0.690 N 
ATOM      3  H   LIG    1        0.586  -6.393   1.904  0.00  0.00    +0.410 HD
ATOM      4  O   LIG    1        0.808  -3.627   3.253  0.00  0.00    -0.530 OA
ENDROOT
BRANCH   2   5
ATOM      5  C   LIG    1        1.580  -6.158   3.765  0.00  0.00    +0.260 C 
ATOM      6  C   LIG    1        3.080  -5.952   3.531  0.00  0.00    -0.000 C 
ATOM      7  C   LIG    1        3.854  -6.465   4.747  0.00  0.00    +0.230 C 
ATOM      8  O   LIG    1        3.540  -7.842   4.965  0.00  0.00    -0.370 OA
ATOM      9  C   LIG    1        2.159  -8.089   5.236  0.00  0.00    +0.210 C 
ATOM     10  C   LIG    1        1.314  -7.641   4.040  0.00  0.00    +0.140 C 
BRANCH  10  11
ATOM     11  O   LIG    1       -0.070  -7.836   4.334  0.00  0.00    -0.560 OA
ATOM     12  H   LIG    1       -0.307  -8.755   4.521  0.00  0.00    +0.390 HD
ENDBRANCH  10  11
ENDBRANCH   2   5
BRANCH   1  13
ATOM     13  C   LIG    1       -0.269  -4.014   1.189  0.00  0.00    +0.290 C 
BRANCH  13  14
ATOM     14  N   LIG    1       -0.514  -2.567   1.248  0.00  0.00    -0.370 N 
ATOM     15  C   LIG    1       -1.395  -2.265   2.384  0.00  0.00    +0.320 C 
ATOM     16  H   LIG    1        0.363  -2.082   1.366  0.00  0.00    +0.440 HD
BRANCH  14  17
ATOM     17  C   LIG    1       -1.154  -2.126   0.002  0.00  0.00    +0.290 C 
BRANCH  17  18
ATOM     18  C   LIG    1       -1.295  -0.603   0.011  0.00  0.00    +0.210 C 
BRANCH  18  20
ATOM     19  C   LIG    1       -0.017   1.425   0.010  0.00  0.00    +0.240 C 
ATOM     20  O   LIG    1        0.002  -0.004   0.002  0.00  0.00    -0.400 OA
ENDBRANCH  18  20
ENDBRANCH  17  18
ENDBRANCH  14  17
ENDBRANCH  13  14
ENDBRANCH   1  13
TORSDOF 7
ENDMDL
MODEL       51
REMARK  Name = ZINC000034924897
REMARK                            x       y       z     vdW  Elec       q    Type
REMARK                         _______ _______ _______ _____ _____    ______ ____
ROOT
ATOM      1  C   LIG    1       -0.720   2.985   1.224  0.00  0.00    +0.090 A 
ATOM      2  N   LIG    1        0.187   3.763   1.740  0.00  0.00    -0.330 NA
ATOM      3  O   LIG    1       -0.117   4.927   1.586  0.00  0.00    +0.130 OA
ATOM      4  C   LIG    1       -1.288   5.005   0.934  0.00  0.00    +0.190 A 
ATOM      5  N   LIG    1       -1.673   3.767   0.697  0.00  0.00    -0.410 NA
ENDROOT
BRANCH   4   6
ATOM      6  C   LIG    1       -2.006   6.244   0.550  0.00  0.00    +0.620 C 
ATOM      7  N   LIG    1       -1.484   7.448   0.857  0.00  0.00    -0.590 N 
ATOM      8  C   LIG    1       -0.214   7.677   1.562  0.00  0.00    +0.260 C 
ATOM      9  C   LIG    1       -0.015   9.204   1.664  0.00  0.00    +0.070 C 
ATOM     10  C   LIG    1       -0.903   9.748   0.514  0.00  0.00    +0.170 C 
ATOM     11  C   LIG    1       -2.089   8.754   0.537  0.00  0.00    +0.260 C 
ATOM     12  O   LIG    1       -3.064   6.174  -0.042  0.00  0.00    -0.460 OA
BRANCH  10  13
ATOM     13  O   LIG    1       -1.342  11.079   0.791  0.00  0.00    -0.550 OA
ATOM     14  H   LIG    1       -1.900  11.461   0.100  0.00  0.00    +0.390 HD
ENDBRANCH  10  13
ENDBRANCH   4   6
BRANCH   1  15
ATOM     15  C   LIG    1       -0.699   1.479   1.216  0.00  0.00    +0.450 C 
BRANCH  15  16
ATOM     16  N   LIG    1       -0.012   1.005   0.008  0.00  0.00    -0.630 N 
ATOM     17  H   LIG    1       -0.500   1.339  -0.810  0.00  0.00    +0.440 HD
ATOM     18  H   LIG    1        0.935   1.354   0.000  0.00  0.00    +0.440 HD
ATOM     19  H   LIG    1        0.002  -0.004   0.002  0.00  0.00    +0.450 HD
ENDBRANCH  15  16
ENDBRANCH   1  15
TORSDOF 4
ENDMDL
MODEL       52
REMARK  Name = ZINC000005613046
REMARK                            x       y       z     vdW  Elec       q    Type
REMARK                         _______ _______ _______ _____ _____    ______ ____
ROOT
ATOM      1  N   LIG    1        0.002  -0.004   0.002  0.00  0.00    -0.460 N 
ATOM      2  H   LIG    1       -0.467  -0.492  -0.693  0.00  0.00    +0.440 HD
ATOM      3  C   LIG    1        0.686  -0.688   0.980  0.00  0.00    +0.460 C 
ATOM      4  N   LIG    1        0.785  -2.004   1.081  0.00  0.00    -0.610 N 
ATOM      5  C   LIG    1        1.628  -2.463   2.132  0.00  0.00    +0.230 C 
ATOM      6  C   LIG    1        1.575  -3.832   2.782  0.00  0.00    -0.260 C 
ATOM      7  S   LIG    1        2.813  -3.588   4.131  0.00  0.00    +2.410 S 
ATOM      8  C   LIG    1        2.660  -1.757   4.234  0.00  0.00    -0.240 C 
ATOM      9  O   LIG    1        4.106  -3.931   3.652  0.00  0.00    -0.890 OA
ATOM     10  O   LIG    1        2.324  -4.171   5.331  0.00  0.00    -0.890 OA
ATOM     11  C   LIG    1        1.446  -1.467   3.337  0.00  0.00    +0.060 C 
ATOM     12  H   LIG    1        0.318  -2.609   0.484  0.00  0.00    +0.440 HD
ATOM     13  S   LIG    1        1.601   0.048   2.328  0.00  0.00    +0.110 S 
ENDROOT
BRANCH   1  14
ATOM     14  N   LIG    1       -0.016   1.362   0.009  0.00  0.00    -0.590 N 
ATOM     15  H   LIG    1       -0.555   1.720  -0.765  0.00  0.00    +0.400 HD
ATOM     16  H   LIG    1        0.920   1.736   0.003  0.00  0.00    +0.380 HD
ENDBRANCH   1  14
TORSDOF 1
ENDMDL
MODEL       53
REMARK  Name = ZINC000098089014
REMARK                            x       y       z     vdW  Elec       q    Type
REMARK                         _______ _______ _______ _____ _____    ______ ____
ROOT
ATOM      1  C   LIG    1       -0.720   2.985   1.224  0.00  0.00    +0.090 A 
ATOM      2  N   LIG    1        0.187   3.763   1.740  0.00  0.00    -0.330 NA
ATOM      3  O   LIG    1       -0.117   4.927   1.586  0.00  0.00    +0.130 OA
ATOM      4  C   LIG    1       -1.288   5.005   0.934  0.00  0.00    +0.190 A 
ATOM      5  N   LIG    1       -1.673   3.767   0.697  0.00  0.00    -0.410 NA
ENDROOT
BRANCH   4   6
ATOM      6  C   LIG    1       -2.006   6.244   0.550  0.00  0.00    +0.620 C 
ATOM      7  N   LIG    1       -1.484   7.448   0.857  0.00  0.00    -0.590 N 
ATOM      8  C   LIG    1       -0.210   7.678   1.564  0.00  0.00    +0.270 C 
ATOM      9  C   LIG    1        0.233   9.098   1.131  0.00  0.00    +0.060 C 
ATOM     10  C   LIG    1       -1.127   9.840   1.060  0.00  0.00    +0.180 C 
ATOM     11  C   LIG    1       -2.087   8.750   0.538  0.00  0.00    +0.250 C 
ATOM     12  O   LIG    1       -3.064   6.174  -0.042  0.00  0.00    -0.460 OA
BRANCH  10  13
ATOM     13  O   LIG    1       -1.058  10.935   0.143  0.00  0.00    -0.550 OA
ATOM     14  H   LIG    1       -1.884  11.432   0.062  0.00  0.00    +0.390 HD
ENDBRANCH  10  13
ENDBRANCH   4   6
BRANCH   1  15
ATOM     15  C   LIG    1       -0.699   1.479   1.216  0.00  0.00    +0.450 C 
BRANCH  15  16
ATOM     16  N   LIG    1       -0.012   1.005   0.008  0.00  0.00    -0.630 N 
ATOM     17  H   LIG    1       -0.500   1.339  -0.810  0.00  0.00    +0.440 HD
ATOM     18  H   LIG    1        0.935   1.354   0.000  0.00  0.00    +0.440 HD
ATOM     19  H   LIG    1        0.002  -0.004   0.002  0.00  0.00    +0.450 HD
ENDBRANCH  15  16
ENDBRANCH   1  15
TORSDOF 4
ENDMDL
MODEL       54
REMARK  Name = ZINC000005613051
REMARK                            x       y       z     vdW  Elec       q    Type
REMARK                         _______ _______ _______ _____ _____    ______ ____
ROOT
ATOM      1  N   LIG    1        0.002  -0.004   0.002  0.00  0.00    -0.470 N 
ATOM      2  H   LIG    1       -0.467  -0.492  -0.693  0.00  0.00    +0.440 HD
ATOM      3  C   LIG    1        0.686  -0.688   0.980  0.00  0.00    +0.450 C 
ATOM      4  N   LIG    1        0.771  -1.967   1.063  0.00  0.00    -0.620 N 
ATOM      5  C   LIG    1        1.512  -2.571   2.153  0.00  0.00    +0.290 C 
ATOM      6  C   LIG    1        0.585  -3.517   2.948  0.00  0.00    -0.290 C 
ATOM      7  S   LIG    1        1.210  -3.370   4.669  0.00  0.00    +2.410 S 
ATOM      8  C   LIG    1        1.649  -1.592   4.503  0.00  0.00    -0.250 C 
ATOM      9  O   LIG    1        2.391  -4.146   4.821  0.00  0.00    -0.890 OA
ATOM     10  O   LIG    1        0.134  -3.517   5.586  0.00  0.00    -0.890 OA
ATOM     11  C   LIG    1        2.124  -1.502   3.062  0.00  0.00    +0.070 C 
ATOM     12  H   LIG    1        0.342  -2.527   0.398  0.00  0.00    +0.440 HD
ATOM     13  S   LIG    1        1.584   0.063   2.305  0.00  0.00    +0.130 S 
ENDROOT
BRANCH   1  14
ATOM     14  N   LIG    1       -0.016   1.362   0.009  0.00  0.00    -0.590 N 
ATOM     15  H   LIG    1       -0.555   1.720  -0.765  0.00  0.00    +0.400 HD
ATOM     16  H   LIG    1        0.920   1.736   0.003  0.00  0.00    +0.370 HD
ENDBRANCH   1  14
TORSDOF 1
ENDMDL
MODEL       55
REMARK  Name = ZINC000034650928
REMARK                            x       y       z     vdW  Elec       q    Type
REMARK                         _______ _______ _______ _____ _____    ______ ____
ROOT
ATOM      1  O   LIG    1        0.002  -0.004   0.002  0.00  0.00    -0.950 OA
ATOM      2  S   LIG    1       -0.017   1.417   0.010  0.00  0.00    +2.780 S 
ATOM      3  O   LIG    1        1.162   2.210   0.003  0.00  0.00    -0.950 OA
ENDROOT
BRANCH   2   4
ATOM      4  N   LIG    1       -0.900   1.880  -1.312  0.00  0.00    -1.020 NA
ATOM      5  C   LIG    1       -1.893   0.976  -1.913  0.00  0.00    +0.330 C 
ATOM      6  C   LIG    1       -3.212   1.740  -2.072  0.00  0.00    +0.260 C 
ATOM      7  N   LIG    1       -2.974   2.972  -2.835  0.00  0.00    -0.500 N 
ATOM      8  C   LIG    1       -2.088   3.865  -2.078  0.00  0.00    +0.260 C 
ATOM      9  H   LIG    1       -3.854   3.437  -3.003  0.00  0.00    +0.440 HD
ATOM     10  H   LIG    1       -2.543   2.741  -3.717  0.00  0.00    +0.430 HD
ATOM     11  C   LIG    1       -0.718   3.209  -1.916  0.00  0.00    +0.320 C 
ENDBRANCH   2   4
BRANCH   2  12
ATOM     12  N   LIG    1       -0.875   1.865   1.354  0.00  0.00    -1.010 NA
ATOM     13  C   LIG    1       -0.686   3.191   1.965  0.00  0.00    +0.270 C 
ATOM     14  C   LIG    1       -2.064   3.837   2.154  0.00  0.00    +0.200 C 
ATOM     15  O   LIG    1       -2.917   2.929   2.855  0.00  0.00    -0.370 OA
ATOM     16  C   LIG    1       -3.169   1.706   2.159  0.00  0.00    +0.200 C 
ATOM     17  C   LIG    1       -1.852   0.953   1.968  0.00  0.00    +0.270 C 
ENDBRANCH   2  12
TORSDOF 2
ENDMDL
MODEL       56
REMARK  Name = ZINC000019912530
REMARK                            x       y       z     vdW  Elec       q    Type
REMARK                         _______ _______ _______ _____ _____    ______ ____
ROOT
ATOM      1  N   LIG    1        2.251   4.009  -0.009  0.00  0.00    -0.630 N 
ATOM      2  C   LIG    1        3.569   3.361   0.072  0.00  0.00    +0.350 C 
ATOM      3  C   LIG    1        4.448   3.904  -1.059  0.00  0.00    +0.270 C 
ATOM      4  N   LIG    1        4.489   5.370  -0.985  0.00  0.00    -0.380 N 
ATOM      5  C   LIG    1        3.149   5.920  -1.228  0.00  0.00    +0.260 C 
ATOM      6  H   LIG    1        4.806   5.651  -0.070  0.00  0.00    +0.430 HD
ATOM      7  C   LIG    1        2.205   5.476  -0.111  0.00  0.00    +0.330 C 
ENDROOT
BRANCH   1  13
ATOM      8  O   LIG    1       -2.117   3.266  -1.248  0.00  0.00    -0.500 OA
ATOM      9  C   LIG    1       -1.117   2.918  -0.642  0.00  0.00    +0.580 A 
ATOM     10  N   LIG    1       -1.128   1.781   0.061  0.00  0.00    -0.300 NA
ATOM     11  N   LIG    1       -0.095   1.380   0.713  0.00  0.00    -0.060 NA
ATOM     12  C   LIG    1        1.028   2.076   0.718  0.00  0.00    +0.050 A 
ATOM     13  C   LIG    1        1.099   3.268   0.004  0.00  0.00    +0.470 A 
ATOM     14  N   LIG    1       -0.004   3.678  -0.689  0.00  0.00    -0.620 N 
ATOM     15  H   LIG    1        0.010   4.504  -1.198  0.00  0.00    +0.420 HD
ENDBRANCH   1  13
BRANCH   4  16
ATOM     16  C   LIG    1        5.416   5.884  -2.002  0.00  0.00    +0.270 C 
BRANCH  16  17
ATOM     17  C   LIG    1        5.555   7.400  -1.846  0.00  0.00    +0.210 C 
BRANCH  17  18
ATOM     18  O   LIG    1        6.169   7.695  -0.590  0.00  0.00    -0.580 OA
ATOM     19  H   LIG    1        6.289   8.640  -0.423  0.00  0.00    +0.410 HD
ENDBRANCH  17  18
ENDBRANCH  16  17
ENDBRANCH   4  16
TORSDOF 4
ENDMDL
MODEL       57
REMARK  Name = ZINC000064219138
REMARK                            x       y       z     vdW  Elec       q    Type
REMARK                         _______ _______ _______ _____ _____    ______ ____
ROOT
ATOM      1  C   LIG    1       -1.136  -2.159   0.001  0.00  0.00    +0.240 C 
ATOM      2  C   LIG    1       -1.020  -2.661  -1.440  0.00  0.00    +0.350 C 
ATOM      3  O   LIG    1       -2.166  -2.240  -2.183  0.00  0.00    -0.360 OA
ATOM      4  C   LIG    1       -3.405  -2.747  -1.682  0.00  0.00    +0.170 C 
ATOM      5  C   LIG    1       -3.616  -2.248  -0.250  0.00  0.00    +0.120 C 
ATOM      6  C   LIG    1       -2.433  -2.692   0.618  0.00  0.00    +0.210 C 
ENDROOT
BRANCH   1   9
ATOM      7  C   LIG    1       -0.018   1.503   0.010  0.00  0.00    +0.130 C 
ATOM      8  C   LIG    1        0.002  -0.004   0.002  0.00  0.00    +0.510 C 
ATOM      9  N   LIG    1       -1.156  -0.694   0.009  0.00  0.00    -0.720 N 
ATOM     10  H   LIG    1       -2.002  -0.220   0.020  0.00  0.00    +0.420 HD
ATOM     11  O   LIG    1        1.060  -0.596  -0.011  0.00  0.00    -0.550 OA
ENDBRANCH   1   9
BRANCH   2  12
ATOM     12  N   LIG    1        0.193  -2.107  -2.056  0.00  0.00    -0.620 N 
ATOM     13  H   LIG    1        0.141  -1.099  -2.054  0.00  0.00    +0.430 HD
ATOM     14  H   LIG    1        0.269  -2.438  -3.006  0.00  0.00    +0.440 HD
ATOM     15  H   LIG    1        1.002  -2.403  -1.531  0.00  0.00    +0.460 HD
ENDBRANCH   2  12
BRANCH   5  16
ATOM     16  O   LIG    1       -4.826  -2.800   0.274  0.00  0.00    -0.540 OA
ATOM     17  H   LIG    1       -5.617  -2.562  -0.230  0.00  0.00    +0.400 HD
ENDBRANCH   5  16
BRANCH   6  18
ATOM     18  O   LIG    1       -2.587  -2.170   1.939  0.00  0.00    -0.540 OA
ATOM     19  H   LIG    1       -3.393  -2.462   2.386  0.00  0.00    +0.410 HD
ENDBRANCH   6  18
BRANCH   4  20
ATOM     20  C   LIG    1       -4.552  -2.258  -2.568  0.00  0.00    +0.230 C 
BRANCH  20  21
ATOM     21  O   LIG    1       -4.417  -2.818  -3.875  0.00  0.00    -0.560 OA
ATOM     22  H   LIG    1       -5.112  -2.550  -4.492  0.00  0.00    +0.400 HD
ENDBRANCH  20  21
ENDBRANCH   4  20
TORSDOF 6
ENDMDL
MODEL       58
REMARK  Name = ZINC000089423242
REMARK                            x       y       z     vdW  Elec       q    Type
REMARK                         _______ _______ _______ _____ _____    ______ ____
ROOT
ATOM      1  N   LIG    1       -0.514  -2.567   1.248  0.00  0.00    -0.380 N 
ATOM      2  C   LIG    1       -0.266  -4.013   1.185  0.00  0.00    +0.260 C 
ATOM      3  C   LIG    1        0.504  -4.453   2.435  0.00  0.00    +0.330 C 
ATOM      4  N   LIG    1       -0.247  -4.016   3.623  0.00  0.00    -0.640 N 
ATOM      5  C   LIG    1       -0.679  -2.612   3.692  0.00  0.00    +0.320 C 
ATOM      6  C   LIG    1       -0.529  -4.879   4.620  0.00  0.00    +0.520 C 
ATOM      7  O   LIG    1       -0.164  -6.033   4.545  0.00  0.00    -0.480 OA
ATOM      8  C   LIG    1       -1.394  -2.261   2.383  0.00  0.00    +0.250 C 
ATOM      9  H   LIG    1        0.363  -2.081   1.365  0.00  0.00    +0.430 HD
ENDROOT
BRANCH   1  10
ATOM     10  C   LIG    1       -1.154  -2.126   0.002  0.00  0.00    +0.280 C 
BRANCH  10  11
ATOM     11  C   LIG    1       -1.295  -0.603   0.011  0.00  0.00    +0.200 C 
BRANCH  11  13
ATOM     12  C   LIG    1       -0.017   1.425   0.010  0.00  0.00    +0.240 C 
ATOM     13  O   LIG    1        0.002  -0.004   0.002  0.00  0.00    -0.400 OA
ENDBRANCH  11  13
ENDBRANCH  10  11
ENDBRANCH   1  10
BRANCH   6  14
ATOM     14  C   LIG    1       -1.299  -4.409   5.827  0.00  0.00    +0.220 C 
BRANCH  14  15
ATOM     15  O   LIG    1       -1.471  -5.498   6.736  0.00  0.00    -0.550 OA
ATOM     16  H   LIG    1       -1.959  -5.268   7.538  0.00  0.00    +0.400 HD
ENDBRANCH  14  15
ENDBRANCH   6  14
TORSDOF 5
ENDMDL
MODEL       59
REMARK  Name = ZINC000089938934
REMARK                            x       y       z     vdW  Elec       q    Type
REMARK                         _______ _______ _______ _____ _____    ______ ____
ROOT
ATOM      1  C   LIG    1        0.087   0.009   2.423  0.00  0.00    +0.240 C 
ENDROOT
BRANCH   1  10
ATOM      2  C   LIG    1        0.412   1.685   0.139  0.00  0.00    +0.080 C 
ATOM      3  C   LIG    1        0.168   0.180   0.008  0.00  0.00    +0.130 C 
ATOM      4  C   LIG    1        0.874  -0.345  -1.244  0.00  0.00    +0.280 C 
ATOM      5  N   LIG    1        0.657  -1.793  -1.359  0.00  0.00    -0.390 N 
ATOM      6  C   LIG    1        1.217  -2.468  -0.180  0.00  0.00    +0.280 C 
ATOM      7  C   LIG    1        0.514  -1.961   1.081  0.00  0.00    +0.210 C 
ATOM      8  C   LIG    1        1.320  -2.293  -2.570  0.00  0.00    +0.320 C 
ATOM      9  H   LIG    1       -0.333  -1.981  -1.415  0.00  0.00    +0.420 HD
ATOM     10  N   LIG    1        0.701  -0.508   1.192  0.00  0.00    -0.520 NA
ENDBRANCH   1  10
BRANCH   1  11
ATOM     11  C   LIG    1        0.824  -0.536   3.619  0.00  0.00    +0.520 C 
ATOM     12  N   LIG    1        0.365  -0.291   4.862  0.00  0.00    -0.690 N 
ATOM     13  H   LIG    1       -0.440   0.235   4.987  0.00  0.00    +0.410 HD
ATOM     14  C   LIG    1        1.024  -0.779   5.932  0.00  0.00    +0.700 C 
ATOM     15  O   LIG    1        2.032  -1.439   5.776  0.00  0.00    -0.530 OA
ATOM     16  N   LIG    1        0.564  -0.534   7.175  0.00  0.00    -0.850 N 
ATOM     17  H   LIG    1        1.039  -0.885   7.945  0.00  0.00    +0.430 HD
ATOM     18  H   LIG    1       -0.240  -0.008   7.300  0.00  0.00    +0.400 HD
ATOM     19  O   LIG    1        1.830  -1.194   3.463  0.00  0.00    -0.450 OA
ENDBRANCH   1  11
TORSDOF 2
ENDMDL
MODEL       60
REMARK  Name = ZINC000014137971
REMARK                            x       y       z     vdW  Elec       q    Type
REMARK                         _______ _______ _______ _____ _____    ______ ____
ROOT
ATOM      1  N   LIG    1       -2.115  -0.146  -1.229  0.00  0.00    -0.380 N 
ATOM      2  C   LIG    1       -3.530  -0.536  -1.170  0.00  0.00    +0.270 C 
ATOM      3  C   LIG    1       -4.250  -0.033  -2.425  0.00  0.00    +0.340 C 
ATOM      4  N   LIG    1       -3.532  -0.534  -3.607  0.00  0.00    -0.600 N 
ATOM      5  C   LIG    1       -2.076  -0.330  -3.672  0.00  0.00    +0.340 C 
ATOM      6  C   LIG    1       -1.460  -0.820  -2.357  0.00  0.00    +0.260 C 
ATOM      7  H   LIG    1       -2.048   0.853  -1.351  0.00  0.00    +0.430 HD
ENDROOT
BRANCH   4   8
ATOM      8  C   LIG    1       -4.209  -1.181  -4.634  0.00  0.00    +0.410 A 
ATOM      9  N   LIG    1       -5.490  -1.448  -4.502  0.00  0.00    -0.280 NA
ATOM     10  N   LIG    1       -6.185  -2.096  -5.522  0.00  0.00    -0.170 N 
ATOM     11  N   LIG    1       -7.511  -2.514  -5.692  0.00  0.00    -0.030 NA
ATOM     12  N   LIG    1       -7.586  -3.070  -6.854  0.00  0.00    -0.010 NA
ATOM     13  N   LIG    1       -6.444  -3.050  -7.445  0.00  0.00    -0.280 NA
ATOM     14  C   LIG    1       -5.540  -2.462  -6.673  0.00  0.00    +0.180 A 
ATOM     15  C   LIG    1       -4.170  -2.177  -6.815  0.00  0.00    +0.210 A 
ATOM     16  C   LIG    1       -3.518  -1.539  -5.806  0.00  0.00    +0.000 A 
ENDBRANCH   4   8
BRANCH   1  17
ATOM     17  C   LIG    1       -1.450  -0.531   0.023  0.00  0.00    +0.270 C 
BRANCH  17  18
ATOM     18  C   LIG    1       -0.011  -0.013   0.016  0.00  0.00    +0.210 C 
BRANCH  18  19
ATOM     19  O   LIG    1       -0.020   1.417   0.017  0.00  0.00    -0.580 OA
ATOM     20  H   LIG    1        0.861   1.815   0.013  0.00  0.00    +0.410 HD
ENDBRANCH  18  19
ENDBRANCH  17  18
ENDBRANCH   1  17
TORSDOF 4
ENDMDL
MODEL       61
REMARK  Name = ZINC000014141033
REMARK                            x       y       z     vdW  Elec       q    Type
REMARK                         _______ _______ _______ _____ _____    ______ ____
ROOT
ATOM      1  C   LIG    1       -1.285  -0.770  -0.003  0.00  0.00    +0.160 C 
ATOM      2  C   LIG    1       -1.870  -0.819  -1.418  0.00  0.00    +0.370 C 
ATOM      3  N   LIG    1       -3.063  -1.679  -1.400  0.00  0.00    -0.600 N 
ATOM      4  C   LIG    1       -2.947  -3.013  -0.791  0.00  0.00    +0.340 C 
ATOM      5  C   LIG    1       -2.311  -2.861   0.594  0.00  0.00    +0.280 C 
ATOM      6  N   LIG    1       -1.039  -2.138   0.471  0.00  0.00    -0.490 N 
ATOM      7  H   LIG    1       -0.585  -2.103   1.372  0.00  0.00    +0.440 HD
ATOM      8  H   LIG    1       -0.443  -2.618  -0.186  0.00  0.00    +0.440 HD
ENDROOT
BRANCH   3   9
ATOM      9  C   LIG    1       -4.267  -1.243  -1.943  0.00  0.00    +0.410 A 
ATOM     10  N   LIG    1       -4.373  -0.008  -2.382  0.00  0.00    -0.280 NA
ATOM     11  N   LIG    1       -5.572   0.445  -2.930  0.00  0.00    -0.170 N 
ATOM     12  N   LIG    1       -6.003   1.663  -3.471  0.00  0.00    -0.030 NA
ATOM     13  N   LIG    1       -7.232   1.504  -3.829  0.00  0.00    -0.010 NA
ATOM     14  N   LIG    1       -7.632   0.309  -3.572  0.00  0.00    -0.270 NA
ATOM     15  C   LIG    1       -6.652  -0.391  -3.017  0.00  0.00    +0.180 A 
ATOM     16  C   LIG    1       -6.539  -1.712  -2.549  0.00  0.00    +0.220 A 
ATOM     17  C   LIG    1       -5.356  -2.130  -2.023  0.00  0.00    +0.000 A 
ENDBRANCH   3   9
BRANCH   1  21
ATOM     18  N   LIG    1       -0.000   1.344  -0.026  0.00  0.00    -0.820 N 
ATOM     19  H   LIG    1       -0.845   1.821  -0.021  0.00  0.00    +0.420 HD
ATOM     20  H   LIG    1        0.835   1.837  -0.038  0.00  0.00    +0.430 HD
ATOM     21  C   LIG    1        0.013  -0.004  -0.022  0.00  0.00    +0.510 C 
ATOM     22  O   LIG    1        1.069  -0.600  -0.034  0.00  0.00    -0.520 OA
ENDBRANCH   1  21
TORSDOF 2
ENDMDL
MODEL       62
REMARK  Name = ZINC000014141031
REMARK                            x       y       z     vdW  Elec       q    Type
REMARK                         _______ _______ _______ _____ _____    ______ ____
ROOT
ATOM      1  C   LIG    1       -1.146  -0.706   0.266  0.00  0.00    +0.160 C 
ATOM      2  C   LIG    1       -1.790  -0.936   1.636  0.00  0.00    +0.370 C 
ATOM      3  N   LIG    1       -3.036  -1.694   1.444  0.00  0.00    -0.600 N 
ATOM      4  C   LIG    1       -2.985  -2.919   0.632  0.00  0.00    +0.340 C 
ATOM      5  C   LIG    1       -2.284  -2.595  -0.692  0.00  0.00    +0.280 C 
ATOM      6  N   LIG    1       -0.972  -1.995  -0.416  0.00  0.00    -0.490 N 
ATOM      7  H   LIG    1       -0.437  -2.615   0.173  0.00  0.00    +0.440 HD
ATOM      8  H   LIG    1       -0.480  -1.851  -1.285  0.00  0.00    +0.440 HD
ENDROOT
BRANCH   3   9
ATOM      9  C   LIG    1       -4.229  -1.264   2.014  0.00  0.00    +0.410 A 
ATOM     10  N   LIG    1       -4.271  -0.110   2.643  0.00  0.00    -0.280 NA
ATOM     11  N   LIG    1       -5.459   0.337   3.220  0.00  0.00    -0.180 N 
ATOM     12  N   LIG    1       -5.829   1.482   3.937  0.00  0.00    -0.030 NA
ATOM     13  N   LIG    1       -7.080   1.357   4.227  0.00  0.00    -0.010 NA
ATOM     14  N   LIG    1       -7.548   0.250   3.769  0.00  0.00    -0.270 NA
ATOM     15  C   LIG    1       -6.595  -0.422   3.138  0.00  0.00    +0.180 A 
ATOM     16  C   LIG    1       -6.551  -1.656   2.466  0.00  0.00    +0.220 A 
ATOM     17  C   LIG    1       -5.380  -2.066   1.908  0.00  0.00    +0.000 A 
ENDBRANCH   3   9
BRANCH   1  21
ATOM     18  N   LIG    1        0.275   1.279   0.667  0.00  0.00    -0.820 N 
ATOM     19  H   LIG    1       -0.535   1.812   0.706  0.00  0.00    +0.420 HD
ATOM     20  H   LIG    1        1.140   1.702   0.784  0.00  0.00    +0.430 HD
ATOM     21  C   LIG    1        0.198  -0.048   0.446  0.00  0.00    +0.510 C 
ATOM     22  O   LIG    1        1.211  -0.714   0.392  0.00  0.00    -0.520 OA
ENDBRANCH   1  21
TORSDOF 2
ENDMDL
MODEL       63
REMARK  Name = ZINC000019320721
REMARK                            x       y       z     vdW  Elec       q    Type
REMARK                         _______ _______ _______ _____ _____    ______ ____
ROOT
ATOM      1  O   LIG    1        1.966  -0.003  -1.406  0.00  0.00    -0.420 OA
ENDROOT
BRANCH   1   2
ATOM      2  C   LIG    1        0.630  -0.498  -1.303  0.00  0.00    +0.190 C 
BRANCH   2   3
ATOM      3  C   LIG    1        0.002  -0.004   0.002  0.00  0.00    +0.250 C 
BRANCH   3   4
ATOM      4  N   LIG    1        0.793  -0.489   1.141  0.00  0.00    -0.630 N 
ATOM      5  H   LIG    1        1.737  -0.140   1.068  0.00  0.00    +0.440 HD
ATOM      6  H   LIG    1        0.807  -1.498   1.135  0.00  0.00    +0.440 HD
ATOM      7  H   LIG    1        0.379  -0.163   2.001  0.00  0.00    +0.450 HD
ENDBRANCH   3   4
BRANCH   3   8
ATOM      8  N   LIG    1       -0.018   1.465   0.010  0.00  0.00    -0.820 NA
ATOM      9  H   LIG    1       -0.556   1.823  -0.764  0.00  0.00    +0.390 HD
ATOM     10  H   LIG    1        0.919   1.839   0.003  0.00  0.00    +0.370 HD
ENDBRANCH   3   8
BRANCH   3  11
ATOM     11  C   LIG    1       -1.429  -0.534   0.112  0.00  0.00    +0.230 C 
BRANCH  11  12
ATOM     12  O   LIG    1       -2.015  -0.072   1.331  0.00  0.00    -0.560 OA
ATOM     13  H   LIG    1       -2.925  -0.371   1.468  0.00  0.00    +0.410 HD
ENDBRANCH  11  12
ENDBRANCH   3  11
ENDBRANCH   2   3
ENDBRANCH   1   2
BRANCH   1  14
ATOM     14  C   LIG    1        2.647  -0.409  -2.595  0.00  0.00    +0.450 C 
BRANCH  14  15
ATOM     15  O   LIG    1        2.150   0.339  -3.707  0.00  0.00    -0.420 OA
BRANCH  15  16
ATOM     16  C   LIG    1        2.615   1.690  -3.752  0.00  0.00    +0.440 C 
BRANCH  16  17
ATOM     17  N   LIG    1        4.081   1.700  -3.842  0.00  0.00    -0.850 NA
ATOM     18  H   LIG    1        4.438   2.643  -3.811  0.00  0.00    +0.380 HD
ATOM     19  H   LIG    1        4.396   1.222  -4.673  0.00  0.00    +0.360 HD
ENDBRANCH  16  17
BRANCH  16  20
ATOM     20  N   LIG    1        2.194   2.393  -2.533  0.00  0.00    -0.820 NA
ATOM     21  H   LIG    1        2.624   1.988  -1.715  0.00  0.00    +0.350 HD
ATOM     22  H   LIG    1        1.189   2.400  -2.448  0.00  0.00    +0.340 HD
ENDBRANCH  16  20
BRANCH  16  23
ATOM     23  C   LIG    1        2.023   2.392  -4.976  0.00  0.00    +0.180 C 
BRANCH  23  24
ATOM     24  O   LIG    1        2.488   3.742  -5.021  0.00  0.00    -0.550 OA
ATOM     25  H   LIG    1        2.152   4.249  -5.774  0.00  0.00    +0.390 HD
ENDBRANCH  23  24
ENDBRANCH  16  23
ENDBRANCH  15  16
ENDBRANCH  14  15
ENDBRANCH   1  14
TORSDOF 13
ENDMDL
MODEL       64
REMARK  Name = ZINC000077010925
REMARK                            x       y       z     vdW  Elec       q    Type
REMARK                         _______ _______ _______ _____ _____    ______ ____
ROOT
ATOM      1  O   LIG    1       -0.038  -0.003  -0.028  0.00  0.00    -0.520 OA
ATOM      2  C   LIG    1       -0.014   1.209   0.009  0.00  0.00    +0.510 C 
ATOM      3  N   LIG    1       -1.168   1.905   0.042  0.00  0.00    -0.590 N 
ATOM      4  C   LIG    1       -1.168   3.374  -0.036  0.00  0.00    +0.250 C 
ATOM      5  C   LIG    1       -2.158   3.801  -1.126  0.00  0.00    +0.220 C 
ATOM      6  O   LIG    1       -3.422   3.177  -0.884  0.00  0.00    -0.370 OA
ATOM      7  C   LIG    1       -3.391   1.749  -0.944  0.00  0.00    +0.220 C 
ATOM      8  C   LIG    1       -2.465   1.218   0.150  0.00  0.00    +0.270 C 
ENDROOT
BRANCH   2   9
ATOM      9  C   LIG    1        1.305   1.936   0.011  0.00  0.00    +0.140 C 
ATOM     10  C   LIG    1        1.687   2.307  -1.425  0.00  0.00    +0.280 C 
ATOM     11  O   LIG    1        2.965   2.948  -1.422  0.00  0.00    -0.350 OA
ATOM     12  C   LIG    1        4.006   2.149  -0.853  0.00  0.00    +0.270 C 
ATOM     13  C   LIG    1        3.629   1.778   0.584  0.00  0.00    +0.250 C 
ATOM     14  N   LIG    1        2.343   1.067   0.583  0.00  0.00    -0.490 N 
ATOM     15  H   LIG    1        2.423   0.229   0.027  0.00  0.00    +0.440 HD
ATOM     16  H   LIG    1        2.094   0.822   1.529  0.00  0.00    +0.440 HD
ENDBRANCH   2   9
TORSDOF 1
ENDMDL
MODEL       65
REMARK  Name = ZINC000019912527
REMARK                            x       y       z     vdW  Elec       q    Type
REMARK                         _______ _______ _______ _____ _____    ______ ____
ROOT
ATOM      1  N   LIG    1       -2.490  -0.261   0.016  0.00  0.00    -0.305 N 
ATOM      2  C   LIG    1       -2.677   1.189  -0.143  0.00  0.00    +0.157 C 
ATOM      3  C   LIG    1       -3.722   1.427  -1.238  0.00  0.00    +0.150 C 
ATOM      4  N   LIG    1       -4.949   0.690  -0.910  0.00  0.00    +0.239 N 
ATOM      5  C   LIG    1       -4.684  -0.755  -0.923  0.00  0.00    +0.150 C 
ATOM      6  H   LIG    1       -5.269   0.963   0.007  0.00  0.00    +0.204 HD
ATOM      7  C   LIG    1       -3.686  -1.100   0.182  0.00  0.00    +0.157 C 
ENDROOT
BRANCH   1  10
ATOM      8  C   LIG    1       -1.094  -0.495   2.495  0.00  0.00    +0.071 C 
ATOM      9  C   LIG    1       -0.509  -0.954   1.184  0.00  0.00    +0.099 A 
ATOM     10  C   LIG    1       -1.237  -0.815   0.006  0.00  0.00    +0.126 A 
ATOM     11  N   LIG    1       -0.671  -1.243  -1.161  0.00  0.00    -0.292 N 
ATOM     12  H   LIG    1       -1.149  -1.161  -2.002  0.00  0.00    +0.172 HD
ATOM     13  C   LIG    1        0.565  -1.781  -1.123  0.00  0.00    +0.365 A 
ATOM     14  N   LIG    1        1.217  -1.890   0.040  0.00  0.00    -0.090 NA
ATOM     15  O   LIG    1        1.091  -2.170  -2.152  0.00  0.00    -0.243 OA
ATOM     16  N   LIG    1        0.699  -1.486   1.145  0.00  0.00    -0.146 NA
ENDBRANCH   1  10
BRANCH   4  17
ATOM     17  C   LIG    1       -5.987   1.002  -1.902  0.00  0.00    +0.159 C 
BRANCH  17  18
ATOM     18  C   LIG    1       -7.301   0.335  -1.493  0.00  0.00    +0.206 C 
BRANCH  18  19
ATOM     19  O   LIG    1       -7.765   0.906  -0.268  0.00  0.00    -0.390 OA
ATOM     20  H   LIG    1       -8.596   0.530   0.052  0.00  0.00    +0.210 HD
ENDBRANCH  18  19
ENDBRANCH  17  18
ENDBRANCH   4  17
TORSDOF 4
ENDMDL
MODEL       66
REMARK  Name = ZINC000034924895
REMARK                            x       y       z     vdW  Elec       q    Type
REMARK                         _______ _______ _______ _____ _____    ______ ____
ROOT
ATOM      1  C   LIG    1        0.359  -4.321   2.717  0.00  0.00    +0.313 A 
ATOM      2  N   LIG    1        0.647  -5.560   3.058  0.00  0.00    -0.183 NA
ATOM      3  C   LIG    1        1.217  -5.479   4.269  0.00  0.00    +0.217 A 
ATOM      4  N   LIG    1        1.250  -4.222   4.605  0.00  0.00    -0.055 NA
ATOM      5  O   LIG    1        0.768  -3.538   3.727  0.00  0.00    -0.328 OA
ENDROOT
BRANCH   1   8
ATOM      6  N   LIG    1       -0.515  -2.565   1.245  0.00  0.00    -0.305 N 
ATOM      7  H   LIG    1       -0.257  -1.913   1.914  0.00  0.00    +0.149 HD
ATOM      8  C   LIG    1       -0.287  -3.876   1.459  0.00  0.00    +0.302 C 
ATOM      9  O   LIG    1       -0.611  -4.694   0.621  0.00  0.00    -0.265 OA
BRANCH   6  10
ATOM     10  C   LIG    1       -1.154  -2.126   0.002  0.00  0.00    +0.132 C 
BRANCH  10  11
ATOM     11  C   LIG    1       -1.295  -0.603   0.011  0.00  0.00    +0.178 C 
BRANCH  11  13
ATOM     12  C   LIG    1       -0.017   1.425   0.010  0.00  0.00    +0.194 C 
ATOM     13  O   LIG    1        0.002  -0.004   0.002  0.00  0.00    -0.381 OA
ENDBRANCH  11  13
ENDBRANCH  10  11
ENDBRANCH   6  10
ENDBRANCH   1   8
BRANCH   3  14
ATOM     14  C   LIG    1        1.728  -6.633   5.093  0.00  0.00    +0.209 C 
BRANCH  14  15
ATOM     15  N   LIG    1        3.138  -6.881   4.766  0.00  0.00    +0.224 N 
ATOM     16  H   LIG    1        3.681  -6.056   4.970  0.00  0.00    +0.200 HD
ATOM     17  H   LIG    1        3.222  -7.104   3.785  0.00  0.00    +0.200 HD
ATOM     18  H   LIG    1        3.480  -7.654   5.317  0.00  0.00    +0.200 HD
ENDBRANCH  14  15
ENDBRANCH   3  14
TORSDOF 6
ENDMDL
MODEL       67
REMARK  Name = ZINC000252438250
REMARK                            x       y       z     vdW  Elec       q    Type
REMARK                         _______ _______ _______ _____ _____    ______ ____
ROOT
ATOM      1  C   LIG    1       -1.136  -2.159   0.001  0.00  0.00    +0.240 C 
ATOM      2  C   LIG    1       -1.146  -2.662  -1.444  0.00  0.00    +0.370 C 
ATOM      3  O   LIG    1       -2.353  -2.243  -2.085  0.00  0.00    -0.360 OA
ATOM      4  C   LIG    1       -3.542  -2.750  -1.477  0.00  0.00    +0.180 C 
ATOM      5  C   LIG    1       -3.629  -2.250  -0.033  0.00  0.00    +0.130 C 
ATOM      6  C   LIG    1       -2.374  -2.691   0.729  0.00  0.00    +0.200 C 
ENDROOT
BRANCH   1   9
ATOM      7  C   LIG    1       -0.670   1.488   1.069  0.00  0.00    +0.110 C 
ATOM      8  C   LIG    1       -0.649  -0.019   1.060  0.00  0.00    +0.520 C 
ATOM      9  N   LIG    1       -1.156  -0.694   0.009  0.00  0.00    -0.730 N 
ATOM     10  H   LIG    1       -1.534  -0.210  -0.742  0.00  0.00    +0.410 HD
ATOM     11  O   LIG    1       -0.177  -0.624   1.999  0.00  0.00    -0.520 OA
ENDBRANCH   1   9
BRANCH   2  12
ATOM     12  N   LIG    1        0.009  -2.109  -2.164  0.00  0.00    -0.630 N 
ATOM     13  H   LIG    1       -0.043  -1.101  -2.159  0.00  0.00    +0.430 HD
ATOM     14  H   LIG    1        0.002  -2.441  -3.117  0.00  0.00    +0.450 HD
ATOM     15  H   LIG    1        0.861  -2.404  -1.711  0.00  0.00    +0.450 HD
ENDBRANCH   2  12
BRANCH   5  16
ATOM     16  O   LIG    1       -3.716  -0.824  -0.026  0.00  0.00    -0.540 OA
ATOM     17  H   LIG    1       -4.486  -0.474  -0.495  0.00  0.00    +0.390 HD
ENDBRANCH   5  16
BRANCH   6  18
ATOM     18  O   LIG    1       -2.323  -4.119   0.781  0.00  0.00    -0.560 OA
ATOM     19  H   LIG    1       -3.082  -4.523   1.223  0.00  0.00    +0.400 HD
ENDBRANCH   6  18
BRANCH   4  20
ATOM     20  C   LIG    1       -4.763  -2.263  -2.260  0.00  0.00    +0.220 C 
BRANCH  20  21
ATOM     21  O   LIG    1       -4.742  -2.824  -3.574  0.00  0.00    -0.570 OA
ATOM     22  H   LIG    1       -5.488  -2.557  -4.128  0.00  0.00    +0.400 HD
ENDBRANCH  20  21
ENDBRANCH   4  20
TORSDOF 6
ENDMDL
MODEL       68
REMARK  Name = ZINC000013719785
REMARK                            x       y       z     vdW  Elec       q    Type
REMARK                         _______ _______ _______ _____ _____    ______ ____
ROOT
ATOM      1  N   LIG    1        1.441  -2.513  -2.672  0.00  0.00    -0.370 N 
ATOM      2  C   LIG    1        2.820  -2.012  -2.684  0.00  0.00    +0.270 C 
ATOM      3  C   LIG    1        3.475  -2.278  -1.326  0.00  0.00    +0.160 C 
ATOM      4  C   LIG    1        3.480  -3.785  -1.054  0.00  0.00    +0.120 C 
ATOM      5  C   LIG    1        2.043  -4.310  -1.118  0.00  0.00    +0.220 C 
ATOM      6  C   LIG    1        1.443  -3.969  -2.482  0.00  0.00    +0.200 C 
ATOM      7  H   LIG    1        0.995  -2.290  -3.550  0.00  0.00    +0.420 HD
ENDROOT
BRANCH   5   8
ATOM      8  O   LIG    1        1.265  -3.698  -0.087  0.00  0.00    -0.530 OA
ATOM      9  H   LIG    1        1.592  -3.870   0.807  0.00  0.00    +0.400 HD
ENDBRANCH   5   8
BRANCH   4  10
ATOM     10  O   LIG    1        4.024  -4.034   0.243  0.00  0.00    -0.550 OA
ATOM     11  H   LIG    1        4.932  -3.721   0.356  0.00  0.00    +0.400 HD
ENDBRANCH   4  10
BRANCH   3  12
ATOM     12  O   LIG    1        4.818  -1.790  -1.341  0.00  0.00    -0.550 OA
ATOM     13  H   LIG    1        5.294  -1.925  -0.510  0.00  0.00    +0.400 HD
ENDBRANCH   3  12
BRANCH   1  14
ATOM     14  C   LIG    1        0.700  -1.879  -1.574  0.00  0.00    +0.280 C 
BRANCH  14  15
ATOM     15  C   LIG    1        0.555  -0.382  -1.854  0.00  0.00    +0.010 C 
BRANCH  15  17
ATOM     16  C   LIG    1       -0.361   1.776  -0.991  0.00  0.00    +0.030 C 
ATOM     17  C   LIG    1       -0.216   0.279  -0.710  0.00  0.00    +0.020 C 
ENDBRANCH  15  17
ENDBRANCH  14  15
ENDBRANCH   1  14
BRANCH   6  18
ATOM     18  C   LIG    1        0.006  -4.491  -2.552  0.00  0.00    +0.230 C 
BRANCH  18  19
ATOM     19  O   LIG    1       -0.724  -4.031  -1.412  0.00  0.00    -0.540 OA
ATOM     20  H   LIG    1       -1.645  -4.324  -1.390  0.00  0.00    +0.400 HD
ENDBRANCH  18  19
ENDBRANCH   6  18
TORSDOF 8
ENDMDL
MODEL       69
REMARK  Name = ZINC000033961778
REMARK                            x       y       z     vdW  Elec       q    Type
REMARK                         _______ _______ _______ _____ _____    ______ ____
ROOT
ATOM      1  N   LIG    1       -2.111  -0.151  -1.299  0.00  0.00    -0.370 N 
ATOM      2  C   LIG    1       -1.513  -0.814  -2.465  0.00  0.00    +0.270 C 
ATOM      3  C   LIG    1       -2.218  -0.346  -3.740  0.00  0.00    +0.160 C 
ATOM      4  C   LIG    1       -3.705  -0.704  -3.654  0.00  0.00    +0.120 C 
ATOM      5  C   LIG    1       -4.301  -0.069  -2.394  0.00  0.00    +0.220 C 
ATOM      6  C   LIG    1       -3.518  -0.548  -1.170  0.00  0.00    +0.200 C 
ATOM      7  H   LIG    1       -2.054   0.849  -1.416  0.00  0.00    +0.450 HD
ENDROOT
BRANCH   5   8
ATOM      8  O   LIG    1       -4.215   1.355  -2.491  0.00  0.00    -0.550 OA
ATOM      9  H   LIG    1       -4.687   1.726  -3.249  0.00  0.00    +0.410 HD
ENDBRANCH   5   8
BRANCH   4  10
ATOM     10  O   LIG    1       -4.383  -0.206  -4.809  0.00  0.00    -0.550 OA
ATOM     11  H   LIG    1       -4.052  -0.563  -5.644  0.00  0.00    +0.400 HD
ENDBRANCH   4  10
BRANCH   3  12
ATOM     12  O   LIG    1       -2.074   1.069  -3.873  0.00  0.00    -0.550 OA
ATOM     13  H   LIG    1       -2.498   1.435  -4.661  0.00  0.00    +0.400 HD
ENDBRANCH   3  12
BRANCH   1  14
ATOM     14  C   LIG    1       -1.380  -0.543  -0.087  0.00  0.00    +0.270 C 
BRANCH  14  15
ATOM     15  C   LIG    1        0.055  -0.018  -0.164  0.00  0.00    +0.220 C 
BRANCH  15  16
ATOM     16  O   LIG    1        0.041   1.411  -0.151  0.00  0.00    -0.580 OA
ATOM     17  H   LIG    1        0.919   1.813  -0.197  0.00  0.00    +0.410 HD
ENDBRANCH  15  16
ENDBRANCH  14  15
ENDBRANCH   1  14
BRANCH   6  18
ATOM     18  C   LIG    1       -3.612  -2.072  -1.070  0.00  0.00    +0.210 C 
BRANCH  18  19
ATOM     19  O   LIG    1       -4.986  -2.461  -1.004  0.00  0.00    -0.550 OA
ATOM     20  H   LIG    1       -5.121  -3.416  -0.939  0.00  0.00    +0.410 HD
ENDBRANCH  18  19
ENDBRANCH   6  18
TORSDOF 8
ENDMDL
MODEL       70
REMARK  Name = ZINC000095464572
REMARK                            x       y       z     vdW  Elec       q    Type
REMARK                         _______ _______ _______ _____ _____    ______ ____
ROOT
ATOM      1  O   LIG    1        0.002  -0.004   0.002  0.00  0.00    -0.910 OA
ATOM      2  S   LIG    1       -0.017   1.417   0.010  0.00  0.00    +2.730 S 
ATOM      3  O   LIG    1        1.162   2.210   0.003  0.00  0.00    -0.900 OA
ENDROOT
BRANCH   2   4
ATOM      4  N   LIG    1       -0.875   1.865   1.354  0.00  0.00    -1.000 NA
ATOM      5  C   LIG    1       -0.685   3.190   1.964  0.00  0.00    +0.340 C 
ATOM      6  C   LIG    1       -2.061   3.837   2.156  0.00  0.00    +0.260 C 
ATOM      7  N   LIG    1       -2.923   2.933   2.927  0.00  0.00    -0.500 N 
ATOM      8  C   LIG    1       -3.168   1.703   2.162  0.00  0.00    +0.270 C 
ATOM      9  H   LIG    1       -3.803   3.389   3.117  0.00  0.00    +0.440 HD
ATOM     10  H   LIG    1       -2.471   2.700   3.799  0.00  0.00    +0.430 HD
ATOM     11  C   LIG    1       -1.852   0.953   1.967  0.00  0.00    +0.340 C 
ENDBRANCH   2   4
BRANCH   2  12
ATOM     12  C   LIG    1       -0.957   1.909  -1.397  0.00  0.00    -0.310 A 
ATOM     13  N   LIG    1       -2.260   1.997  -1.447  0.00  0.00    -0.240 NA
ATOM     14  N   LIG    1       -2.588   2.422  -2.745  0.00  0.00    -0.460 N 
ATOM     15  H   LIG    1       -3.478   2.581  -3.097  0.00  0.00    +0.450 HD
ATOM     16  C   LIG    1       -1.425   2.564  -3.402  0.00  0.00    +0.520 A 
ATOM     17  N   LIG    1       -0.454   2.258  -2.580  0.00  0.00    -0.470 NA
ENDBRANCH   2  12
TORSDOF 2
ENDMDL
MODEL       71
REMARK  Name = ZINC000101107662
REMARK                            x       y       z     vdW  Elec       q    Type
REMARK                         _______ _______ _______ _____ _____    ______ ____
ROOT
ATOM      1  C   LIG    1       -1.136  -2.159   0.001  0.00  0.00    +0.240 C 
ATOM      2  C   LIG    1       -1.020  -2.661  -1.440  0.00  0.00    +0.360 C 
ATOM      3  O   LIG    1       -2.166  -2.240  -2.183  0.00  0.00    -0.360 OA
ATOM      4  C   LIG    1       -3.405  -2.747  -1.682  0.00  0.00    +0.180 C 
ATOM      5  C   LIG    1       -3.616  -2.248  -0.250  0.00  0.00    +0.120 C 
ATOM      6  C   LIG    1       -2.433  -2.692   0.618  0.00  0.00    +0.210 C 
ENDROOT
BRANCH   1   9
ATOM      7  C   LIG    1       -0.018   1.503   0.010  0.00  0.00    +0.130 C 
ATOM      8  C   LIG    1        0.002  -0.004   0.002  0.00  0.00    +0.520 C 
ATOM      9  N   LIG    1       -1.156  -0.694   0.009  0.00  0.00    -0.730 N 
ATOM     10  H   LIG    1       -2.002  -0.220   0.020  0.00  0.00    +0.420 HD
ATOM     11  O   LIG    1        1.060  -0.596  -0.011  0.00  0.00    -0.550 OA
ENDBRANCH   1   9
BRANCH   2  12
ATOM     12  N   LIG    1        0.193  -2.107  -2.056  0.00  0.00    -0.620 N 
ATOM     13  H   LIG    1        0.141  -1.099  -2.054  0.00  0.00    +0.430 HD
ATOM     14  H   LIG    1        0.269  -2.438  -3.006  0.00  0.00    +0.440 HD
ATOM     15  H   LIG    1        1.002  -2.403  -1.531  0.00  0.00    +0.460 HD
ENDBRANCH   2  12
BRANCH   5  16
ATOM     16  O   LIG    1       -4.826  -2.800   0.274  0.00  0.00    -0.540 OA
ATOM     17  H   LIG    1       -5.617  -2.562  -0.230  0.00  0.00    +0.400 HD
ENDBRANCH   5  16
BRANCH   6  18
ATOM     18  O   LIG    1       -2.387  -4.119   0.672  0.00  0.00    -0.560 OA
ATOM     19  H   LIG    1       -3.182  -4.524   1.046  0.00  0.00    +0.410 HD
ENDBRANCH   6  18
BRANCH   4  20
ATOM     20  C   LIG    1       -4.552  -2.258  -2.568  0.00  0.00    +0.220 C 
BRANCH  20  21
ATOM     21  O   LIG    1       -4.417  -2.818  -3.875  0.00  0.00    -0.560 OA
ATOM     22  H   LIG    1       -5.112  -2.550  -4.492  0.00  0.00    +0.400 HD
ENDBRANCH  20  21
ENDBRANCH   4  20
TORSDOF 6
ENDMDL
MODEL       72
REMARK  Name = ZINC000141935332
REMARK                            x       y       z     vdW  Elec       q    Type
REMARK                         _______ _______ _______ _____ _____    ______ ____
ROOT
ATOM      1  N   LIG    1       -2.109  -0.150  -1.276  0.00  0.00    -0.370 N 
ATOM      2  C   LIG    1       -1.491  -0.813  -2.430  0.00  0.00    +0.280 C 
ATOM      3  C   LIG    1       -2.175  -0.347  -3.717  0.00  0.00    +0.160 C 
ATOM      4  C   LIG    1       -3.663  -0.706  -3.657  0.00  0.00    +0.120 C 
ATOM      5  C   LIG    1       -4.281  -0.071  -2.408  0.00  0.00    +0.210 C 
ATOM      6  C   LIG    1       -3.518  -0.548  -1.170  0.00  0.00    +0.190 C 
ATOM      7  H   LIG    1       -2.051   0.851  -1.393  0.00  0.00    +0.450 HD
ENDROOT
BRANCH   5   8
ATOM      8  O   LIG    1       -5.652  -0.459  -2.304  0.00  0.00    -0.520 OA
ATOM      9  H   LIG    1       -6.195  -0.192  -3.058  0.00  0.00    +0.400 HD
ENDBRANCH   5   8
BRANCH   4  10
ATOM     10  O   LIG    1       -4.322  -0.210  -4.824  0.00  0.00    -0.550 OA
ATOM     11  H   LIG    1       -3.976  -0.568  -5.653  0.00  0.00    +0.400 HD
ENDBRANCH   4  10
BRANCH   3  12
ATOM     12  O   LIG    1       -2.030   1.068  -3.850  0.00  0.00    -0.560 OA
ATOM     13  H   LIG    1       -2.441   1.433  -4.646  0.00  0.00    +0.410 HD
ENDBRANCH   3  12
BRANCH   1  14
ATOM     14  C   LIG    1       -1.398  -0.540  -0.051  0.00  0.00    +0.270 C 
BRANCH  14  15
ATOM     15  C   LIG    1        0.037  -0.013  -0.104  0.00  0.00    +0.220 C 
BRANCH  15  16
ATOM     16  O   LIG    1        0.021   1.416  -0.093  0.00  0.00    -0.580 OA
ATOM     17  H   LIG    1        0.899   1.819  -0.125  0.00  0.00    +0.410 HD
ENDBRANCH  15  16
ENDBRANCH  14  15
ENDBRANCH   1  14
BRANCH   6  18
ATOM     18  C   LIG    1       -3.612  -2.072  -1.070  0.00  0.00    +0.190 C 
BRANCH  18  19
ATOM     19  O   LIG    1       -4.986  -2.461  -1.004  0.00  0.00    -0.530 OA
ATOM     20  H   LIG    1       -5.121  -3.416  -0.939  0.00  0.00    +0.400 HD
ENDBRANCH  18  19
ENDBRANCH   6  18
TORSDOF 8
ENDMDL
MODEL       73
REMARK  Name = ZINC000014533583
REMARK                            x       y       z     vdW  Elec       q    Type
REMARK                         _______ _______ _______ _____ _____    ______ ____
ROOT
ATOM      1  O   HYP A  1        0.002  -0.004   0.002  0.00  0.00    -0.480 OA
ATOM      2  C   HYP A  1       -0.014   1.209   0.009  0.00  0.00    +0.540 C 
ATOM      3  CA  HYP A  1       -1.322   1.952   0.032  0.00  0.00    +0.210 C 
ATOM      4  CB  HYP A  1       -2.244   1.342  -1.045  0.00  0.00    +0.100 C 
ATOM      5  CG  HYP A  1       -3.351   2.416  -1.191  0.00  0.00    +0.180 C 
ATOM      6  CD  HYP A  1       -2.718   3.718  -0.656  0.00  0.00    +0.280 C 
ATOM      7  N   HYP A  1       -1.336   3.400  -0.263  0.00  0.00    -0.590 N 
ATOM      8  C   UNK A  2       -0.198   4.106  -0.164  0.00  0.00    +0.550 C 
ATOM      9  C   UNK A  2        1.117   3.377  -0.078  0.00  0.00    +0.240 C 
ATOM     10  C   UNK A  2        1.900   3.924   1.115  0.00  0.00    +0.280 C 
ATOM     11  N   UNK A  2        3.254   3.354   1.109  0.00  0.00    -0.500 N 
ATOM     12  C   UNK A  2        3.199   1.903   1.324  0.00  0.00    +0.280 C 
ATOM     13  C   UNK A  2        2.436   1.241   0.169  0.00  0.00    +0.330 C 
ATOM     14  H   UNK A  2        3.797   3.778   1.846  0.00  0.00    +0.440 HD
ATOM     15  H   UNK A  2        3.692   3.544   0.220  0.00  0.00    +0.430 HD
ATOM     16  O   UNK A  2       -0.229   5.319  -0.143  0.00  0.00    -0.500 OA
ATOM     17  N   UNK A  2        1.137   1.905   0.001  0.00  0.00    -0.630 N 
ENDROOT
BRANCH   5  18
ATOM     18  OD  HYP A  1       -4.494   2.060  -0.410  0.00  0.00    -0.550 OA
ATOM     19  HD  HYP A  1       -5.220   2.697  -0.463  0.00  0.00    +0.390 HD
ENDBRANCH   5  18
TORSDOF 1
ENDMDL
MODEL       74
REMARK  Name = ZINC000005753435
REMARK                            x       y       z     vdW  Elec       q    Type
REMARK                         _______ _______ _______ _____ _____    ______ ____
ROOT
ATOM      1  C   LIG    1        0.061   1.460  -0.059  0.00  0.00    +0.360 C 
ATOM      2  N   LIG    1        0.042  -0.004  -0.034  0.00  0.00    -0.550 N 
ATOM      3  C   LIG    1       -1.125  -0.654   0.147  0.00  0.00    +0.540 A 
ATOM      4  C   LIG    1       -1.141  -2.057   0.171  0.00  0.00    -0.110 A 
ATOM      5  C   LIG    1        0.034  -2.737   0.010  0.00  0.00    +0.430 A 
ATOM      6  N   LIG    1        1.200  -2.035  -0.172  0.00  0.00    -0.540 N 
ATOM      7  C   LIG    1        2.465  -2.755  -0.345  0.00  0.00    +0.340 C 
ATOM      8  O   LIG    1       -2.161  -0.026   0.288  0.00  0.00    -0.500 OA
ATOM      9  C   LIG    1        1.188  -0.689  -0.196  0.00  0.00    +0.700 A 
ATOM     10  O   LIG    1        2.230  -0.084  -0.358  0.00  0.00    -0.520 OA
ENDROOT
BRANCH   5  11
ATOM     11  N   LIG    1        0.048  -4.109   0.028  0.00  0.00    -0.670 N 
ATOM     12  C   LIG    1        0.161  -4.847   1.296  0.00  0.00    +0.320 C 
ATOM     13  C   LIG    1       -0.950  -5.901   1.345  0.00  0.00    +0.260 C 
ATOM     14  N   LIG    1       -0.877  -6.743   0.144  0.00  0.00    -0.380 N 
ATOM     15  C   LIG    1       -1.151  -5.936  -1.051  0.00  0.00    +0.260 C 
ATOM     16  C   LIG    1       -1.872  -7.820   0.242  0.00  0.00    +0.330 C 
ATOM     17  H   LIG    1        0.046  -7.145   0.072  0.00  0.00    +0.430 HD
ATOM     18  C   LIG    1       -0.056  -4.883  -1.218  0.00  0.00    +0.320 C 
ENDBRANCH   5  11
TORSDOF 1
ENDMDL
MODEL       75
REMARK  Name = ZINC000006145154
REMARK                            x       y       z     vdW  Elec       q    Type
REMARK                         _______ _______ _______ _____ _____    ______ ____
ROOT
ATOM      1  C   LIG    1        2.081  -3.523  -0.038  0.00  0.00    +0.490 C 
ATOM      2  C   LIG    1        2.649  -3.954   1.148  0.00  0.00    -0.400 C 
ATOM      3  C   LIG    1        3.714  -4.884   1.270  0.00  0.00    +0.410 C 
ATOM      4  C   LIG    1        3.971  -5.023   2.754  0.00  0.00    +0.270 C 
ATOM      5  N   LIG    1        3.011  -4.139   3.422  0.00  0.00    -0.710 N 
ATOM      6  H   LIG    1        2.933  -4.015   4.381  0.00  0.00    +0.430 HD
ATOM      7  O   LIG    1        4.299  -5.450   0.370  0.00  0.00    -0.440 OA
ATOM      8  C   LIG    1        2.259  -3.524   2.495  0.00  0.00    +0.570 C 
ATOM      9  O   LIG    1        1.372  -2.728   2.738  0.00  0.00    -0.560 OA
ENDROOT
BRANCH   1  14
ATOM     10  C   LIG    1       -0.175   1.230  -1.306  0.00  0.00    +0.330 C 
ATOM     11  N   LIG    1       -0.026  -0.073  -0.645  0.00  0.00    -0.390 N 
ATOM     12  C   LIG    1        1.216  -0.084   0.138  0.00  0.00    +0.240 C 
ATOM     13  C   LIG    1        1.315  -1.398   0.919  0.00  0.00    +0.360 C 
ATOM     14  N   LIG    1        1.187  -2.515  -0.029  0.00  0.00    -0.610 N 
ATOM     15  C   LIG    1        0.054  -2.500  -0.968  0.00  0.00    +0.320 C 
ATOM     16  C   LIG    1        0.017  -1.134  -1.660  0.00  0.00    +0.270 C 
ATOM     17  H   LIG    1       -0.811  -0.229  -0.030  0.00  0.00    +0.430 HD
ENDBRANCH   1  14
TORSDOF 1
ENDMDL
MODEL       76
REMARK  Name = ZINC000005886110
REMARK                            x       y       z     vdW  Elec       q    Type
REMARK                         _______ _______ _______ _____ _____    ______ ____
ROOT
ATOM      1  C   LIG    1        2.607  -0.574  -0.020  0.00  0.00    +0.620 C 
ATOM      2  N   LIG    1        3.531  -1.555  -0.024  0.00  0.00    -0.710 N 
ATOM      3  H   LIG    1        3.252  -2.484  -0.023  0.00  0.00    +0.420 HD
ATOM      4  O   LIG    1        2.956   0.590  -0.022  0.00  0.00    -0.510 OA
ENDROOT
BRANCH   1  10
ATOM      5  C   LIG    1        0.002  -0.004   0.002  0.00  0.00    +0.370 A 
ATOM      6  N   LIG    1       -1.011  -0.839   0.001  0.00  0.00    -0.360 NA
ATOM      7  O   LIG    1       -0.599  -1.975  -0.006  0.00  0.00    +0.320 OA
ATOM      8  N   LIG    1        0.602  -2.106  -0.012  0.00  0.00    -0.010 N 
ATOM      9  O   LIG    1        1.292  -3.342  -0.021  0.00  0.00    -0.430 OA
ATOM     10  C   LIG    1        1.170  -0.914  -0.014  0.00  0.00    -0.090 A 
BRANCH   5  11
ATOM     11  N   LIG    1       -0.017   1.384   0.010  0.00  0.00    -0.780 N 
ATOM     12  H   LIG    1       -0.863   1.857   0.016  0.00  0.00    +0.430 HD
ATOM     13  H   LIG    1        0.817   1.880   0.004  0.00  0.00    +0.440 HD
ENDBRANCH   5  11
ENDBRANCH   1  10
BRANCH   2  14
ATOM     14  C   LIG    1        4.957  -1.218  -0.030  0.00  0.00    +0.290 C 
BRANCH  14  15
ATOM     15  C   LIG    1        5.785  -2.505  -0.034  0.00  0.00    +0.160 C 
BRANCH  15  16
ATOM     16  C   LIG    1        7.251  -2.158  -0.040  0.00  0.00    +0.060 A 
ATOM     17  C   LIG    1        8.005  -1.876  -1.120  0.00  0.00    +0.240 A 
ATOM     18  N   LIG    1        9.253  -1.622  -0.700  0.00  0.00    -0.470 N 
ATOM     19  C   LIG    1        9.302  -1.736   0.599  0.00  0.00    +0.580 A 
ATOM     20  H   LIG    1       10.002  -1.390  -1.272  0.00  0.00    +0.470 HD
ATOM     21  N   LIG    1        8.072  -2.063   1.051  0.00  0.00    -0.510 N 
ATOM     22  H   LIG    1        7.819  -2.210   1.976  0.00  0.00    +0.470 HD
ENDBRANCH  15  16
ENDBRANCH  14  15
ENDBRANCH   2  14
TORSDOF 5
ENDMDL
MODEL       77
REMARK  Name = ZINC000618256964
REMARK                            x       y       z     vdW  Elec       q    Type
REMARK                         _______ _______ _______ _____ _____    ______ ____
ROOT
ATOM      1  N   LIG    1       -1.079  -4.662   0.194  0.00  0.00    -0.390 N 
ATOM      2  C   LIG    1       -1.726  -5.719  -0.600  0.00  0.00    +0.280 C 
ATOM      3  C   LIG    1       -1.110  -7.067  -0.222  0.00  0.00    +0.310 C 
ATOM      4  N   LIG    1       -1.125  -7.231   1.230  0.00  0.00    -0.720 N 
ATOM      5  H   LIG    1       -1.010  -8.120   1.599  0.00  0.00    +0.430 HD
ATOM      6  C   LIG    1       -1.290  -6.202   2.069  0.00  0.00    +0.500 C 
ATOM      7  O   LIG    1       -1.266  -6.416   3.263  0.00  0.00    -0.490 OA
ATOM      8  C   LIG    1       -1.500  -4.792   1.595  0.00  0.00    +0.320 C 
ATOM      9  H   LIG    1       -0.077  -4.759   0.132  0.00  0.00    +0.430 HD
ENDROOT
BRANCH   1  10
ATOM     10  C   LIG    1       -1.479  -3.346  -0.320  0.00  0.00    +0.300 C 
BRANCH  10  14
ATOM     11  C   LIG    1       -0.018   1.461   0.010  0.00  0.00    +0.320 C 
ATOM     12  N   LIG    1        0.002  -0.004   0.002  0.00  0.00    -0.620 N 
ATOM     13  C   LIG    1       -1.198  -0.849   0.003  0.00  0.00    +0.300 C 
ATOM     14  C   LIG    1       -0.714  -2.252   0.429  0.00  0.00    -0.020 C 
ATOM     15  C   LIG    1        0.770  -2.219  -0.004  0.00  0.00    +0.050 C 
ATOM     16  C   LIG    1        1.122  -0.747  -0.013  0.00  0.00    +0.520 C 
ATOM     17  O   LIG    1        2.250  -0.303  -0.025  0.00  0.00    -0.510 OA
ENDBRANCH  10  14
ENDBRANCH   1  10
TORSDOF 2
ENDMDL
MODEL       78
REMARK  Name = ZINC000618256964
REMARK                            x       y       z     vdW  Elec       q    Type
REMARK                         _______ _______ _______ _____ _____    ______ ____
ROOT
ATOM      1  N   LIG    1       -0.993  -4.664   0.109  0.00  0.00    -0.390 N 
ATOM      2  C   LIG    1       -1.429  -4.924   1.490  0.00  0.00    +0.280 C 
ATOM      3  C   LIG    1       -0.712  -6.173   2.006  0.00  0.00    +0.310 C 
ATOM      4  N   LIG    1       -0.865  -7.266   1.049  0.00  0.00    -0.720 N 
ATOM      5  H   LIG    1       -0.693  -8.173   1.347  0.00  0.00    +0.430 HD
ATOM      6  C   LIG    1       -1.234  -7.065  -0.221  0.00  0.00    +0.500 C 
ATOM      7  O   LIG    1       -1.317  -8.023  -0.961  0.00  0.00    -0.490 OA
ATOM      8  C   LIG    1       -1.547  -5.702  -0.770  0.00  0.00    +0.320 C 
ATOM      9  H   LIG    1        0.014  -4.685   0.063  0.00  0.00    +0.430 HD
ENDROOT
BRANCH   1  10
ATOM     10  C   LIG    1       -1.479  -3.346  -0.320  0.00  0.00    +0.290 C 
BRANCH  10  14
ATOM     11  C   LIG    1       -0.268   1.505   0.274  0.00  0.00    +0.320 C 
ATOM     12  N   LIG    1       -0.174   0.045   0.192  0.00  0.00    -0.620 N 
ATOM     13  C   LIG    1       -1.329  -0.858   0.133  0.00  0.00    +0.290 C 
ATOM     14  C   LIG    1       -0.780  -2.255   0.494  0.00  0.00    -0.010 C 
ATOM     15  C   LIG    1        0.706  -2.125   0.085  0.00  0.00    +0.050 C 
ATOM     16  C   LIG    1        0.983  -0.639   0.155  0.00  0.00    +0.520 C 
ATOM     17  O   LIG    1        2.087  -0.139   0.181  0.00  0.00    -0.510 OA
ENDBRANCH  10  14
ENDBRANCH   1  10
TORSDOF 2
ENDMDL
MODEL       79
REMARK  Name = ZINC000044021593
REMARK                            x       y       z     vdW  Elec       q    Type
REMARK                         _______ _______ _______ _____ _____    ______ ____
ROOT
ATOM      1  N   LIG    1       -2.163  -0.024  -1.319  0.00  0.00    -0.370 N 
ATOM      2  C   LIG    1       -1.430  -0.585  -2.461  0.00  0.00    +0.270 C 
ATOM      3  C   LIG    1       -2.170  -0.255  -3.759  0.00  0.00    +0.160 C 
ATOM      4  C   LIG    1       -3.576  -0.859  -3.706  0.00  0.00    +0.120 C 
ATOM      5  C   LIG    1       -4.305  -0.324  -2.470  0.00  0.00    +0.210 C 
ATOM      6  C   LIG    1       -3.485  -0.653  -1.220  0.00  0.00    +0.190 C 
ATOM      7  H   LIG    1       -2.273   0.971  -1.448  0.00  0.00    +0.450 HD
ENDROOT
BRANCH   5   8
ATOM      8  O   LIG    1       -5.592  -0.937  -2.373  0.00  0.00    -0.550 OA
ATOM      9  H   LIG    1       -6.165  -0.773  -3.134  0.00  0.00    +0.410 HD
ENDBRANCH   5   8
BRANCH   4  10
ATOM     10  O   LIG    1       -4.298  -0.494  -4.884  0.00  0.00    -0.550 OA
ATOM     11  H   LIG    1       -3.888  -0.797  -5.706  0.00  0.00    +0.400 HD
ENDBRANCH   4  10
BRANCH   3  12
ATOM     12  O   LIG    1       -2.264   1.163  -3.907  0.00  0.00    -0.560 OA
ATOM     13  H   LIG    1       -2.722   1.445  -4.710  0.00  0.00    +0.410 HD
ENDBRANCH   3  12
BRANCH   1  14
ATOM     14  C   LIG    1       -1.409  -0.276  -0.084  0.00  0.00    +0.270 C 
BRANCH  14  15
ATOM     15  C   LIG    1       -0.084   0.487  -0.130  0.00  0.00    +0.220 C 
BRANCH  15  16
ATOM     16  O   LIG    1       -0.343   1.893  -0.134  0.00  0.00    -0.570 OA
ATOM     17  H   LIG    1        0.453   2.440  -0.163  0.00  0.00    +0.410 HD
ENDBRANCH  15  16
ENDBRANCH  14  15
ENDBRANCH   1  14
BRANCH   6  18
ATOM     18  C   LIG    1       -4.208  -0.120   0.018  0.00  0.00    +0.230 C 
BRANCH  18  19
ATOM     19  O   LIG    1       -4.431   1.284  -0.128  0.00  0.00    -0.570 OA
ATOM     20  H   LIG    1       -4.887   1.690   0.622  0.00  0.00    +0.410 HD
ENDBRANCH  18  19
ENDBRANCH   6  18
TORSDOF 8
ENDMDL
MODEL       80
REMARK  Name = ZINC000005562860
REMARK                            x       y       z     vdW  Elec       q    Type
REMARK                         _______ _______ _______ _____ _____    ______ ____
ROOT
ATOM      1  N   LIG    1        0.002  -0.004   0.002  0.00  0.00    -0.470 N 
ATOM      2  H   LIG    1       -0.467  -0.492  -0.693  0.00  0.00    +0.440 HD
ATOM      3  C   LIG    1        0.686  -0.688   0.980  0.00  0.00    +0.450 C 
ATOM      4  N   LIG    1        0.771  -1.967   1.063  0.00  0.00    -0.620 N 
ATOM      5  C   LIG    1        1.537  -2.570   2.136  0.00  0.00    +0.290 C 
ATOM      6  C   LIG    1        2.642  -3.470   1.542  0.00  0.00    -0.290 C 
ATOM      7  S   LIG    1        4.015  -3.307   2.752  0.00  0.00    +2.410 S 
ATOM      8  C   LIG    1        3.647  -1.548   3.138  0.00  0.00    -0.250 C 
ATOM      9  O   LIG    1        5.263  -3.403   2.080  0.00  0.00    -0.890 OA
ATOM     10  O   LIG    1        3.751  -4.115   3.891  0.00  0.00    -0.890 OA
ATOM     11  C   LIG    1        2.129  -1.502   3.058  0.00  0.00    +0.070 C 
ATOM     12  H   LIG    1        0.325  -2.528   0.409  0.00  0.00    +0.440 HD
ATOM     13  S   LIG    1        1.584   0.063   2.305  0.00  0.00    +0.140 S 
ENDROOT
BRANCH   1  14
ATOM     14  N   LIG    1       -0.016   1.362   0.009  0.00  0.00    -0.590 N 
ATOM     15  H   LIG    1       -0.555   1.720  -0.765  0.00  0.00    +0.400 HD
ATOM     16  H   LIG    1        0.920   1.736   0.003  0.00  0.00    +0.370 HD
ENDBRANCH   1  14
TORSDOF 1
ENDMDL
MODEL       81
REMARK  Name = ZINC000072233433
REMARK                            x       y       z     vdW  Elec       q    Type
REMARK                         _______ _______ _______ _____ _____    ______ ____
ROOT
ATOM      1  N   LIG    1        1.400  -2.461   2.457  0.00  0.00    -0.420 N 
ATOM      2  N   LIG    1        0.471  -2.600   3.497  0.00  0.00    -0.080 NA
ATOM      3  N   LIG    1        1.068  -3.089   4.526  0.00  0.00    -0.150 NA
ATOM      4  C   LIG    1        2.368  -3.294   4.244  0.00  0.00    -0.170 A 
ATOM      5  C   LIG    1        2.589  -2.903   2.929  0.00  0.00    +0.420 A 
ENDROOT
BRANCH   1  12
ATOM      6  C   LIG    1       -0.018   1.465   0.010  0.00  0.00    +0.340 C 
ATOM      7  N   LIG    1        0.002  -0.004   0.002  0.00  0.00    -0.380 N 
ATOM      8  C   LIG    1        0.650  -0.456  -1.210  0.00  0.00    +0.220 C 
ATOM      9  C   LIG    1       -0.035  -1.754  -1.687  0.00  0.00    +0.270 C 
ATOM     10  O   LIG    1        0.366  -2.835  -0.962  0.00  0.00    -0.350 OA
ATOM     11  C   LIG    1        0.089  -2.809   0.451  0.00  0.00    +0.260 C 
ATOM     12  C   LIG    1        1.133  -1.943   1.113  0.00  0.00    +0.260 C 
ATOM     13  C   LIG    1        0.689  -0.480   1.224  0.00  0.00    +0.270 C 
ATOM     14  H   LIG    1       -0.948  -0.343   0.009  0.00  0.00    +0.420 HD
ENDBRANCH   1  12
BRANCH   4  15
ATOM     15  C   LIG    1        3.375  -3.840   5.162  0.00  0.00    +0.620 C 
ATOM     16  O   LIG    1        4.525  -3.981   4.791  0.00  0.00    -0.550 OA
ATOM     17  N   LIG    1        3.025  -4.186   6.417  0.00  0.00    -0.830 N 
ATOM     18  H   LIG    1        3.690  -4.547   7.024  0.00  0.00    +0.410 HD
ATOM     19  H   LIG    1        2.108  -4.074   6.713  0.00  0.00    +0.410 HD
ENDBRANCH   4  15
BRANCH   5  20
ATOM     20  N   LIG    1        3.785  -2.949   2.243  0.00  0.00    -0.810 N 
ATOM     21  H   LIG    1        3.828  -2.650   1.322  0.00  0.00    +0.400 HD
ATOM     22  H   LIG    1        4.584  -3.281   2.683  0.00  0.00    +0.440 HD
ENDBRANCH   5  20
TORSDOF 3
ENDMDL
MODEL       82
REMARK  Name = ZINC000072233434
REMARK                            x       y       z     vdW  Elec       q    Type
REMARK                         _______ _______ _______ _____ _____    ______ ____
ROOT
ATOM      1  N   LIG    1        1.106  -2.252   2.761  0.00  0.00    -0.420 N 
ATOM      2  N   LIG    1        2.498  -2.315   2.908  0.00  0.00    -0.080 NA
ATOM      3  N   LIG    1        2.775  -2.686   4.108  0.00  0.00    -0.150 NA
ATOM      4  C   LIG    1        1.635  -2.881   4.798  0.00  0.00    -0.170 A 
ATOM      5  C   LIG    1        0.568  -2.604   3.953  0.00  0.00    +0.420 A 
ENDROOT
BRANCH   1  12
ATOM      6  C   LIG    1       -0.018   1.465   0.010  0.00  0.00    +0.340 C 
ATOM      7  N   LIG    1        0.002  -0.004   0.002  0.00  0.00    -0.370 N 
ATOM      8  C   LIG    1        0.685  -0.473  -1.182  0.00  0.00    +0.230 C 
ATOM      9  C   LIG    1        0.094  -1.800  -1.685  0.00  0.00    +0.270 C 
ATOM     10  O   LIG    1       -0.212  -2.724  -0.624  0.00  0.00    -0.370 OA
ATOM     11  C   LIG    1        0.729  -2.855   0.412  0.00  0.00    +0.260 C 
ATOM     12  C   LIG    1        0.373  -1.872   1.551  0.00  0.00    +0.240 C 
ATOM     13  C   LIG    1        0.722  -0.496   1.190  0.00  0.00    +0.260 C 
ATOM     14  H   LIG    1       -0.944  -0.356   0.009  0.00  0.00    +0.430 HD
ENDBRANCH   1  12
BRANCH   4  15
ATOM     15  C   LIG    1        1.537  -3.308   6.199  0.00  0.00    +0.620 C 
ATOM     16  O   LIG    1        0.445  -3.451   6.716  0.00  0.00    -0.550 OA
ATOM     17  N   LIG    1        2.656  -3.541   6.912  0.00  0.00    -0.830 N 
ATOM     18  H   LIG    1        2.592  -3.823   7.838  0.00  0.00    +0.410 HD
ATOM     19  H   LIG    1        3.527  -3.427   6.500  0.00  0.00    +0.410 HD
ENDBRANCH   4  15
BRANCH   5  20
ATOM     20  N   LIG    1       -0.774  -2.679   4.264  0.00  0.00    -0.810 N 
ATOM     21  H   LIG    1       -1.440  -2.461   3.593  0.00  0.00    +0.400 HD
ATOM     22  H   LIG    1       -1.051  -2.949   5.153  0.00  0.00    +0.440 HD
ENDBRANCH   5  20
TORSDOF 3
ENDMDL
MODEL       83
REMARK  Name = ZINC000048546987
REMARK                            x       y       z     vdW  Elec       q    Type
REMARK                         _______ _______ _______ _____ _____    ______ ____
ROOT
ATOM      1  C   LIG    1        0.673  -0.582   1.123  0.00  0.00    +0.320 C 
ATOM      2  O   LIG    1        2.050  -0.218   1.082  0.00  0.00    -0.350 OA
ATOM      3  C   LIG    1        2.780  -0.679   2.225  0.00  0.00    +0.160 C 
ATOM      4  C   LIG    1        2.798  -2.208   2.185  0.00  0.00    +0.200 C 
ATOM      5  C   LIG    1        1.397  -2.773   2.150  0.00  0.00    +0.080 C 
ATOM      6  S   LIG    1        0.467  -2.334   3.671  0.00  0.00    -0.120 S 
ATOM      7  C   LIG    1       -1.182  -2.453   2.870  0.00  0.00    +0.330 C 
ATOM      8  N   LIG    1       -0.907  -2.385   1.421  0.00  0.00    -0.510 N 
ATOM      9  H   LIG    1       -1.482  -1.659   1.020  0.00  0.00    +0.450 HD
ATOM     10  H   LIG    1       -1.168  -3.266   1.004  0.00  0.00    +0.440 HD
ATOM     11  C   LIG    1        0.503  -2.104   1.080  0.00  0.00    +0.200 C 
ENDROOT
BRANCH   1  13
ATOM     12  C   LIG    1       -0.017   1.425   0.010  0.00  0.00    +0.260 C 
ATOM     13  O   LIG    1        0.002  -0.004   0.002  0.00  0.00    -0.380 OA
ENDBRANCH   1  13
BRANCH   4  14
ATOM     14  O   LIG    1        3.470  -2.699   3.346  0.00  0.00    -0.540 OA
ATOM     15  H   LIG    1        4.387  -2.401   3.425  0.00  0.00    +0.400 HD
ENDBRANCH   4  14
BRANCH   3  16
ATOM     16  C   LIG    1        4.212  -0.142   2.177  0.00  0.00    +0.220 C 
BRANCH  16  17
ATOM     17  O   LIG    1        4.190   1.282   2.295  0.00  0.00    -0.560 OA
ATOM     18  H   LIG    1        5.066   1.692   2.272  0.00  0.00    +0.400 HD
ENDBRANCH  16  17
ENDBRANCH   3  16
TORSDOF 4
ENDMDL
MODEL       84
REMARK  Name = ZINC000106385955
REMARK                            x       y       z     vdW  Elec       q    Type
REMARK                         _______ _______ _______ _____ _____    ______ ____
ROOT
ATOM      1  N   LIG    1       -1.153   4.233  -1.164  0.00  0.00    -0.510 NA
ATOM      2  C   LIG    1       -0.766   3.519  -2.389  0.00  0.00    +0.190 C 
ATOM      3  C   LIG    1       -1.301   4.276  -3.607  0.00  0.00    +0.280 C 
ATOM      4  N   LIG    1       -0.750   5.637  -3.619  0.00  0.00    -0.390 N 
ATOM      5  C   LIG    1       -1.165   6.346  -2.401  0.00  0.00    +0.270 C 
ATOM      6  H   LIG    1        0.257   5.592  -3.655  0.00  0.00    +0.430 HD
ATOM      7  C   LIG    1       -0.629   5.606  -1.173  0.00  0.00    +0.220 C 
ENDROOT
BRANCH   1  11
ATOM      8  O   LIG    1        0.002  -0.004   0.002  0.00  0.00    -0.460 OA
ATOM      9  C   LIG    1       -0.014   1.208   0.009  0.00  0.00    +0.520 C 
ATOM     10  C   LIG    1       -1.260   2.068   0.032  0.00  0.00    +0.110 C 
ATOM     11  C   LIG    1       -0.705   3.507   0.032  0.00  0.00    +0.200 C 
ATOM     12  C   LIG    1        0.795   3.309   0.009  0.00  0.00    +0.500 C 
ATOM     13  O   LIG    1        1.620   4.197   0.002  0.00  0.00    -0.470 OA
ATOM     14  N   LIG    1        1.066   1.998   0.003  0.00  0.00    -0.680 N 
ATOM     15  H   LIG    1        1.971   1.650  -0.012  0.00  0.00    +0.420 HD
ENDBRANCH   1  11
BRANCH   4  16
ATOM     16  C   LIG    1       -1.250   6.357  -4.798  0.00  0.00    +0.280 C 
BRANCH  16  17
ATOM     17  C   LIG    1       -0.581   7.731  -4.878  0.00  0.00    +0.210 C 
BRANCH  17  18
ATOM     18  O   LIG    1        0.821   7.565  -5.103  0.00  0.00    -0.580 OA
ATOM     19  H   LIG    1        1.310   8.397  -5.165  0.00  0.00    +0.410 HD
ENDBRANCH  17  18
ENDBRANCH  16  17
ENDBRANCH   4  16
TORSDOF 4
ENDMDL
MODEL       85
REMARK  Name = ZINC000077010922
REMARK                            x       y       z     vdW  Elec       q    Type
REMARK                         _______ _______ _______ _____ _____    ______ ____
ROOT
ATOM      1  O   LIG    1        0.067  -0.002   0.010  0.00  0.00    -0.520 OA
ATOM      2  C   LIG    1       -0.014   1.209   0.009  0.00  0.00    +0.510 C 
ATOM      3  N   LIG    1       -1.224   1.803  -0.004  0.00  0.00    -0.590 N 
ATOM      4  C   LIG    1       -1.349   3.264  -0.128  0.00  0.00    +0.240 C 
ATOM      5  C   LIG    1       -2.347   3.570  -1.250  0.00  0.00    +0.230 C 
ATOM      6  O   LIG    1       -3.558   2.847  -1.013  0.00  0.00    -0.370 OA
ATOM      7  C   LIG    1       -3.403   1.426  -1.027  0.00  0.00    +0.230 C 
ATOM      8  C   LIG    1       -2.459   1.010   0.101  0.00  0.00    +0.270 C 
ENDROOT
BRANCH   2   9
ATOM      9  C   LIG    1        1.238   2.048   0.015  0.00  0.00    +0.140 C 
ATOM     10  C   LIG    1        1.460   2.623   1.416  0.00  0.00    +0.290 C 
ATOM     11  O   LIG    1        2.678   3.372   1.430  0.00  0.00    -0.350 OA
ATOM     12  C   LIG    1        3.826   2.608   1.049  0.00  0.00    +0.270 C 
ATOM     13  C   LIG    1        3.608   2.033  -0.352  0.00  0.00    +0.250 C 
ATOM     14  N   LIG    1        2.388   1.214  -0.359  0.00  0.00    -0.490 N 
ATOM     15  H   LIG    1        2.243   0.834  -1.283  0.00  0.00    +0.440 HD
ATOM     16  H   LIG    1        2.486   0.459   0.304  0.00  0.00    +0.440 HD
ENDBRANCH   2   9
TORSDOF 1
ENDMDL
MODEL       86
REMARK  Name = ZINC000088357951
REMARK                            x       y       z     vdW  Elec       q    Type
REMARK                         _______ _______ _______ _____ _____    ______ ____
ROOT
ATOM      1  O   LIG    1        0.066  -0.002   0.010  0.00  0.00    -0.520 OA
ATOM      2  C   LIG    1       -0.014   1.209   0.009  0.00  0.00    +0.500 C 
ATOM      3  N   LIG    1       -1.224   1.803  -0.003  0.00  0.00    -0.580 N 
ATOM      4  C   LIG    1       -1.346   3.264  -0.128  0.00  0.00    +0.290 C 
ATOM      5  C   LIG    1       -2.331   3.575  -1.259  0.00  0.00    +0.180 C 
ATOM      6  N   LIG    1       -3.593   2.865  -1.014  0.00  0.00    -0.530 NA
ATOM      7  C   LIG    1       -3.398   1.409  -1.033  0.00  0.00    +0.170 C 
ATOM      8  C   LIG    1       -2.457   1.008   0.102  0.00  0.00    +0.300 C 
ENDROOT
BRANCH   2   9
ATOM      9  C   LIG    1        1.238   2.047   0.015  0.00  0.00    +0.140 C 
ATOM     10  C   LIG    1        1.461   2.622   1.415  0.00  0.00    +0.290 C 
ATOM     11  O   LIG    1        2.679   3.371   1.429  0.00  0.00    -0.350 OA
ATOM     12  C   LIG    1        3.827   2.607   1.049  0.00  0.00    +0.270 C 
ATOM     13  C   LIG    1        3.608   2.032  -0.353  0.00  0.00    +0.250 C 
ATOM     14  N   LIG    1        2.388   1.213  -0.359  0.00  0.00    -0.490 N 
ATOM     15  H   LIG    1        2.243   0.833  -1.283  0.00  0.00    +0.440 HD
ATOM     16  H   LIG    1        2.486   0.459   0.303  0.00  0.00    +0.440 HD
ENDBRANCH   2   9
BRANCH   6  17
ATOM     17  C   LIG    1       -4.622   3.271  -1.982  0.00  0.00    +0.190 C 
BRANCH  17  18
ATOM     18  C   LIG    1       -5.978   2.709  -1.551  0.00  0.00    +0.180 C 
BRANCH  18  19
ATOM     19  O   LIG    1       -6.368   3.304  -0.312  0.00  0.00    -0.560 OA
ATOM     20  H   LIG    1       -7.221   2.994   0.022  0.00  0.00    +0.380 HD
ENDBRANCH  18  19
ENDBRANCH  17  18
ENDBRANCH   6  17
TORSDOF 4
ENDMDL
MODEL       87
REMARK  Name = ZINC000088357952
REMARK                            x       y       z     vdW  Elec       q    Type
REMARK                         _______ _______ _______ _____ _____    ______ ____
ROOT
ATOM      1  O   LIG    1       -0.052  -0.003  -0.023  0.00  0.00    -0.520 OA
ATOM      2  C   LIG    1       -0.014   1.209   0.009  0.00  0.00    +0.500 C 
ATOM      3  N   LIG    1       -1.160   1.918   0.035  0.00  0.00    -0.580 N 
ATOM      4  C   LIG    1       -1.141   3.386  -0.049  0.00  0.00    +0.290 C 
ATOM      5  C   LIG    1       -2.109   3.824  -1.153  0.00  0.00    +0.180 C 
ATOM      6  N   LIG    1       -3.430   3.233  -0.904  0.00  0.00    -0.530 NA
ATOM      7  C   LIG    1       -3.378   1.766  -0.965  0.00  0.00    +0.170 C 
ATOM      8  C   LIG    1       -2.463   1.244   0.142  0.00  0.00    +0.300 C 
ENDROOT
BRANCH   2   9
ATOM      9  C   LIG    1        1.313   1.921   0.013  0.00  0.00    +0.140 C 
ATOM     10  C   LIG    1        1.700   2.288  -1.422  0.00  0.00    +0.280 C 
ATOM     11  O   LIG    1        2.986   2.914  -1.418  0.00  0.00    -0.350 OA
ATOM     12  C   LIG    1        4.018   2.103  -0.848  0.00  0.00    +0.270 C 
ATOM     13  C   LIG    1        3.635   1.736   0.588  0.00  0.00    +0.250 C 
ATOM     14  N   LIG    1        2.341   1.040   0.585  0.00  0.00    -0.490 N 
ATOM     15  H   LIG    1        2.411   0.201   0.029  0.00  0.00    +0.440 HD
ATOM     16  H   LIG    1        2.087   0.797   1.531  0.00  0.00    +0.440 HD
ENDBRANCH   2   9
BRANCH   6  17
ATOM     17  C   LIG    1       -4.429   3.763  -1.841  0.00  0.00    +0.190 C 
BRANCH  17  18
ATOM     18  C   LIG    1       -5.827   3.324  -1.400  0.00  0.00    +0.180 C 
BRANCH  18  19
ATOM     19  O   LIG    1       -6.138   3.920  -0.139  0.00  0.00    -0.560 OA
ATOM     20  H   LIG    1       -7.011   3.684   0.203  0.00  0.00    +0.380 HD
ENDBRANCH  18  19
ENDBRANCH  17  18
ENDBRANCH   6  17
TORSDOF 4
ENDMDL
MODEL       88
REMARK  Name = ZINC000215995929
REMARK                            x       y       z     vdW  Elec       q    Type
REMARK                         _______ _______ _______ _____ _____    ______ ____
ROOT
ATOM      1  C   LIG    1       -1.558  -3.274  -0.011  0.00  0.00    +0.290 C 
ENDROOT
BRANCH   1   7
ATOM      2  N   LIG    1       -0.017   1.381   0.010  0.00  0.00    -0.800 N 
ATOM      3  H   LIG    1       -0.863   1.854   0.016  0.00  0.00    +0.440 HD
ATOM      4  H   LIG    1        0.817   1.877   0.004  0.00  0.00    +0.440 HD
ATOM      5  C   LIG    1        0.002  -0.004   0.002  0.00  0.00    +0.600 A 
ATOM      6  N   LIG    1       -1.052  -0.786   0.003  0.00  0.00    -0.510 N 
ATOM      7  C   LIG    1       -0.653  -2.069  -0.007  0.00  0.00    +0.000 A 
ATOM      8  C   LIG    1        0.691  -2.094  -0.014  0.00  0.00    +0.270 A 
ATOM      9  H   LIG    1       -1.974  -0.485   0.009  0.00  0.00    +0.460 HD
ATOM     10  N   LIG    1        1.116  -0.784  -0.013  0.00  0.00    -0.550 N 
ATOM     11  H   LIG    1        2.036  -0.477  -0.018  0.00  0.00    +0.460 HD
ENDBRANCH   1   7
BRANCH   1  12
ATOM     12  O   LIG    1       -0.958  -4.322   0.753  0.00  0.00    -0.520 OA
ATOM     13  H   LIG    1       -0.097  -4.610   0.418  0.00  0.00    +0.380 HD
ENDBRANCH   1  12
BRANCH   1  14
ATOM     14  C   LIG    1       -1.770  -3.749  -1.450  0.00  0.00    +0.170 C 
BRANCH  14  15
ATOM     15  O   LIG    1       -0.502  -3.986  -2.064  0.00  0.00    -0.540 OA
ATOM     16  H   LIG    1        0.032  -4.658  -1.618  0.00  0.00    +0.380 HD
ENDBRANCH  14  15
BRANCH  14  17
ATOM     17  C   LIG    1       -2.585  -5.043  -1.445  0.00  0.00    +0.200 C 
BRANCH  17  18
ATOM     18  O   LIG    1       -3.853  -4.806  -0.830  0.00  0.00    -0.540 OA
ATOM     19  H   LIG    1       -4.386  -4.134  -1.276  0.00  0.00    +0.370 HD
ENDBRANCH  17  18
BRANCH  17  20
ATOM     20  C   LIG    1       -2.797  -5.518  -2.884  0.00  0.00    +0.160 C 
BRANCH  20  21
ATOM     21  O   LIG    1       -3.456  -6.786  -2.875  0.00  0.00    -0.560 OA
ATOM     22  H   LIG    1       -3.623  -7.148  -3.756  0.00  0.00    +0.390 HD
ENDBRANCH  20  21
ENDBRANCH  17  20
ENDBRANCH  14  17
ENDBRANCH   1  14
TORSDOF 8
ENDMDL
MODEL       89
REMARK  Name = ZINC000126359020
REMARK                            x       y       z     vdW  Elec       q    Type
REMARK                         _______ _______ _______ _____ _____    ______ ____
ROOT
ATOM      1  N   LIG    1       -0.795  -0.498  -1.363  0.00  0.00    -1.020 NA
ATOM      2  C   LIG    1       -2.247  -0.735  -1.347  0.00  0.00    +0.330 C 
ATOM      3  C   LIG    1       -2.876   0.024  -2.520  0.00  0.00    +0.250 C 
ATOM      4  N   LIG    1       -2.212  -0.369  -3.769  0.00  0.00    -0.350 N 
ATOM      5  C   LIG    1       -0.804   0.048  -3.739  0.00  0.00    +0.260 C 
ATOM      6  H   LIG    1       -2.262  -1.371  -3.874  0.00  0.00    +0.420 HD
ATOM      7  C   LIG    1       -0.073  -0.705  -2.628  0.00  0.00    +0.340 C 
ENDROOT
BRANCH   1   8
ATOM      8  S   LIG    1        0.002  -0.004   0.002  0.00  0.00    +2.790 S 
ATOM      9  O   LIG    1       -0.792  -0.422   1.104  0.00  0.00    -0.960 OA
ATOM     10  O   LIG    1        1.360  -0.386  -0.166  0.00  0.00    -0.960 OA
BRANCH   8  11
ATOM     11  N   LIG    1       -0.020   1.652   0.011  0.00  0.00    -1.250 NA
ATOM     12  H   LIG    1       -0.867   2.125   0.018  0.00  0.00    +0.420 HD
ATOM     13  H   LIG    1        0.813   2.148   0.006  0.00  0.00    +0.430 HD
ENDBRANCH   8  11
ENDBRANCH   1   8
BRANCH   4  14
ATOM     14  C   LIG    1       -2.885   0.276  -4.904  0.00  0.00    +0.090 C 
ATOM     15  C   LIG    1       -3.318  -0.617  -6.068  0.00  0.00    +0.100 C 
ATOM     16  C   LIG    1       -4.368  -0.038  -5.117  0.00  0.00    +0.100 C 
ENDBRANCH   4  14
TORSDOF 3
ENDMDL
MODEL       90
REMARK  Name = ZINC000002384936
REMARK                            x       y       z     vdW  Elec       q    Type
REMARK                         _______ _______ _______ _____ _____    ______ ____
ROOT
ATOM      1  CA  HIS A  1       -0.699   1.479   1.216  0.00  0.00    +0.180 C 
ENDROOT
BRANCH   1   2
ATOM      2  N   HIS A  1       -0.012   1.005   0.008  0.00  0.00    -0.620 N 
ATOM      3  H1  HIS A  1       -0.500   1.339  -0.810  0.00  0.00    +0.440 HD
ATOM      4  H2  HIS A  1        0.935   1.354   0.000  0.00  0.00    +0.420 HD
ATOM      5  H3  HIS A  1        0.002  -0.004   0.002  0.00  0.00    +0.450 HD
ENDBRANCH   1   2
BRANCH   1   6
ATOM      6  C   HIS A  1       -2.113   0.957   1.227  0.00  0.00    +0.480 C 
ATOM      7  N   GLY A  2       -2.804   0.908   2.383  0.00  0.00    -0.650 N 
ATOM      8  H   GLY A  2       -2.392   1.208   3.208  0.00  0.00    +0.420 HD
ATOM      9  O   HIS A  1       -2.629   0.582   0.195  0.00  0.00    -0.530 OA
BRANCH   7  10
ATOM     10  CA  GLY A  2       -4.179   0.401   2.393  0.00  0.00    +0.200 C 
BRANCH  10  11
ATOM     11  C   GLY A  2       -4.722   0.451   3.798  0.00  0.00    +0.490 C 
ATOM     12  OXT GLY A  2       -5.858   0.071   4.026  0.00  0.00    -0.660 OA
ATOM     13  O   GLY A  2       -4.026   0.871   4.706  0.00  0.00    -0.690 OA
ENDBRANCH  10  11
ENDBRANCH   7  10
ENDBRANCH   1   6
BRANCH   1  14
ATOM     14  CB  HIS A  1       -0.720   3.008   1.225  0.00  0.00    +0.230 C 
BRANCH  14  15
ATOM     15  CG  HIS A  1        0.690   3.529   1.338  0.00  0.00    +0.000 A 
ATOM     16  CD2 HIS A  1        1.391   3.706   2.474  0.00  0.00    +0.290 A 
ATOM     17  NE2 HIS A  1        2.600   4.185   2.144  0.00  0.00    -0.470 N 
ATOM     18  CE1 HIS A  1        2.674   4.312   0.848  0.00  0.00    +0.600 A 
ATOM     19  HE2 HIS A  1        3.308   4.403   2.771  0.00  0.00    +0.480 HD
ATOM     20  ND1 HIS A  1        1.505   3.908   0.305  0.00  0.00    -0.530 N 
ATOM     21  HD1 HIS A  1        1.282   3.895  -0.638  0.00  0.00    +0.470 HD
ENDBRANCH  14  15
ENDBRANCH   1  14
TORSDOF 6
ENDMDL
MODEL       91
REMARK  Name = ZINC000426488509
REMARK                            x       y       z     vdW  Elec       q    Type
REMARK                         _______ _______ _______ _____ _____    ______ ____
ROOT
ATOM      1  N   LIG    1        1.407  -0.193   2.980  0.00  0.00    -0.700 N 
ATOM      2  H   LIG    1        2.143  -0.377   2.377  0.00  0.00    +0.410 HD
ATOM      3  C   LIG    1        1.654   0.211   4.242  0.00  0.00    +0.500 C 
ATOM      4  O   LIG    1        0.733   0.441   4.997  0.00  0.00    -0.520 OA
ENDROOT
BRANCH   1   5
ATOM      5  C   LIG    1        0.025  -0.354   2.521  0.00  0.00    +0.410 C 
BRANCH   5  11
ATOM      6  C   LIG    1       -0.018   1.461   0.010  0.00  0.00    +0.340 C 
ATOM      7  N   LIG    1        0.002  -0.004   0.002  0.00  0.00    -0.450 N 
ATOM      8  C   LIG    1        0.009  -0.810  -1.104  0.00  0.00    +0.150 A 
ATOM      9  C   LIG    1        0.029  -2.081  -0.660  0.00  0.00    +0.160 A 
ATOM     10  N   LIG    1        0.034  -2.052   0.681  0.00  0.00    -0.460 NA
ATOM     11  C   LIG    1        0.023  -0.811   1.085  0.00  0.00    +0.160 A 
ENDBRANCH   5  11
ENDBRANCH   1   5
BRANCH   3  12
ATOM     12  C   LIG    1        3.076   0.376   4.715  0.00  0.00    +0.290 C 
BRANCH  12  13
ATOM     13  N   LIG    1        3.077   0.822   6.115  0.00  0.00    -0.370 N 
ATOM     14  C   LIG    1        2.479   2.160   6.204  0.00  0.00    +0.330 C 
ATOM     15  H   LIG    1        2.540   0.176   6.674  0.00  0.00    +0.440 HD
BRANCH  13  16
ATOM     16  C   LIG    1        4.459   0.868   6.612  0.00  0.00    +0.270 C 
BRANCH  16  17
ATOM     17  C   LIG    1        4.452   1.211   8.103  0.00  0.00    +0.220 C 
BRANCH  17  18
ATOM     18  O   LIG    1        3.824   0.154   8.832  0.00  0.00    -0.580 OA
ATOM     19  H   LIG    1        3.784   0.304   9.787  0.00  0.00    +0.410 HD
ENDBRANCH  17  18
ENDBRANCH  16  17
ENDBRANCH  13  16
ENDBRANCH  12  13
ENDBRANCH   3  12
TORSDOF 7
ENDMDL
MODEL       92
REMARK  Name = ZINC000426488509
REMARK                            x       y       z     vdW  Elec       q    Type
REMARK                         _______ _______ _______ _____ _____    ______ ____
ROOT
ATOM      1  N   LIG    1        1.117   0.182   3.089  0.00  0.00    -0.700 N 
ATOM      2  H   LIG    1        1.812   0.036   2.429  0.00  0.00    +0.410 HD
ATOM      3  C   LIG    1        1.447   0.474   4.363  0.00  0.00    +0.510 C 
ATOM      4  O   LIG    1        0.577   0.658   5.188  0.00  0.00    -0.520 OA
ENDROOT
BRANCH   1   5
ATOM      5  C   LIG    1       -0.293   0.086   2.702  0.00  0.00    +0.410 C 
BRANCH   5  11
ATOM      6  C   LIG    1       -0.439   2.105   0.356  0.00  0.00    +0.340 C 
ATOM      7  N   LIG    1       -0.454   0.646   0.226  0.00  0.00    -0.450 N 
ATOM      8  C   LIG    1       -0.531  -0.065  -0.941  0.00  0.00    +0.150 A 
ATOM      9  C   LIG    1       -0.515  -1.369  -0.605  0.00  0.00    +0.160 A 
ATOM     10  N   LIG    1       -0.431  -1.452   0.731  0.00  0.00    -0.460 NA
ATOM     11  C   LIG    1       -0.389  -0.249   1.236  0.00  0.00    +0.160 A 
ENDBRANCH   5  11
ENDBRANCH   1   5
BRANCH   3  12
ATOM     12  C   LIG    1        2.897   0.574   4.762  0.00  0.00    +0.280 C 
BRANCH  12  13
ATOM     13  N   LIG    1        2.990   0.900   6.191  0.00  0.00    -0.370 N 
ATOM     14  C   LIG    1        2.444  -0.210   6.984  0.00  0.00    +0.330 C 
ATOM     15  H   LIG    1        2.463   1.739   6.380  0.00  0.00    +0.440 HD
BRANCH  13  16
ATOM     16  C   LIG    1        4.398   1.115   6.553  0.00  0.00    +0.290 C 
BRANCH  16  17
ATOM     17  C   LIG    1        4.920   2.368   5.849  0.00  0.00    +0.210 C 
BRANCH  17  18
ATOM     18  O   LIG    1        4.219   3.515   6.335  0.00  0.00    -0.580 OA
ATOM     19  H   LIG    1        4.499   4.348   5.931  0.00  0.00    +0.410 HD
ENDBRANCH  17  18
ENDBRANCH  16  17
ENDBRANCH  13  16
ENDBRANCH  12  13
ENDBRANCH   3  12
TORSDOF 7
ENDMDL
MODEL       93
REMARK  Name = ZINC000005613089
REMARK                            x       y       z     vdW  Elec       q    Type
REMARK                         _______ _______ _______ _____ _____    ______ ____
ROOT
ATOM      1  N   LIG    1        0.002  -0.004   0.002  0.00  0.00    -0.460 N 
ATOM      2  H   LIG    1       -0.467  -0.492  -0.693  0.00  0.00    +0.440 HD
ATOM      3  C   LIG    1        0.686  -0.688   0.980  0.00  0.00    +0.460 C 
ATOM      4  N   LIG    1        0.785  -2.003   1.081  0.00  0.00    -0.620 N 
ATOM      5  C   LIG    1        1.472  -2.466   2.244  0.00  0.00    +0.250 C 
ATOM      6  C   LIG    1        2.097  -3.834   2.398  0.00  0.00    -0.260 C 
ATOM      7  S   LIG    1        3.218  -3.599   3.842  0.00  0.00    +2.410 S 
ATOM      8  C   LIG    1        2.994  -1.773   3.989  0.00  0.00    -0.230 C 
ATOM      9  O   LIG    1        4.555  -3.885   3.453  0.00  0.00    -0.890 OA
ATOM     10  O   LIG    1        2.660  -4.237   4.982  0.00  0.00    -0.890 OA
ATOM     11  C   LIG    1        2.632  -1.437   2.525  0.00  0.00    +0.030 C 
ATOM     12  H   LIG    1        0.418  -2.607   0.416  0.00  0.00    +0.440 HD
ATOM     13  S   LIG    1        1.601   0.049   2.328  0.00  0.00    +0.130 S 
ENDROOT
BRANCH   1  14
ATOM     14  N   LIG    1       -0.016   1.362   0.009  0.00  0.00    -0.590 N 
ATOM     15  H   LIG    1       -0.555   1.720  -0.765  0.00  0.00    +0.400 HD
ATOM     16  H   LIG    1        0.920   1.736   0.003  0.00  0.00    +0.380 HD
ENDBRANCH   1  14
TORSDOF 1
ENDMDL
MODEL       94
REMARK  Name = ZINC000053193391
REMARK                            x       y       z     vdW  Elec       q    Type
REMARK                         _______ _______ _______ _____ _____    ______ ____
ROOT
ATOM      1  C   LIG    1       -1.136  -2.159   0.001  0.00  0.00    +0.230 C 
ATOM      2  C   LIG    1       -0.993  -2.676   1.435  0.00  0.00    +0.340 C 
ATOM      3  O   LIG    1       -1.032  -4.105   1.430  0.00  0.00    -0.360 OA
ATOM      4  C   LIG    1       -2.252  -4.653   0.927  0.00  0.00    +0.170 C 
ATOM      5  C   LIG    1       -2.446  -4.215  -0.526  0.00  0.00    +0.140 C 
ATOM      6  C   LIG    1       -2.444  -2.685  -0.596  0.00  0.00    +0.210 C 
ENDROOT
BRANCH   1   9
ATOM      7  C   LIG    1       -0.018   1.503   0.010  0.00  0.00    +0.130 C 
ATOM      8  C   LIG    1        0.002  -0.004   0.002  0.00  0.00    +0.510 C 
ATOM      9  N   LIG    1       -1.156  -0.694   0.009  0.00  0.00    -0.720 N 
ATOM     10  H   LIG    1       -2.002  -0.220   0.020  0.00  0.00    +0.420 HD
ATOM     11  O   LIG    1        1.060  -0.596  -0.011  0.00  0.00    -0.550 OA
ENDBRANCH   1   9
BRANCH   2  12
ATOM     12  N   LIG    1        0.288  -2.223   1.994  0.00  0.00    -0.620 N 
ATOM     13  H   LIG    1        1.046  -2.579   1.431  0.00  0.00    +0.450 HD
ATOM     14  H   LIG    1        0.382  -2.564   2.939  0.00  0.00    +0.440 HD
ATOM     15  H   LIG    1        0.316  -1.214   1.996  0.00  0.00    +0.440 HD
ENDBRANCH   2  12
BRANCH   5  16
ATOM     16  O   LIG    1       -3.692  -4.716  -1.014  0.00  0.00    -0.550 OA
ATOM     17  H   LIG    1       -3.763  -5.680  -0.995  0.00  0.00    +0.400 HD
ENDBRANCH   5  16
BRANCH   6  18
ATOM     18  O   LIG    1       -2.553  -2.268  -1.959  0.00  0.00    -0.540 OA
ATOM     19  H   LIG    1       -3.358  -2.573  -2.400  0.00  0.00    +0.410 HD
ENDBRANCH   6  18
BRANCH   4  20
ATOM     20  C   LIG    1       -2.191  -6.181   0.997  0.00  0.00    +0.230 C 
BRANCH  20  21
ATOM     21  O   LIG    1       -2.126  -6.593   2.363  0.00  0.00    -0.570 OA
ATOM     22  H   LIG    1       -2.085  -7.552   2.483  0.00  0.00    +0.400 HD
ENDBRANCH  20  21
ENDBRANCH   4  20
TORSDOF 6
ENDMDL
MODEL       95
REMARK  Name = ZINC000068604505
REMARK                            x       y       z     vdW  Elec       q    Type
REMARK                         _______ _______ _______ _____ _____    ______ ____
ROOT
ATOM      1  O   LIG    1        0.002  -0.004   0.002  0.00  0.00    -0.440 OA
ATOM      2  C   LIG    1       -0.014   1.209   0.009  0.00  0.00    +0.460 C 
ATOM      3  C   LIG    1       -1.321   1.959   0.032  0.00  0.00    +0.230 C 
ATOM      4  N   LIG    1       -2.406   1.042   0.406  0.00  0.00    -0.660 NA
ATOM      5  H   LIG    1       -3.305   1.421   0.150  0.00  0.00    +0.370 HD
ATOM      6  C   LIG    1       -2.357   0.726   1.840  0.00  0.00    +0.230 C 
ATOM      7  C   LIG    1       -1.213  -0.217   2.108  0.00  0.00    +0.450 C 
ATOM      8  N   LIG    1       -0.704  -0.289   3.374  0.00  0.00    -0.750 N 
ATOM      9  H   LIG    1       -1.053   0.243   4.106  0.00  0.00    +0.420 HD
ATOM     10  C   LIG    1        0.420  -1.238   3.551  0.00  0.00    +0.320 C 
ATOM     11  C   LIG    1        1.727  -0.513   3.225  0.00  0.00    +0.240 C 
ATOM     12  N   LIG    1        1.924  -0.489   1.770  0.00  0.00    -0.520 N 
ATOM     13  C   LIG    1        2.725   0.687   1.404  0.00  0.00    +0.240 C 
ATOM     14  C   LIG    1        2.389   1.107  -0.028  0.00  0.00    +0.320 C 
ATOM     15  H   LIG    1        1.028  -0.441   1.310  0.00  0.00    +0.430 HD
ATOM     16  H   LIG    1        2.406  -1.327   1.481  0.00  0.00    +0.420 HD
ATOM     17  O   LIG    1       -0.752  -0.899   1.217  0.00  0.00    -0.430 OA
ATOM     18  N   LIG    1        1.152   1.921   0.001  0.00  0.00    -0.750 N 
ATOM     19  H   LIG    1        1.168   2.891   0.009  0.00  0.00    +0.420 HD
ENDROOT
TORSDOF 0
ENDMDL
MODEL       96
REMARK  Name = ZINC000014732702
REMARK                            x       y       z     vdW  Elec       q    Type
REMARK                         _______ _______ _______ _____ _____    ______ ____
ROOT
ATOM      1  O   UNK A  1        0.002  -0.004   0.002  0.00  0.00    -0.480 OA
ATOM      2  C   UNK A  1       -0.014   1.209   0.009  0.00  0.00    +0.550 C 
ATOM      3  C   UNK A  1       -1.327   1.943   0.031  0.00  0.00    +0.240 C 
ATOM      4  C   UNK A  1       -2.154   1.405   1.200  0.00  0.00    +0.280 C 
ATOM      5  N   UNK A  1       -3.503   1.982   1.151  0.00  0.00    -0.500 N 
ATOM      6  C   UNK A  1       -3.442   3.432   1.373  0.00  0.00    +0.280 C 
ATOM      7  C   UNK A  1       -2.643   4.089   0.240  0.00  0.00    +0.350 C 
ATOM      8  H   UNK A  1       -4.074   1.560   1.868  0.00  0.00    +0.440 HD
ATOM      9  H   UNK A  1       -3.913   1.800   0.247  0.00  0.00    +0.430 HD
ATOM     10  N   UNK A  1       -1.349   3.406   0.142  0.00  0.00    -0.620 N 
ATOM     11  C   UNK A  2       -0.196   4.098   0.156  0.00  0.00    +0.550 C 
ATOM     12  C   UNK A  2        1.115   3.360   0.165  0.00  0.00    +0.220 C 
ATOM     13  C   UNK A  2        1.989   3.970  -0.961  0.00  0.00    +0.170 C 
ATOM     14  S   UNK A  2        3.415   2.809  -0.952  0.00  0.00    -0.220 S 
ATOM     15  C   UNK A  2        2.537   1.420  -0.138  0.00  0.00    +0.410 C 
ATOM     16  O   UNK A  2       -0.213   5.311   0.160  0.00  0.00    -0.470 OA
ATOM     17  N   UNK A  2        1.146   1.900   0.001  0.00  0.00    -0.600 N 
ENDROOT
TORSDOF 0
ENDMDL
MODEL       97
REMARK  Name = ZINC000008769238
REMARK                            x       y       z     vdW  Elec       q    Type
REMARK                         _______ _______ _______ _____ _____    ______ ____
ROOT
ATOM      1  C   LIG    1       -0.018   1.461   0.010  0.00  0.00    +0.360 C 
ATOM      2  N   LIG    1        0.002  -0.004   0.002  0.00  0.00    -0.570 N 
ATOM      3  C   LIG    1        0.007  -0.750  -1.109  0.00  0.00    +0.700 C 
ATOM      4  N   LIG    1        0.027  -2.070  -0.842  0.00  0.00    -0.730 N 
ATOM      5  H   LIG    1        0.034  -2.794  -1.487  0.00  0.00    +0.440 HD
ATOM      6  C   LIG    1        0.035  -2.196   0.621  0.00  0.00    +0.110 C 
ATOM      7  C   LIG    1       -1.205  -2.943   1.101  0.00  0.00    +0.110 C 
ATOM      8  C   LIG    1       -1.136  -4.397   0.626  0.00  0.00    +0.280 C 
ATOM      9  N   LIG    1        0.077  -5.030   1.157  0.00  0.00    -0.370 N 
ATOM     10  C   LIG    1        1.267  -4.364   0.615  0.00  0.00    +0.270 C 
ATOM     11  H   LIG    1        0.080  -4.957   2.163  0.00  0.00    +0.430 HD
ATOM     12  C   LIG    1        1.300  -2.908   1.090  0.00  0.00    +0.110 C 
ATOM     13  O   LIG    1       -0.004  -0.289  -2.234  0.00  0.00    -0.510 OA
ATOM     14  C   LIG    1        0.023  -0.768   1.114  0.00  0.00    +0.530 C 
ATOM     15  O   LIG    1        0.025  -0.389   2.265  0.00  0.00    -0.440 OA
ENDROOT
BRANCH   9  16
ATOM     16  C   LIG    1        0.096  -6.448   0.771  0.00  0.00    +0.300 C 
BRANCH  16  17
ATOM     17  C   LIG    1        1.275  -7.128   1.416  0.00  0.00    +0.510 C 
ATOM     18  O   LIG    1        2.026  -6.495   2.128  0.00  0.00    -0.530 OA
ATOM     19  N   LIG    1        1.496  -8.441   1.203  0.00  0.00    -0.820 N 
ATOM     20  H   LIG    1        2.255  -8.879   1.618  0.00  0.00    +0.430 HD
ATOM     21  H   LIG    1        0.895  -8.947   0.634  0.00  0.00    +0.410 HD
ENDBRANCH  16  17
ENDBRANCH   9  16
TORSDOF 2
ENDMDL
MODEL       98
REMARK  Name = ZINC000050103469
REMARK                            x       y       z     vdW  Elec       q    Type
REMARK                         _______ _______ _______ _____ _____    ______ ____
ROOT
ATOM      1  N   LIG    1       -1.117   4.220   1.248  0.00  0.00    -0.510 NA
ATOM      2  C   LIG    1       -2.569   4.117   1.453  0.00  0.00    +0.200 C 
ATOM      3  C   LIG    1       -2.948   4.820   2.758  0.00  0.00    +0.280 C 
ATOM      4  N   LIG    1       -2.545   6.230   2.690  0.00  0.00    -0.390 N 
ATOM      5  C   LIG    1       -1.089   6.317   2.511  0.00  0.00    +0.270 C 
ATOM      6  H   LIG    1       -3.007   6.675   1.911  0.00  0.00    +0.430 HD
ATOM      7  C   LIG    1       -0.695   5.627   1.203  0.00  0.00    +0.220 C 
ENDROOT
BRANCH   1  11
ATOM      8  O   LIG    1       -2.958   2.855  -2.675  0.00  0.00    -0.460 OA
ATOM      9  C   LIG    1       -2.227   2.859  -1.708  0.00  0.00    +0.530 C 
ATOM     10  C   LIG    1       -1.454   4.057  -1.199  0.00  0.00    +0.060 C 
ATOM     11  C   LIG    1       -0.705   3.507   0.032  0.00  0.00    +0.200 C 
ATOM     12  C   LIG    1       -1.134   2.057   0.089  0.00  0.00    +0.530 C 
ATOM     13  O   LIG    1       -0.772   1.250   0.918  0.00  0.00    -0.450 OA
ATOM     14  N   LIG    1       -1.980   1.808  -0.917  0.00  0.00    -0.680 N 
ATOM     15  H   LIG    1       -2.377   0.935  -1.066  0.00  0.00    +0.430 HD
ENDBRANCH   1  11
BRANCH   4  16
ATOM     16  C   LIG    1       -2.925   6.909   3.937  0.00  0.00    +0.290 C 
BRANCH  16  17
ATOM     17  C   LIG    1       -2.618   8.403   3.818  0.00  0.00    +0.210 C 
BRANCH  17  18
ATOM     18  O   LIG    1       -3.446   8.980   2.806  0.00  0.00    -0.580 OA
ATOM     19  H   LIG    1       -3.305   9.928   2.676  0.00  0.00    +0.410 HD
ENDBRANCH  17  18
ENDBRANCH  16  17
ENDBRANCH   4  16
TORSDOF 4
ENDMDL
MODEL       99
REMARK  Name = ZINC000065431787
REMARK                            x       y       z     vdW  Elec       q    Type
REMARK                         _______ _______ _______ _____ _____    ______ ____
ROOT
ATOM      1  O   LIG    1        0.002  -0.004   0.002  0.00  0.00    -0.530 OA
ATOM      2  C   LIG    1       -0.014   1.209   0.009  0.00  0.00    +0.540 C 
ATOM      3  N   LIG    1       -1.195   1.841   0.029  0.00  0.00    -0.710 N 
ATOM      4  H   LIG    1       -2.003   1.306   0.081  0.00  0.00    +0.410 HD
ATOM      5  C   LIG    1       -1.327   3.293  -0.024  0.00  0.00    +0.300 C 
ATOM      6  C   LIG    1        0.004   3.966   0.322  0.00  0.00    +0.210 C 
ATOM      7  N   LIG    1        1.068   3.331  -0.464  0.00  0.00    -0.540 NA
ATOM      8  C   LIG    1        2.321   4.092  -0.433  0.00  0.00    +0.230 C 
ATOM      9  C   LIG    1        3.342   3.402  -1.343  0.00  0.00    +0.270 C 
ATOM     10  N   LIG    1        3.561   2.023  -0.892  0.00  0.00    -0.380 N 
ATOM     11  C   LIG    1        2.297   1.274  -0.931  0.00  0.00    +0.300 C 
ATOM     12  H   LIG    1        3.916   2.032   0.052  0.00  0.00    +0.430 HD
ATOM     13  C   LIG    1        1.288   1.952   0.000  0.00  0.00    +0.150 C 
ENDROOT
BRANCH  10  14
ATOM     14  C   LIG    1        4.539   1.371  -1.774  0.00  0.00    +0.190 C 
BRANCH  14  15
ATOM     15  C   LIG    1        4.769  -0.067  -1.306  0.00  0.00    +0.210 C 
BRANCH  15  16
ATOM     16  O   LIG    1        5.376  -0.055  -0.012  0.00  0.00    -0.550 OA
ATOM     17  H   LIG    1        5.552  -0.935   0.348  0.00  0.00    +0.400 HD
ENDBRANCH  15  16
ENDBRANCH  14  15
BRANCH  14  18
ATOM     18  C   LIG    1        5.861   2.141  -1.727  0.00  0.00    +0.210 C 
BRANCH  18  19
ATOM     19  O   LIG    1        6.417   2.051  -0.414  0.00  0.00    -0.550 OA
ATOM     20  H   LIG    1        7.258   2.518  -0.311  0.00  0.00    +0.400 HD
ENDBRANCH  18  19
ENDBRANCH  14  18
ENDBRANCH  10  14
TORSDOF 5
ENDMDL
MODEL      100
REMARK  Name = ZINC000001771394
REMARK                            x       y       z     vdW  Elec       q    Type
REMARK                         _______ _______ _______ _____ _____    ______ ____
ROOT
ATOM      1  N   LIG    1       -4.187  -0.253  -2.522  0.00  0.00    -0.670 NA
ATOM      2  H   LIG    1       -4.157   0.747  -2.655  0.00  0.00    +0.370 HD
ENDROOT
BRANCH   1   3
ATOM      3  C   LIG    1       -5.571  -0.746  -2.547  0.00  0.00    +0.180 C 
ATOM      4  C   LIG    1       -5.574  -2.203  -3.051  0.00  0.00    -0.290 C 
ATOM      5  S   LIG    1       -7.149  -2.307  -3.993  0.00  0.00    +2.390 S 
ATOM      6  C   LIG    1       -7.052  -0.579  -4.612  0.00  0.00    -0.330 C 
ATOM      7  O   LIG    1       -8.241  -2.436  -3.092  0.00  0.00    -0.920 OA
ATOM      8  O   LIG    1       -7.004  -3.216  -5.076  0.00  0.00    -0.920 OA
ATOM      9  C   LIG    1       -6.406   0.171  -3.433  0.00  0.00    +0.200 C 
BRANCH   9  10
ATOM     10  O   LIG    1       -5.566   1.207  -3.946  0.00  0.00    -0.550 OA
ATOM     11  H   LIG    1       -6.036   1.872  -4.467  0.00  0.00    +0.390 HD
ENDBRANCH   9  10
ENDBRANCH   1   3
BRANCH   1  12
ATOM     12  C   LIG    1       -3.513  -0.640  -1.275  0.00  0.00    +0.170 C 
BRANCH  12  13
ATOM     13  C   LIG    1       -2.078  -0.110  -1.286  0.00  0.00    +0.040 C 
BRANCH  13  14
ATOM     14  C   LIG    1       -1.376  -0.512   0.012  0.00  0.00    +0.250 C 
BRANCH  14  16
ATOM     15  C   LIG    1       -0.018   1.465   0.010  0.00  0.00    +0.310 C 
ATOM     16  N   LIG    1        0.002  -0.004   0.002  0.00  0.00    -0.390 N 
ATOM     17  C   LIG    1        0.713  -0.491   1.192  0.00  0.00    +0.320 C 
ATOM     18  H   LIG    1        0.474  -0.330  -0.828  0.00  0.00    +0.430 HD
ENDBRANCH  14  16
ENDBRANCH  13  14
ENDBRANCH  12  13
ENDBRANCH   1  12
TORSDOF 6
ENDMDL
MODEL      101
REMARK  Name = ZINC000001771393
REMARK                            x       y       z     vdW  Elec       q    Type
REMARK                         _______ _______ _______ _____ _____    ______ ____
ROOT
ATOM      1  N   LIG    1       -4.187  -0.253  -2.522  0.00  0.00    -0.670 NA
ATOM      2  H   LIG    1       -4.157   0.747  -2.655  0.00  0.00    +0.350 HD
ENDROOT
BRANCH   1   3
ATOM      3  C   LIG    1       -5.571  -0.746  -2.547  0.00  0.00    +0.220 C 
ATOM      4  C   LIG    1       -6.501   0.275  -1.840  0.00  0.00    -0.350 C 
ATOM      5  S   LIG    1       -8.146  -0.239  -2.481  0.00  0.00    +2.400 S 
ATOM      6  C   LIG    1       -7.545  -0.686  -4.153  0.00  0.00    -0.330 C 
ATOM      7  O   LIG    1       -9.000   0.894  -2.563  0.00  0.00    -0.920 OA
ATOM      8  O   LIG    1       -8.579  -1.409  -1.800  0.00  0.00    -0.920 OA
ATOM      9  C   LIG    1       -6.035  -0.905  -3.996  0.00  0.00    +0.210 C 
BRANCH   9  10
ATOM     10  O   LIG    1       -5.709  -2.224  -4.438  0.00  0.00    -0.550 OA
ATOM     11  H   LIG    1       -5.912  -2.389  -5.369  0.00  0.00    +0.390 HD
ENDBRANCH   9  10
ENDBRANCH   1   3
BRANCH   1  12
ATOM     12  C   LIG    1       -3.513  -0.640  -1.275  0.00  0.00    +0.200 C 
BRANCH  12  13
ATOM     13  C   LIG    1       -2.078  -0.110  -1.286  0.00  0.00    +0.040 C 
BRANCH  13  14
ATOM     14  C   LIG    1       -1.376  -0.512   0.012  0.00  0.00    +0.250 C 
BRANCH  14  16
ATOM     15  C   LIG    1       -0.018   1.465   0.010  0.00  0.00    +0.320 C 
ATOM     16  N   LIG    1        0.002  -0.004   0.002  0.00  0.00    -0.390 N 
ATOM     17  C   LIG    1        0.713  -0.491   1.192  0.00  0.00    +0.320 C 
ATOM     18  H   LIG    1        0.474  -0.330  -0.828  0.00  0.00    +0.430 HD
ENDBRANCH  14  16
ENDBRANCH  13  14
ENDBRANCH  12  13
ENDBRANCH   1  12
TORSDOF 6
ENDMDL
MODEL      102
REMARK  Name = ZINC000379341096
REMARK                            x       y       z     vdW  Elec       q    Type
REMARK                         _______ _______ _______ _____ _____    ______ ____
ROOT
ATOM      1  C   LIG    1       -1.558  -3.274  -0.011  0.00  0.00    +0.290 C 
ENDROOT
BRANCH   1   7
ATOM      2  N   LIG    1       -0.017   1.381   0.010  0.00  0.00    -0.800 N 
ATOM      3  H   LIG    1       -0.863   1.854   0.016  0.00  0.00    +0.440 HD
ATOM      4  H   LIG    1        0.817   1.877   0.004  0.00  0.00    +0.440 HD
ATOM      5  C   LIG    1        0.002  -0.004   0.002  0.00  0.00    +0.600 A 
ATOM      6  N   LIG    1       -1.052  -0.786   0.003  0.00  0.00    -0.510 N 
ATOM      7  C   LIG    1       -0.653  -2.069  -0.007  0.00  0.00    +0.000 A 
ATOM      8  C   LIG    1        0.691  -2.094  -0.014  0.00  0.00    +0.270 A 
ATOM      9  H   LIG    1       -1.974  -0.485   0.009  0.00  0.00    +0.460 HD
ATOM     10  N   LIG    1        1.116  -0.784  -0.013  0.00  0.00    -0.550 N 
ATOM     11  H   LIG    1        2.036  -0.477  -0.018  0.00  0.00    +0.460 HD
ENDBRANCH   1   7
BRANCH   1  12
ATOM     12  O   LIG    1       -0.958  -4.322   0.753  0.00  0.00    -0.500 OA
ATOM     13  H   LIG    1       -0.097  -4.610   0.418  0.00  0.00    +0.370 HD
ENDBRANCH   1  12
BRANCH   1  14
ATOM     14  C   LIG    1       -1.770  -3.749  -1.450  0.00  0.00    +0.170 C 
BRANCH  14  15
ATOM     15  O   LIG    1       -0.502  -3.986  -2.064  0.00  0.00    -0.550 OA
ATOM     16  H   LIG    1        0.032  -4.658  -1.618  0.00  0.00    +0.380 HD
ENDBRANCH  14  15
BRANCH  14  17
ATOM     17  C   LIG    1       -2.585  -5.043  -1.445  0.00  0.00    +0.200 C 
BRANCH  17  18
ATOM     18  O   LIG    1       -1.938  -6.011  -0.615  0.00  0.00    -0.520 OA
ATOM     19  H   LIG    1       -1.042  -6.238  -0.901  0.00  0.00    +0.370 HD
ENDBRANCH  17  18
BRANCH  17  20
ATOM     20  C   LIG    1       -2.691  -5.585  -2.872  0.00  0.00    +0.160 C 
BRANCH  20  21
ATOM     21  O   LIG    1       -3.547  -6.728  -2.885  0.00  0.00    -0.560 OA
ATOM     22  H   LIG    1       -3.661  -7.124  -3.760  0.00  0.00    +0.390 HD
ENDBRANCH  20  21
ENDBRANCH  17  20
ENDBRANCH  14  17
ENDBRANCH   1  14
TORSDOF 8
ENDMDL
MODEL      103
REMARK  Name = ZINC000379341095
REMARK                            x       y       z     vdW  Elec       q    Type
REMARK                         _______ _______ _______ _____ _____    ______ ____
ROOT
ATOM      1  C   LIG    1       -1.558  -3.274  -0.011  0.00  0.00    +0.280 C 
ENDROOT
BRANCH   1   7
ATOM      2  N   LIG    1       -0.017   1.381   0.010  0.00  0.00    -0.800 N 
ATOM      3  H   LIG    1       -0.863   1.854   0.016  0.00  0.00    +0.440 HD
ATOM      4  H   LIG    1        0.817   1.877   0.004  0.00  0.00    +0.440 HD
ATOM      5  C   LIG    1        0.002  -0.004   0.002  0.00  0.00    +0.600 A 
ATOM      6  N   LIG    1       -1.052  -0.786   0.003  0.00  0.00    -0.510 N 
ATOM      7  C   LIG    1       -0.653  -2.069  -0.007  0.00  0.00    +0.010 A 
ATOM      8  C   LIG    1        0.691  -2.094  -0.014  0.00  0.00    +0.260 A 
ATOM      9  H   LIG    1       -1.974  -0.485   0.009  0.00  0.00    +0.460 HD
ATOM     10  N   LIG    1        1.116  -0.784  -0.013  0.00  0.00    -0.550 N 
ATOM     11  H   LIG    1        2.036  -0.477  -0.018  0.00  0.00    +0.460 HD
ENDBRANCH   1   7
BRANCH   1  12
ATOM     12  O   LIG    1       -0.958  -4.322   0.753  0.00  0.00    -0.520 OA
ATOM     13  H   LIG    1       -0.097  -4.610   0.418  0.00  0.00    +0.390 HD
ENDBRANCH   1  12
BRANCH   1  14
ATOM     14  C   LIG    1       -1.770  -3.749  -1.450  0.00  0.00    +0.170 C 
BRANCH  14  15
ATOM     15  O   LIG    1       -2.369  -2.700  -2.213  0.00  0.00    -0.550 OA
ATOM     16  H   LIG    1       -3.230  -2.413  -1.878  0.00  0.00    +0.380 HD
ENDBRANCH  14  15
BRANCH  14  17
ATOM     17  C   LIG    1       -2.688  -4.972  -1.453  0.00  0.00    +0.210 C 
BRANCH  17  18
ATOM     18  O   LIG    1       -3.904  -4.657  -0.772  0.00  0.00    -0.540 OA
ATOM     19  H   LIG    1       -4.399  -3.927  -1.169  0.00  0.00    +0.370 HD
ENDBRANCH  17  18
BRANCH  17  20
ATOM     20  C   LIG    1       -3.001  -5.371  -2.897  0.00  0.00    +0.170 C 
BRANCH  20  21
ATOM     21  O   LIG    1       -3.762  -6.581  -2.902  0.00  0.00    -0.560 OA
ATOM     22  H   LIG    1       -3.996  -6.894  -3.787  0.00  0.00    +0.390 HD
ENDBRANCH  20  21
ENDBRANCH  17  20
ENDBRANCH  14  17
ENDBRANCH   1  14
TORSDOF 8
ENDMDL
MODEL      104
REMARK  Name = ZINC000020356128
REMARK                            x       y       z     vdW  Elec       q    Type
REMARK                         _______ _______ _______ _____ _____    ______ ____
ROOT
ATOM      1  C   LIG    1       -3.626   2.095   0.031  0.00  0.00    +0.040 C 
ENDROOT
BRANCH   1   2
ATOM      2  C   LIG    1       -2.449   1.117   0.020  0.00  0.00    +0.280 C 
BRANCH   2   5
ATOM      3  O   LIG    1        0.002  -0.004   0.002  0.00  0.00    -0.510 OA
ATOM      4  C   LIG    1       -0.014   1.209   0.009  0.00  0.00    +0.510 C 
ATOM      5  N   LIG    1       -1.191   1.867   0.018  0.00  0.00    -0.740 N 
ATOM      6  H   LIG    1       -1.204   2.837   0.023  0.00  0.00    +0.400 HD
BRANCH   4   7
ATOM      7  C   LIG    1        1.280   1.980   0.001  0.00  0.00    +0.220 C 
BRANCH   7   8
ATOM      8  O   LIG    1        2.379   1.066  -0.015  0.00  0.00    -0.550 OA
ATOM      9  H   LIG    1        3.246   1.494  -0.021  0.00  0.00    +0.390 HD
ENDBRANCH   7   8
ENDBRANCH   4   7
ENDBRANCH   2   5
ENDBRANCH   1   2
BRANCH   1  10
ATOM     10  C   LIG    1       -4.940   1.312   0.033  0.00  0.00    +0.270 C 
BRANCH  10  11
ATOM     11  N   LIG    1       -6.069   2.252   0.043  0.00  0.00    -0.390 N 
ATOM     12  C   LIG    1       -7.328   1.503   0.165  0.00  0.00    +0.240 C 
ATOM     13  C   LIG    1       -8.503   2.484   0.176  0.00  0.00    +0.260 C 
ATOM     14  O   LIG    1       -8.473   3.269  -1.019  0.00  0.00    -0.360 OA
ATOM     15  C   LIG    1       -7.255   3.999  -1.195  0.00  0.00    +0.260 C 
ATOM     16  C   LIG    1       -6.078   3.022  -1.208  0.00  0.00    +0.230 C 
ATOM     17  H   LIG    1       -5.976   2.882   0.825  0.00  0.00    +0.420 HD
ENDBRANCH  10  11
ENDBRANCH   1  10
TORSDOF 6
ENDMDL
