MODEL        1
REMARK  Name = ZINC000097228740
REMARK                            x       y       z     vdW  Elec       q    Type
REMARK                         _______ _______ _______ _____ _____    ______ ____
ROOT
ATOM      1  C   LIG    1       -0.059   1.458  -0.216  0.00  0.00    +0.230 C 
ATOM      2  N   LIG    1       -0.034  -0.008  -0.129  0.00  0.00    -0.540 NA
ATOM      3  C   LIG    1       -1.397  -0.557  -0.107  0.00  0.00    +0.190 C 
ATOM      4  C   LIG    1       -1.330  -2.085  -0.198  0.00  0.00    +0.310 C 
ATOM      5  N   LIG    1       -0.444  -2.578   0.867  0.00  0.00    -0.600 N 
ATOM      6  C   LIG    1        0.893  -1.977   0.995  0.00  0.00    +0.230 C 
ATOM      7  C   LIG    1       -0.845  -3.556   1.703  0.00  0.00    +0.530 C 
ATOM      8  O   LIG    1       -0.069  -4.018   2.513  0.00  0.00    -0.540 OA
ATOM      9  C   LIG    1        0.738  -0.453   1.039  0.00  0.00    +0.160 C 
ENDROOT
BRANCH   6  10
ATOM     10  C   LIG    1        1.556  -2.468   2.283  0.00  0.00    +0.300 C 
BRANCH  10  11
ATOM     11  N   LIG    1        2.865  -1.819   2.437  0.00  0.00    -0.640 N 
ATOM     12  H   LIG    1        3.339  -2.205   3.240  0.00  0.00    +0.450 HD
ATOM     13  H   LIG    1        2.736  -0.827   2.567  0.00  0.00    +0.430 HD
ATOM     14  H   LIG    1        3.420  -1.981   1.610  0.00  0.00    +0.440 HD
ENDBRANCH  10  11
ENDBRANCH   6  10
BRANCH   7  15
ATOM     15  C   LIG    1       -2.258  -4.074   1.633  0.00  0.00    +0.080 C 
BRANCH  15  16
ATOM     16  C   LIG    1       -2.451  -5.171   2.682  0.00  0.00    +0.290 C 
BRANCH  16  17
ATOM     17  N   LIG    1       -3.829  -5.677   2.614  0.00  0.00    -0.640 N 
ATOM     18  H   LIG    1       -4.003  -6.056   1.695  0.00  0.00    +0.440 HD
ATOM     19  H   LIG    1       -4.474  -4.922   2.794  0.00  0.00    +0.440 HD
ATOM     20  H   LIG    1       -3.957  -6.401   3.305  0.00  0.00    +0.450 HD
ENDBRANCH  16  17
ENDBRANCH  15  16
ENDBRANCH   7  15
TORSDOF 5
ENDMDL
MODEL        2
REMARK  Name = ZINC000097228742
REMARK                            x       y       z     vdW  Elec       q    Type
REMARK                         _______ _______ _______ _____ _____    ______ ____
ROOT
ATOM      1  C   LIG    1       -1.103   0.945   0.326  0.00  0.00    +0.230 C 
ATOM      2  N   LIG    1       -0.674  -0.450   0.157  0.00  0.00    -0.540 NA
ATOM      3  C   LIG    1       -0.042  -0.651  -1.154  0.00  0.00    +0.190 C 
ATOM      4  C   LIG    1        0.226  -2.145  -1.364  0.00  0.00    +0.310 C 
ATOM      5  N   LIG    1        0.999  -2.647  -0.217  0.00  0.00    -0.600 N 
ATOM      6  C   LIG    1        0.499  -2.364   1.136  0.00  0.00    +0.230 C 
ATOM      7  C   LIG    1        2.135  -3.348  -0.403  0.00  0.00    +0.530 C 
ATOM      8  O   LIG    1        2.808  -3.675   0.551  0.00  0.00    -0.540 OA
ATOM      9  C   LIG    1        0.220  -0.861   1.248  0.00  0.00    +0.170 C 
ENDROOT
BRANCH   6  10
ATOM     10  C   LIG    1        1.551  -2.774   2.169  0.00  0.00    +0.300 C 
BRANCH  10  11
ATOM     11  N   LIG    1        1.046  -2.494   3.520  0.00  0.00    -0.640 N 
ATOM     12  H   LIG    1        1.697  -2.851   4.203  0.00  0.00    +0.450 HD
ATOM     13  H   LIG    1        0.150  -2.940   3.643  0.00  0.00    +0.440 HD
ATOM     14  H   LIG    1        0.945  -1.497   3.641  0.00  0.00    +0.430 HD
ENDBRANCH  10  11
ENDBRANCH   6  10
BRANCH   7  15
ATOM     15  C   LIG    1        2.568  -3.726  -1.796  0.00  0.00    +0.070 C 
BRANCH  15  16
ATOM     16  C   LIG    1        3.879  -4.511  -1.726  0.00  0.00    +0.290 C 
BRANCH  16  17
ATOM     17  N   LIG    1        4.302  -4.880  -3.084  0.00  0.00    -0.640 N 
ATOM     18  H   LIG    1        4.439  -4.043  -3.632  0.00  0.00    +0.440 HD
ATOM     19  H   LIG    1        3.590  -5.450  -3.515  0.00  0.00    +0.440 HD
ATOM     20  H   LIG    1        5.166  -5.398  -3.039  0.00  0.00    +0.450 HD
ENDBRANCH  16  17
ENDBRANCH  15  16
ENDBRANCH   7  15
TORSDOF 5
ENDMDL
MODEL        3
REMARK  Name = ZINC000036056723
REMARK                            x       y       z     vdW  Elec       q    Type
REMARK                         _______ _______ _______ _____ _____    ______ ____
ROOT
ATOM      1  C   LIG    1       -0.019   1.526   0.010  0.00  0.00    +0.100 C 
ATOM      2  C   LIG    1        0.002  -0.004   0.002  0.00  0.00    -0.080 C 
ATOM      3  C   LIG    1        0.707  -0.500  -1.269  0.00  0.00    +0.290 C 
ATOM      4  N   LIG    1        0.784  -1.944  -1.223  0.00  0.00    -0.590 NA
ATOM      5  C   LIG    1       -0.496  -2.620  -1.054  0.00  0.00    +0.270 C 
ATOM      6  C   LIG    1       -1.340  -2.063   0.081  0.00  0.00    -0.060 C 
ATOM      7  C   LIG    1       -0.764  -2.403   1.452  0.00  0.00    +0.280 C 
ATOM      8  N   LIG    1        0.605  -1.893   1.567  0.00  0.00    -0.360 N 
ATOM      9  C   LIG    1        1.523  -2.819   0.952  0.00  0.00    +0.210 C 
ATOM     10  H   LIG    1        0.814  -1.932   2.554  0.00  0.00    +0.430 HD
ATOM     11  C   LIG    1        1.872  -2.509  -0.471  0.00  0.00    +0.290 C 
ATOM     12  C   LIG    1       -1.437  -0.535  -0.029  0.00  0.00    +0.110 C 
ATOM     13  C   LIG    1        0.734  -0.506   1.228  0.00  0.00    +0.270 C 
ENDROOT
BRANCH  12  14
ATOM     14  O   LIG    1       -2.179  -0.011   1.073  0.00  0.00    -0.530 OA
ATOM     15  H   LIG    1       -3.085  -0.346   1.133  0.00  0.00    +0.380 HD
ENDBRANCH  12  14
BRANCH  12  16
ATOM     16  C   LIG    1       -2.108  -0.147  -1.348  0.00  0.00    +0.280 C 
BRANCH  16  17
ATOM     17  N   LIG    1       -3.459  -0.721  -1.398  0.00  0.00    -0.640 N 
ATOM     18  H   LIG    1       -3.902  -0.465  -2.268  0.00  0.00    +0.450 HD
ATOM     19  H   LIG    1       -4.004  -0.367  -0.626  0.00  0.00    +0.440 HD
ATOM     20  H   LIG    1       -3.400  -1.726  -1.334  0.00  0.00    +0.430 HD
ENDBRANCH  16  17
ENDBRANCH  12  16
TORSDOF 3
ENDMDL
MODEL        4
REMARK  Name = ZINC000019366373
REMARK                            x       y       z     vdW  Elec       q    Type
REMARK                         _______ _______ _______ _____ _____    ______ ____
ROOT
ATOM      1  N   LIG    1       -2.107  -0.147  -1.234  0.00  0.00    -0.390 N 
ATOM      2  C   LIG    1       -3.518  -0.550  -1.173  0.00  0.00    +0.280 C 
ATOM      3  C   LIG    1       -4.225  -0.131  -2.463  0.00  0.00    +0.240 C 
ATOM      4  N   LIG    1       -3.565  -0.771  -3.610  0.00  0.00    -0.560 NA
ATOM      5  C   LIG    1       -2.145  -0.396  -3.670  0.00  0.00    +0.210 C 
ATOM      6  C   LIG    1       -1.455  -0.813  -2.369  0.00  0.00    +0.270 C 
ATOM      7  H   LIG    1       -2.048   0.853  -1.352  0.00  0.00    +0.430 HD
ENDROOT
BRANCH   1   8
ATOM      8  C   LIG    1       -1.433  -0.534   0.013  0.00  0.00    +0.280 C 
BRANCH   8   9
ATOM      9  C   LIG    1        0.002  -0.004   0.002  0.00  0.00    +0.210 C 
BRANCH   9  10
ATOM     10  O   LIG    1       -0.017   1.425   0.010  0.00  0.00    -0.580 OA
ATOM     11  H   LIG    1        0.861   1.830   0.004  0.00  0.00    +0.410 HD
ENDBRANCH   9  10
ENDBRANCH   8   9
ENDBRANCH   1   8
BRANCH   4  12
ATOM     12  C   LIG    1       -4.250  -0.437  -4.866  0.00  0.00    +0.250 C 
BRANCH  12  13
ATOM     13  C   LIG    1       -3.697  -1.308  -5.996  0.00  0.00    +0.190 C 
ATOM     14  N   LIG    1       -3.811  -2.723  -5.623  0.00  0.00    -0.500 N 
ATOM     15  C   LIG    1       -3.213  -3.563  -6.668  0.00  0.00    +0.260 C 
ATOM     16  C   LIG    1       -3.992  -3.390  -7.973  0.00  0.00    +0.070 C 
ATOM     17  C   LIG    1       -3.937  -1.922  -8.404  0.00  0.00    +0.020 C 
ATOM     18  H   LIG    1       -4.785  -2.965  -5.516  0.00  0.00    +0.440 HD
ATOM     19  H   LIG    1       -3.329  -2.880  -4.750  0.00  0.00    +0.430 HD
ATOM     20  C   LIG    1       -4.495  -1.049  -7.276  0.00  0.00    +0.190 C 
BRANCH  20  21
ATOM     21  O   LIG    1       -5.869  -1.373  -7.057  0.00  0.00    -0.570 OA
ATOM     22  H   LIG    1       -6.434  -1.235  -7.830  0.00  0.00    +0.410 HD
ENDBRANCH  20  21
ENDBRANCH  12  13
ENDBRANCH   4  12
TORSDOF 6
ENDMDL
MODEL        5
REMARK  Name = ZINC000022924039
REMARK                            x       y       z     vdW  Elec       q    Type
REMARK                         _______ _______ _______ _____ _____    ______ ____
ROOT
ATOM      1  C   LIG    1       -0.019   1.526   0.010  0.00  0.00    +0.110 C 
ATOM      2  C   LIG    1        0.002  -0.004   0.002  0.00  0.00    -0.080 C 
ATOM      3  C   LIG    1        0.707  -0.500  -1.269  0.00  0.00    +0.310 C 
ATOM      4  N   LIG    1        0.784  -1.944  -1.223  0.00  0.00    -0.590 NA
ATOM      5  C   LIG    1       -0.496  -2.620  -1.054  0.00  0.00    +0.290 C 
ATOM      6  C   LIG    1       -1.340  -2.063   0.081  0.00  0.00    -0.060 C 
ATOM      7  C   LIG    1       -0.764  -2.403   1.452  0.00  0.00    +0.250 C 
ATOM      8  N   LIG    1        0.605  -1.893   1.567  0.00  0.00    -0.360 N 
ATOM      9  C   LIG    1        1.523  -2.819   0.952  0.00  0.00    +0.230 C 
ATOM     10  H   LIG    1        0.814  -1.932   2.554  0.00  0.00    +0.430 HD
ATOM     11  C   LIG    1        1.872  -2.509  -0.471  0.00  0.00    +0.280 C 
ATOM     12  C   LIG    1       -1.437  -0.535  -0.029  0.00  0.00    +0.120 C 
ATOM     13  C   LIG    1        0.734  -0.506   1.228  0.00  0.00    +0.260 C 
ENDROOT
BRANCH  12  14
ATOM     14  O   LIG    1       -2.064  -0.172  -1.261  0.00  0.00    -0.510 OA
ATOM     15  H   LIG    1       -2.961  -0.518  -1.363  0.00  0.00    +0.390 HD
ENDBRANCH  12  14
BRANCH  12  16
ATOM     16  C   LIG    1       -2.232   0.026   1.151  0.00  0.00    +0.260 C 
BRANCH  16  17
ATOM     17  N   LIG    1       -3.543  -0.633   1.217  0.00  0.00    -0.640 N 
ATOM     18  H   LIG    1       -4.067  -0.263   1.995  0.00  0.00    +0.450 HD
ATOM     19  H   LIG    1       -3.414  -1.627   1.340  0.00  0.00    +0.430 HD
ATOM     20  H   LIG    1       -4.048  -0.464   0.360  0.00  0.00    +0.440 HD
ENDBRANCH  16  17
ENDBRANCH  12  16
TORSDOF 3
ENDMDL
MODEL        6
REMARK  Name = ZINC000019366374
REMARK                            x       y       z     vdW  Elec       q    Type
REMARK                         _______ _______ _______ _____ _____    ______ ____
ROOT
ATOM      1  N   LIG    1       -2.435  -0.343  -1.049  0.00  0.00    -0.390 N 
ATOM      2  C   LIG    1       -3.789  -0.902  -1.156  0.00  0.00    +0.280 C 
ATOM      3  C   LIG    1       -4.442  -0.415  -2.452  0.00  0.00    +0.220 C 
ATOM      4  N   LIG    1       -3.626  -0.839  -3.598  0.00  0.00    -0.510 NA
ATOM      5  C   LIG    1       -2.260  -0.307  -3.492  0.00  0.00    +0.210 C 
ATOM      6  C   LIG    1       -1.626  -0.796  -2.188  0.00  0.00    +0.280 C 
ATOM      7  H   LIG    1       -2.487   0.665  -1.053  0.00  0.00    +0.430 HD
ENDROOT
BRANCH   1   8
ATOM      8  C   LIG    1       -1.816  -0.797   0.203  0.00  0.00    +0.290 C 
BRANCH   8   9
ATOM      9  C   LIG    1       -0.457  -0.116   0.376  0.00  0.00    +0.210 C 
BRANCH   9  10
ATOM     10  O   LIG    1       -0.646   1.291   0.536  0.00  0.00    -0.580 OA
ATOM     11  H   LIG    1        0.176   1.788   0.651  0.00  0.00    +0.410 HD
ENDBRANCH   9  10
ENDBRANCH   8   9
ENDBRANCH   1   8
BRANCH   4  12
ATOM     12  C   LIG    1       -4.250  -0.437  -4.866  0.00  0.00    +0.220 C 
BRANCH  12  13
ATOM     13  C   LIG    1       -3.613  -1.217  -6.018  0.00  0.00    +0.170 C 
ATOM     14  N   LIG    1       -4.128  -0.710  -7.295  0.00  0.00    -0.500 N 
ATOM     15  C   LIG    1       -3.466  -1.401  -8.408  0.00  0.00    +0.260 C 
ATOM     16  C   LIG    1       -3.803  -2.893  -8.361  0.00  0.00    +0.060 C 
ATOM     17  C   LIG    1       -3.315  -3.478  -7.033  0.00  0.00    +0.010 C 
ATOM     18  H   LIG    1       -3.947   0.280  -7.361  0.00  0.00    +0.440 HD
ATOM     19  H   LIG    1       -5.123  -0.873  -7.344  0.00  0.00    +0.430 HD
ATOM     20  C   LIG    1       -3.956  -2.702  -5.879  0.00  0.00    +0.190 C 
BRANCH  20  21
ATOM     21  O   LIG    1       -3.452  -3.194  -4.635  0.00  0.00    -0.530 OA
ATOM     22  H   LIG    1       -3.631  -4.132  -4.482  0.00  0.00    +0.400 HD
ENDBRANCH  20  21
ENDBRANCH  12  13
ENDBRANCH   4  12
TORSDOF 6
ENDMDL
MODEL        7
REMARK  Name = ZINC000019366377
REMARK                            x       y       z     vdW  Elec       q    Type
REMARK                         _______ _______ _______ _____ _____    ______ ____
ROOT
ATOM      1  N   LIG    1       -2.466  -0.394  -1.034  0.00  0.00    -0.390 N 
ATOM      2  C   LIG    1       -3.827  -0.933  -1.156  0.00  0.00    +0.280 C 
ATOM      3  C   LIG    1       -4.462  -0.427  -2.453  0.00  0.00    +0.230 C 
ATOM      4  N   LIG    1       -3.643  -0.856  -3.596  0.00  0.00    -0.530 NA
ATOM      5  C   LIG    1       -2.270  -0.344  -3.475  0.00  0.00    +0.210 C 
ATOM      6  C   LIG    1       -1.653  -0.851  -2.169  0.00  0.00    +0.270 C 
ATOM      7  H   LIG    1       -2.503   0.615  -1.032  0.00  0.00    +0.430 HD
ENDROOT
BRANCH   1   8
ATOM      8  C   LIG    1       -1.863  -0.865   0.220  0.00  0.00    +0.290 C 
BRANCH   8   9
ATOM      9  C   LIG    1       -0.496  -0.205   0.408  0.00  0.00    +0.210 C 
BRANCH   9  10
ATOM     10  O   LIG    1       -0.666   1.204   0.576  0.00  0.00    -0.580 OA
ATOM     11  H   LIG    1        0.162   1.688   0.701  0.00  0.00    +0.410 HD
ENDBRANCH   9  10
ENDBRANCH   8   9
ENDBRANCH   1   8
BRANCH   4  12
ATOM     12  C   LIG    1       -4.250  -0.437  -4.866  0.00  0.00    +0.220 C 
BRANCH  12  13
ATOM     13  C   LIG    1       -3.613  -1.217  -6.018  0.00  0.00    +0.180 C 
ATOM     14  N   LIG    1       -4.128  -0.710  -7.295  0.00  0.00    -0.500 N 
ATOM     15  C   LIG    1       -3.466  -1.401  -8.408  0.00  0.00    +0.260 C 
ATOM     16  C   LIG    1       -3.803  -2.893  -8.361  0.00  0.00    +0.070 C 
ATOM     17  C   LIG    1       -3.315  -3.478  -7.033  0.00  0.00    +0.020 C 
ATOM     18  H   LIG    1       -3.947   0.280  -7.361  0.00  0.00    +0.430 HD
ATOM     19  H   LIG    1       -5.123  -0.873  -7.344  0.00  0.00    +0.440 HD
ATOM     20  C   LIG    1       -3.956  -2.702  -5.879  0.00  0.00    +0.210 C 
BRANCH  20  21
ATOM     21  O   LIG    1       -5.374  -2.872  -5.919  0.00  0.00    -0.570 OA
ATOM     22  H   LIG    1       -5.662  -3.791  -5.839  0.00  0.00    +0.410 HD
ENDBRANCH  20  21
ENDBRANCH  12  13
ENDBRANCH   4  12
TORSDOF 6
ENDMDL
MODEL        8
REMARK  Name = ZINC000019366376
REMARK                            x       y       z     vdW  Elec       q    Type
REMARK                         _______ _______ _______ _____ _____    ______ ____
ROOT
ATOM      1  N   LIG    1       -2.107  -0.147  -1.234  0.00  0.00    -0.390 N 
ATOM      2  C   LIG    1       -3.518  -0.550  -1.173  0.00  0.00    +0.280 C 
ATOM      3  C   LIG    1       -4.225  -0.131  -2.463  0.00  0.00    +0.240 C 
ATOM      4  N   LIG    1       -3.565  -0.771  -3.610  0.00  0.00    -0.560 NA
ATOM      5  C   LIG    1       -2.145  -0.396  -3.670  0.00  0.00    +0.210 C 
ATOM      6  C   LIG    1       -1.455  -0.813  -2.369  0.00  0.00    +0.270 C 
ATOM      7  H   LIG    1       -2.048   0.853  -1.352  0.00  0.00    +0.430 HD
ENDROOT
BRANCH   1   8
ATOM      8  C   LIG    1       -1.433  -0.534   0.013  0.00  0.00    +0.280 C 
BRANCH   8   9
ATOM      9  C   LIG    1        0.002  -0.004   0.002  0.00  0.00    +0.210 C 
BRANCH   9  10
ATOM     10  O   LIG    1       -0.017   1.425   0.010  0.00  0.00    -0.580 OA
ATOM     11  H   LIG    1        0.861   1.830   0.004  0.00  0.00    +0.410 HD
ENDBRANCH   9  10
ENDBRANCH   8   9
ENDBRANCH   1   8
BRANCH   4  12
ATOM     12  C   LIG    1       -4.250  -0.437  -4.866  0.00  0.00    +0.250 C 
BRANCH  12  13
ATOM     13  C   LIG    1       -3.697  -1.308  -5.996  0.00  0.00    +0.180 C 
ATOM     14  N   LIG    1       -3.811  -2.723  -5.623  0.00  0.00    -0.490 N 
ATOM     15  C   LIG    1       -3.213  -3.563  -6.668  0.00  0.00    +0.260 C 
ATOM     16  C   LIG    1       -3.992  -3.390  -7.973  0.00  0.00    +0.060 C 
ATOM     17  C   LIG    1       -3.937  -1.922  -8.404  0.00  0.00    +0.020 C 
ATOM     18  H   LIG    1       -4.785  -2.965  -5.516  0.00  0.00    +0.430 HD
ATOM     19  H   LIG    1       -3.329  -2.880  -4.750  0.00  0.00    +0.430 HD
ATOM     20  C   LIG    1       -4.495  -1.049  -7.276  0.00  0.00    +0.180 C 
BRANCH  20  21
ATOM     21  O   LIG    1       -4.382   0.329  -7.638  0.00  0.00    -0.550 OA
ATOM     22  H   LIG    1       -4.861   0.564  -8.444  0.00  0.00    +0.410 HD
ENDBRANCH  20  21
ENDBRANCH  12  13
ENDBRANCH   4  12
TORSDOF 6
ENDMDL
MODEL        9
REMARK  Name = ZINC000002468877
REMARK                            x       y       z     vdW  Elec       q    Type
REMARK                         _______ _______ _______ _____ _____    ______ ____
ROOT
ATOM      1  O   LIG    1        2.393  -4.451   3.450  0.00  0.00    -0.360 OA
ENDROOT
BRANCH   1   2
ATOM      2  C   LIG    1        1.602  -3.989   2.353  0.00  0.00    +0.170 C 
BRANCH   2   3
ATOM      3  C   LIG    1        1.472  -2.466   2.424  0.00  0.00    +0.220 C 
BRANCH   3   4
ATOM      4  O   LIG    1        0.741  -2.105   3.596  0.00  0.00    -0.540 OA
ATOM      5  H   LIG    1       -0.154  -2.469   3.630  0.00  0.00    +0.390 HD
ENDBRANCH   3   4
BRANCH   3   6
ATOM      6  C   LIG    1        0.733  -1.960   1.184  0.00  0.00    +0.240 C 
BRANCH   6   7
ATOM      7  N   LIG    1        0.713  -0.491   1.192  0.00  0.00    -0.510 N 
ATOM      8  H   LIG    1        0.240  -0.165   2.022  0.00  0.00    +0.430 HD
ATOM      9  H   LIG    1        1.659  -0.141   1.185  0.00  0.00    +0.430 HD
BRANCH   7  11
ATOM     10  C   LIG    1       -0.019   1.526   0.010  0.00  0.00    +0.080 C 
ATOM     11  C   LIG    1        0.002  -0.004   0.002  0.00  0.00    +0.250 C 
ENDBRANCH   7  11
ENDBRANCH   6   7
ENDBRANCH   3   6
ENDBRANCH   2   3
ENDBRANCH   1   2
BRANCH   1  12
ATOM     12  C   LIG    1        2.577  -5.868   3.478  0.00  0.00    +0.170 C 
BRANCH  12  13
ATOM     13  C   LIG    1        3.434  -6.247   4.687  0.00  0.00    +0.220 C 
BRANCH  13  14
ATOM     14  O   LIG    1        4.745  -5.699   4.533  0.00  0.00    -0.540 OA
ATOM     15  H   LIG    1        5.211  -6.010   3.744  0.00  0.00    +0.390 HD
ENDBRANCH  13  14
BRANCH  13  16
ATOM     16  C   LIG    1        3.527  -7.771   4.788  0.00  0.00    +0.240 C 
BRANCH  16  17
ATOM     17  N   LIG    1        4.249  -8.137   6.014  0.00  0.00    -0.510 N 
ATOM     18  H   LIG    1        3.753  -7.777   6.816  0.00  0.00    +0.430 HD
ATOM     19  H   LIG    1        5.178  -7.745   5.988  0.00  0.00    +0.430 HD
BRANCH  17  20
ATOM     20  C   LIG    1        4.338  -9.601   6.111  0.00  0.00    +0.250 C 
ATOM     21  C   LIG    1        5.089  -9.982   7.388  0.00  0.00    +0.080 C 
ENDBRANCH  17  20
ENDBRANCH  16  17
ENDBRANCH  13  16
ENDBRANCH  12  13
ENDBRANCH   1  12
TORSDOF 12
ENDMDL
MODEL       10
REMARK  Name = ZINC000002468880
REMARK                            x       y       z     vdW  Elec       q    Type
REMARK                         _______ _______ _______ _____ _____    ______ ____
ROOT
ATOM      1  O   LIG    1        2.393  -4.451   3.450  0.00  0.00    -0.360 OA
ENDROOT
BRANCH   1   2
ATOM      2  C   LIG    1        1.602  -3.989   2.353  0.00  0.00    +0.170 C 
BRANCH   2   3
ATOM      3  C   LIG    1        1.472  -2.466   2.424  0.00  0.00    +0.220 C 
BRANCH   3   4
ATOM      4  O   LIG    1        0.741  -2.105   3.596  0.00  0.00    -0.540 OA
ATOM      5  H   LIG    1       -0.154  -2.469   3.630  0.00  0.00    +0.390 HD
ENDBRANCH   3   4
BRANCH   3   6
ATOM      6  C   LIG    1        0.733  -1.960   1.184  0.00  0.00    +0.240 C 
BRANCH   6   7
ATOM      7  N   LIG    1        0.713  -0.491   1.192  0.00  0.00    -0.510 N 
ATOM      8  H   LIG    1        0.240  -0.165   2.022  0.00  0.00    +0.430 HD
ATOM      9  H   LIG    1        1.659  -0.141   1.185  0.00  0.00    +0.430 HD
BRANCH   7  11
ATOM     10  C   LIG    1       -0.019   1.526   0.010  0.00  0.00    +0.080 C 
ATOM     11  C   LIG    1        0.002  -0.004   0.002  0.00  0.00    +0.250 C 
ENDBRANCH   7  11
ENDBRANCH   6   7
ENDBRANCH   3   6
ENDBRANCH   2   3
ENDBRANCH   1   2
BRANCH   1  12
ATOM     12  C   LIG    1        2.577  -5.868   3.478  0.00  0.00    +0.170 C 
BRANCH  12  13
ATOM     13  C   LIG    1        3.434  -6.247   4.687  0.00  0.00    +0.220 C 
BRANCH  13  14
ATOM     14  O   LIG    1        2.727  -5.934   5.889  0.00  0.00    -0.540 OA
ATOM     15  H   LIG    1        1.883  -6.397   5.981  0.00  0.00    +0.390 HD
ENDBRANCH  13  14
BRANCH  13  16
ATOM     16  C   LIG    1        3.735  -7.747   4.648  0.00  0.00    +0.250 C 
BRANCH  16  17
ATOM     17  N   LIG    1        4.558  -8.111   5.809  0.00  0.00    -0.500 N 
ATOM     18  H   LIG    1        4.059  -7.890   6.658  0.00  0.00    +0.430 HD
ATOM     19  H   LIG    1        5.424  -7.594   5.784  0.00  0.00    +0.430 HD
BRANCH  17  20
ATOM     20  C   LIG    1        4.847  -9.551   5.772  0.00  0.00    +0.250 C 
ATOM     21  C   LIG    1        5.704  -9.931   6.982  0.00  0.00    +0.080 C 
ENDBRANCH  17  20
ENDBRANCH  16  17
ENDBRANCH  13  16
ENDBRANCH  12  13
ENDBRANCH   1  12
TORSDOF 12
ENDMDL
MODEL       11
REMARK  Name = ZINC000003683769
REMARK                            x       y       z     vdW  Elec       q    Type
REMARK                         _______ _______ _______ _____ _____    ______ ____
ROOT
ATOM      1  O   LIG    1        2.081  -4.471   3.628  0.00  0.00    -0.360 OA
ENDROOT
BRANCH   1   2
ATOM      2  C   LIG    1        1.493  -3.996   2.415  0.00  0.00    +0.170 C 
BRANCH   2   3
ATOM      3  C   LIG    1        1.472  -2.466   2.424  0.00  0.00    +0.220 C 
BRANCH   3   4
ATOM      4  O   LIG    1        2.813  -1.972   2.413  0.00  0.00    -0.540 OA
ATOM      5  H   LIG    1        3.328  -2.246   1.642  0.00  0.00    +0.390 HD
ENDBRANCH   3   4
BRANCH   3   6
ATOM      6  C   LIG    1        0.733  -1.960   1.184  0.00  0.00    +0.250 C 
BRANCH   6   7
ATOM      7  N   LIG    1        0.713  -0.491   1.192  0.00  0.00    -0.500 N 
ATOM      8  H   LIG    1        0.240  -0.165   2.022  0.00  0.00    +0.430 HD
ATOM      9  H   LIG    1        1.659  -0.141   1.185  0.00  0.00    +0.430 HD
BRANCH   7  11
ATOM     10  C   LIG    1       -0.019   1.526   0.010  0.00  0.00    +0.080 C 
ATOM     11  C   LIG    1        0.002  -0.004   0.002  0.00  0.00    +0.250 C 
ENDBRANCH   7  11
ENDBRANCH   6   7
ENDBRANCH   3   6
ENDBRANCH   2   3
ENDBRANCH   1   2
BRANCH   1  12
ATOM     12  C   LIG    1        2.149  -5.896   3.722  0.00  0.00    +0.170 C 
BRANCH  12  13
ATOM     13  C   LIG    1        2.791  -6.289   5.054  0.00  0.00    +0.220 C 
BRANCH  13  14
ATOM     14  O   LIG    1        1.946  -5.879   6.130  0.00  0.00    -0.540 OA
ATOM     15  H   LIG    1        1.064  -6.276   6.111  0.00  0.00    +0.390 HD
ENDBRANCH  13  14
BRANCH  13  16
ATOM     16  C   LIG    1        2.978  -7.807   5.101  0.00  0.00    +0.250 C 
BRANCH  16  17
ATOM     17  N   LIG    1        3.595  -8.184   6.380  0.00  0.00    -0.500 N 
ATOM     18  H   LIG    1        2.998  -7.895   7.140  0.00  0.00    +0.430 HD
ATOM     19  H   LIG    1        4.493  -7.732   6.466  0.00  0.00    +0.430 HD
BRANCH  17  20
ATOM     20  C   LIG    1        3.775  -9.641   6.426  0.00  0.00    +0.250 C 
ATOM     21  C   LIG    1        4.417 -10.034   7.757  0.00  0.00    +0.080 C 
ENDBRANCH  17  20
ENDBRANCH  16  17
ENDBRANCH  13  16
ENDBRANCH  12  13
ENDBRANCH   1  12
TORSDOF 12
ENDMDL
MODEL       12
REMARK  Name = ZINC000019360930
REMARK                            x       y       z     vdW  Elec       q    Type
REMARK                         _______ _______ _______ _____ _____    ______ ____
ROOT
ATOM      1  C   LIG    1       -0.018   1.465   0.010  0.00  0.00    +0.220 C 
ATOM      2  C   LIG    1        1.417   1.994  -0.001  0.00  0.00    +0.280 C 
ATOM      3  N   LIG    1        2.356   0.865   0.016  0.00  0.00    -0.500 N 
ATOM      4  C   LIG    1        3.624   1.291   0.624  0.00  0.00    +0.260 C 
ATOM      5  C   LIG    1        4.677   0.199   0.426  0.00  0.00    +0.230 C 
ATOM      6  O   LIG    1        4.728  -0.631   1.588  0.00  0.00    -0.380 OA
ATOM      7  C   LIG    1        4.576  -2.025   1.314  0.00  0.00    +0.200 C 
ATOM      8  C   LIG    1        3.742  -2.674   2.420  0.00  0.00    +0.200 C 
ATOM      9  O   LIG    1        2.862  -3.644   1.847  0.00  0.00    -0.370 OA
ATOM     10  C   LIG    1        1.582  -3.713   2.478  0.00  0.00    +0.230 C 
ATOM     11  C   LIG    1        0.485  -3.649   1.413  0.00  0.00    +0.260 C 
ATOM     12  N   LIG    1       -0.539  -2.679   1.823  0.00  0.00    -0.510 N 
ATOM     13  C   LIG    1       -1.146  -2.074   0.630  0.00  0.00    +0.280 C 
ATOM     14  C   LIG    1       -1.128  -0.550   0.766  0.00  0.00    +0.240 C 
ATOM     15  H   LIG    1       -0.114  -1.958   2.386  0.00  0.00    +0.420 HD
ATOM     16  H   LIG    1       -1.252  -3.150   2.361  0.00  0.00    +0.440 HD
ATOM     17  H   LIG    1        2.524   0.552  -0.928  0.00  0.00    +0.420 HD
ATOM     18  H   LIG    1        1.963   0.108   0.556  0.00  0.00    +0.430 HD
ATOM     19  N   LIG    1        0.002  -0.004   0.002  0.00  0.00    -0.730 NA
ATOM     20  H   LIG    1        0.006  -0.360  -0.942  0.00  0.00    +0.370 HD
ENDROOT
TORSDOF 0
ENDMDL
MODEL       13
REMARK  Name = ZINC000005494898
REMARK                            x       y       z     vdW  Elec       q    Type
REMARK                         _______ _______ _______ _____ _____    ______ ____
ROOT
ATOM      1  C   LIG    1       -2.401  -0.065   0.009  0.00  0.00    +0.750 C 
ENDROOT
BRANCH   1   2
ATOM      2  N   LIG    1       -2.450   1.273  -0.362  0.00  0.00    -0.870 NA
ATOM      3  H   LIG    1       -2.016   1.944   0.187  0.00  0.00    +0.450 HD
ATOM      4  H   LIG    1       -2.917   1.535  -1.171  0.00  0.00    +0.450 HD
ENDBRANCH   1   2
BRANCH   1   5
ATOM      5  N   LIG    1       -1.191  -0.751  -0.021  0.00  0.00    -0.640 N 
ATOM      6  H   LIG    1       -1.139  -1.657   0.322  0.00  0.00    +0.470 HD
BRANCH   5  10
ATOM      7  N   LIG    1       -0.168   1.049  -1.110  0.00  0.00    -0.800 N 
ATOM      8  H   LIG    1       -0.945   1.269  -1.647  0.00  0.00    +0.450 HD
ATOM      9  H   LIG    1        0.543   1.700  -0.997  0.00  0.00    +0.460 HD
ATOM     10  C   LIG    1       -0.073  -0.148  -0.534  0.00  0.00    +0.780 C 
BRANCH  10  11
ATOM     11  N   LIG    1        1.108  -0.758  -0.456  0.00  0.00    -0.720 N 
ATOM     12  H   LIG    1        1.177  -1.629  -0.036  0.00  0.00    +0.450 HD
ATOM     13  H   LIG    1        1.900  -0.331  -0.819  0.00  0.00    +0.460 HD
ENDBRANCH  10  11
ENDBRANCH   5  10
ENDBRANCH   1   5
BRANCH   1  14
ATOM     14  N   LIG    1       -3.485  -0.674   0.383  0.00  0.00    -0.330 NA
ATOM     15  H   LIG    1       -3.443  -1.595   0.685  0.00  0.00    +0.460 HD
BRANCH  14  16
ATOM     16  N   LIG    1       -4.713  -0.002   0.352  0.00  0.00    -0.520 NA
ATOM     17  C   LIG    1       -5.029   0.979   1.392  0.00  0.00    +0.350 C 
ATOM     18  C   LIG    1       -5.141   2.372   0.765  0.00  0.00    +0.090 C 
ATOM     19  S   LIG    1       -6.416   2.331  -0.529  0.00  0.00    -0.180 S 
ATOM     20  C   LIG    1       -5.851   0.965  -1.587  0.00  0.00    +0.090 C 
ATOM     21  C   LIG    1       -5.665  -0.282  -0.724  0.00  0.00    +0.350 C 
ENDBRANCH  14  16
ENDBRANCH   1  14
TORSDOF 6
ENDMDL
MODEL       14
REMARK  Name = ZINC000001662969
REMARK                            x       y       z     vdW  Elec       q    Type
REMARK                         _______ _______ _______ _____ _____    ______ ____
ROOT
ATOM      1  C   LIG    1       -6.027  -1.279   0.699  0.00  0.00    +0.200 C 
ENDROOT
BRANCH   1   2
ATOM      2  N   LIG    1       -6.154  -1.989  -0.581  0.00  0.00    -0.640 N 
ATOM      3  H   LIG    1       -6.351  -1.325  -1.315  0.00  0.00    +0.430 HD
ATOM      4  H   LIG    1       -6.908  -2.657  -0.521  0.00  0.00    +0.430 HD
ATOM      5  H   LIG    1       -5.292  -2.471  -0.785  0.00  0.00    +0.440 HD
ENDBRANCH   1   2
BRANCH   1   6
ATOM      6  C   LIG    1       -4.884  -0.266   0.609  0.00  0.00    +0.070 C 
BRANCH   6   7
ATOM      7  C   LIG    1       -3.558  -1.007   0.423  0.00  0.00    +0.030 C 
BRANCH   7   8
ATOM      8  C   LIG    1       -2.416   0.007   0.333  0.00  0.00    +0.280 C 
BRANCH   8   9
ATOM      9  N   LIG    1       -1.147  -0.703   0.154  0.00  0.00    -0.690 N 
ATOM     10  H   LIG    1       -1.134  -1.672   0.112  0.00  0.00    +0.430 HD
BRANCH   9  11
ATOM     11  C   LIG    1        0.005  -0.009   0.050  0.00  0.00    +0.710 C 
ATOM     12  N   LIG    1        1.172  -0.661  -0.114  0.00  0.00    -0.540 NA
BRANCH  11  13
ATOM     13  N   LIG    1       -0.012   1.339   0.109  0.00  0.00    -0.840 N 
ATOM     14  H   LIG    1       -0.858   1.813   0.128  0.00  0.00    +0.410 HD
ATOM     15  H   LIG    1        0.822   1.834   0.127  0.00  0.00    +0.430 HD
ENDBRANCH  11  13
BRANCH  12  16
ATOM     16  N   LIG    1        2.283  -0.005  -0.122  0.00  0.00    +0.220 N 
ATOM     17  O   LIG    1        2.704   0.468  -1.162  0.00  0.00    -0.220 OA
ATOM     18  O   LIG    1        2.910   0.142   0.912  0.00  0.00    -0.210 OA
ENDBRANCH  12  16
ENDBRANCH   9  11
ENDBRANCH   8   9
ENDBRANCH   7   8
ENDBRANCH   6   7
ENDBRANCH   1   6
BRANCH   1  19
ATOM     19  C   LIG    1       -7.334  -0.548   1.009  0.00  0.00    +0.230 C 
BRANCH  19  20
ATOM     20  N   LIG    1       -8.449  -1.503   0.978  0.00  0.00    -0.690 NA
ATOM     21  H   LIG    1       -8.489  -1.984   0.091  0.00  0.00    +0.340 HD
BRANCH  20  22
ATOM     22  C   LIG    1       -9.724  -0.835   1.272  0.00  0.00    +0.210 C 
BRANCH  22  23
ATOM     23  C   LIG    1      -10.859  -1.860   1.230  0.00  0.00    +0.270 C 
BRANCH  23  24
ATOM     24  N   LIG    1      -12.133  -1.191   1.524  0.00  0.00    -0.640 N 
ATOM     25  H   LIG    1      -12.882  -1.867   1.497  0.00  0.00    +0.450 HD
ATOM     26  H   LIG    1      -12.303  -0.473   0.836  0.00  0.00    +0.440 HD
ATOM     27  H   LIG    1      -12.091  -0.774   2.442  0.00  0.00    +0.440 HD
ENDBRANCH  23  24
ENDBRANCH  22  23
ENDBRANCH  20  22
ENDBRANCH  19  20
ENDBRANCH   1  19
TORSDOF 13
ENDMDL
MODEL       15
REMARK  Name = ZINC000035679860
REMARK                            x       y       z     vdW  Elec       q    Type
REMARK                         _______ _______ _______ _____ _____    ______ ____
ROOT
ATOM      1  C   LIG    1       -0.699   1.479   1.216  0.00  0.00    +0.190 C 
ATOM      2  C   LIG    1       -0.642   3.021   1.317  0.00  0.00    +0.100 C 
ATOM      3  C   LIG    1       -0.474   3.290   2.796  0.00  0.00    +0.520 C 
ATOM      4  N   LIG    1       -0.084   2.170   3.428  0.00  0.00    -0.620 N 
ATOM      5  O   LIG    1       -0.665   4.361   3.333  0.00  0.00    -0.470 OA
ATOM      6  C   LIG    1        0.063   1.051   2.490  0.00  0.00    +0.310 C 
ENDROOT
BRANCH   1   7
ATOM      7  N   LIG    1       -0.012   1.005   0.008  0.00  0.00    -0.630 N 
ATOM      8  H   LIG    1       -0.500   1.339  -0.810  0.00  0.00    +0.450 HD
ATOM      9  H   LIG    1        0.935   1.354   0.000  0.00  0.00    +0.440 HD
ATOM     10  H   LIG    1        0.002  -0.004   0.002  0.00  0.00    +0.450 HD
ENDBRANCH   1   7
BRANCH   4  11
ATOM     11  C   LIG    1        0.162   2.077   4.870  0.00  0.00    +0.320 C 
BRANCH  11  12
ATOM     12  C   LIG    1       -1.133   1.685   5.584  0.00  0.00    +0.250 C 
BRANCH  12  13
ATOM     13  N   LIG    1       -0.886   1.592   7.029  0.00  0.00    -0.380 N 
ATOM     14  C   LIG    1       -2.096   1.100   7.702  0.00  0.00    +0.240 C 
ATOM     15  C   LIG    1       -1.837   1.004   9.207  0.00  0.00    +0.260 C 
ATOM     16  O   LIG    1       -1.446   2.288   9.701  0.00  0.00    -0.350 OA
ATOM     17  C   LIG    1       -0.285   2.821   9.059  0.00  0.00    +0.270 C 
ATOM     18  C   LIG    1       -0.541   2.921   7.553  0.00  0.00    +0.230 C 
ATOM     19  H   LIG    1       -0.123   0.954   7.200  0.00  0.00    +0.420 HD
ENDBRANCH  12  13
ENDBRANCH  11  12
ENDBRANCH   4  11
TORSDOF 4
ENDMDL
MODEL       16
REMARK  Name = ZINC000035679861
REMARK                            x       y       z     vdW  Elec       q    Type
REMARK                         _______ _______ _______ _____ _____    ______ ____
ROOT
ATOM      1  C   LIG    1       -0.699   1.479   1.216  0.00  0.00    +0.190 C 
ATOM      2  C   LIG    1       -2.118   0.872   1.319  0.00  0.00    +0.120 C 
ATOM      3  C   LIG    1       -1.931  -0.366   2.168  0.00  0.00    +0.510 C 
ATOM      4  N   LIG    1       -0.750  -0.314   2.808  0.00  0.00    -0.630 N 
ATOM      5  O   LIG    1       -2.731  -1.273   2.259  0.00  0.00    -0.470 OA
ATOM      6  C   LIG    1       -0.025   0.922   2.490  0.00  0.00    +0.330 C 
ENDROOT
BRANCH   1   7
ATOM      7  N   LIG    1       -0.012   1.005   0.008  0.00  0.00    -0.630 N 
ATOM      8  H   LIG    1       -0.500   1.339  -0.810  0.00  0.00    +0.450 HD
ATOM      9  H   LIG    1        0.935   1.354   0.000  0.00  0.00    +0.440 HD
ATOM     10  H   LIG    1        0.002  -0.004   0.002  0.00  0.00    +0.430 HD
ENDBRANCH   1   7
BRANCH   4  11
ATOM     11  C   LIG    1       -0.251  -1.358   3.707  0.00  0.00    +0.320 C 
BRANCH  11  12
ATOM     12  C   LIG    1        0.556  -2.380   2.903  0.00  0.00    +0.230 C 
BRANCH  12  13
ATOM     13  N   LIG    1        1.057  -3.426   3.804  0.00  0.00    -0.380 N 
ATOM     14  C   LIG    1        1.929  -4.341   3.055  0.00  0.00    +0.240 C 
ATOM     15  C   LIG    1        2.450  -5.430   3.997  0.00  0.00    +0.260 C 
ATOM     16  O   LIG    1        1.341  -6.120   4.579  0.00  0.00    -0.350 OA
ATOM     17  C   LIG    1        0.448  -5.266   5.300  0.00  0.00    +0.270 C 
ATOM     18  C   LIG    1       -0.076  -4.177   4.361  0.00  0.00    +0.230 C 
ATOM     19  H   LIG    1        1.580  -3.001   4.555  0.00  0.00    +0.430 HD
ENDBRANCH  12  13
ENDBRANCH  11  12
ENDBRANCH   4  11
TORSDOF 4
ENDMDL
MODEL       17
REMARK  Name = ZINC000013508977
REMARK                            x       y       z     vdW  Elec       q    Type
REMARK                         _______ _______ _______ _____ _____    ______ ____
ROOT
ATOM      1  N   UNK    1       -0.555   1.538   6.159  0.00  0.00    -0.510 N 
ATOM      2  H   UNK    1       -1.474   1.123   6.208  0.00  0.00    +0.440 HD
ATOM      3  H   UNK    1       -0.642   2.543   6.125  0.00  0.00    +0.430 HD
ENDROOT
BRANCH   1   4
ATOM      4  C   UNK    1        0.132   1.065   4.951  0.00  0.00    +0.250 C 
BRANCH   4   5
ATOM      5  C   UNK    1       -0.675   1.465   3.715  0.00  0.00    +0.230 C 
BRANCH   5   6
ATOM      6  O   UNK    1       -1.976   0.877   3.784  0.00  0.00    -0.550 OA
ATOM      7  H   UNK    1       -1.969  -0.089   3.820  0.00  0.00    +0.400 HD
ENDBRANCH   5   6
BRANCH   5   8
ATOM      8  C   UNK    1        0.041   0.972   2.456  0.00  0.00    +0.020 C 
BRANCH   8   9
ATOM      9  C   UNK    1       -0.699   1.479   1.216  0.00  0.00    +0.270 C 
BRANCH   9  10
ATOM     10  N   UNK    1       -0.012   1.005   0.008  0.00  0.00    -0.640 N 
ATOM     11  H   UNK    1       -0.500   1.339  -0.810  0.00  0.00    +0.450 HD
ATOM     12  H   UNK    1        0.935   1.354   0.000  0.00  0.00    +0.440 HD
ATOM     13  H   UNK    1        0.002  -0.004   0.002  0.00  0.00    +0.440 HD
ENDBRANCH   9  10
ENDBRANCH   8   9
ENDBRANCH   5   8
ENDBRANCH   4   5
ENDBRANCH   1   4
BRANCH   1  14
ATOM     14  C   UNK    1        0.220   1.154   7.346  0.00  0.00    +0.260 C 
BRANCH  14  15
ATOM     15  C   UNK    1       -0.496   1.647   8.605  0.00  0.00    +0.040 C 
BRANCH  15  16
ATOM     16  C   UNK    1        0.311   1.246   9.841  0.00  0.00    +0.030 C 
BRANCH  16  17
ATOM     17  C   UNK    1       -0.405   1.740  11.100  0.00  0.00    +0.070 C 
BRANCH  17  18
ATOM     18  C   UNK    1        0.402   1.339  12.337  0.00  0.00    +0.090 C 
BRANCH  18  19
ATOM     19  N   UNK    1        0.427  -0.125  12.452  0.00  0.00    -0.620 N 
ATOM     20  H   UNK    1       -0.517  -0.471  12.540  0.00  0.00    +0.430 HD
ATOM     21  H   UNK    1        0.959  -0.389  13.267  0.00  0.00    +0.440 HD
ATOM     22  H   UNK    1        0.855  -0.520  11.628  0.00  0.00    +0.410 HD
ENDBRANCH  18  19
BRANCH  18  23
ATOM     23  C   UNK    1       -0.237   1.929  13.567  0.00  0.00    +0.480 C 
ATOM     24  O   UNK    1        0.099   3.035  13.958  0.00  0.00    -0.630 OA
ATOM     25  O   UNK    1       -1.089   1.302  14.172  0.00  0.00    -0.660 OA
ENDBRANCH  18  23
ENDBRANCH  17  18
ENDBRANCH  16  17
ENDBRANCH  15  16
ENDBRANCH  14  15
ENDBRANCH   1  14
TORSDOF 13
ENDMDL
MODEL       18
REMARK  Name = ZINC000097019717
REMARK                            x       y       z     vdW  Elec       q    Type
REMARK                         _______ _______ _______ _____ _____    ______ ____
ROOT
ATOM      1  C   LIG    1        0.777  -1.974  -1.191  0.00  0.00    +0.510 C 
ATOM      2  N   LIG    1        1.330  -2.642  -2.223  0.00  0.00    -0.580 N 
ATOM      3  C   LIG    1        1.866  -1.922  -3.388  0.00  0.00    +0.310 C 
ATOM      4  C   LIG    1        3.293  -2.416  -3.651  0.00  0.00    +0.190 C 
ATOM      5  N   LIG    1        3.286  -3.879  -3.775  0.00  0.00    -0.540 NA
ATOM      6  C   LIG    1        2.858  -4.518  -2.523  0.00  0.00    +0.180 C 
ATOM      7  C   LIG    1        4.602  -4.378  -4.197  0.00  0.00    +0.230 C 
ATOM      8  C   LIG    1        1.419  -4.110  -2.211  0.00  0.00    +0.240 C 
ATOM      9  O   LIG    1        0.253  -2.586  -0.284  0.00  0.00    -0.540 OA
ENDROOT
BRANCH   1  10
ATOM     10  C   LIG    1        0.809  -0.468  -1.165  0.00  0.00    +0.310 C 
BRANCH  10  12
ATOM     11  C   LIG    1        0.178   1.483   0.080  0.00  0.00    +0.350 C 
ATOM     12  N   LIG    1        0.146   0.015   0.054  0.00  0.00    -0.500 N 
ATOM     13  H   LIG    1       -0.812  -0.301   0.063  0.00  0.00    +0.440 HD
ATOM     14  H   LIG    1        0.628  -0.346   0.864  0.00  0.00    +0.440 HD
ENDBRANCH  10  12
ENDBRANCH   1  10
BRANCH   8  15
ATOM     15  C   LIG    1        1.021  -4.644  -0.834  0.00  0.00    +0.300 C 
BRANCH  15  16
ATOM     16  N   LIG    1        1.164  -6.106  -0.816  0.00  0.00    -0.640 N 
ATOM     17  H   LIG    1        0.823  -6.467   0.063  0.00  0.00    +0.450 HD
ATOM     18  H   LIG    1        2.137  -6.351  -0.924  0.00  0.00    +0.430 HD
ATOM     19  H   LIG    1        0.630  -6.506  -1.573  0.00  0.00    +0.440 HD
ENDBRANCH  15  16
ENDBRANCH   8  15
TORSDOF 4
ENDMDL
MODEL       19
REMARK  Name = ZINC000097019715
REMARK                            x       y       z     vdW  Elec       q    Type
REMARK                         _______ _______ _______ _____ _____    ______ ____
ROOT
ATOM      1  C   LIG    1        0.412  -2.008  -1.386  0.00  0.00    +0.510 C 
ATOM      2  N   LIG    1        1.308  -2.621  -2.184  0.00  0.00    -0.580 N 
ATOM      3  C   LIG    1        2.017  -1.876  -3.236  0.00  0.00    +0.310 C 
ATOM      4  C   LIG    1        1.870  -2.640  -4.556  0.00  0.00    +0.190 C 
ATOM      5  N   LIG    1        2.318  -4.026  -4.368  0.00  0.00    -0.540 NA
ATOM      6  C   LIG    1        1.475  -4.731  -3.393  0.00  0.00    +0.170 C 
ATOM      7  C   LIG    1        2.356  -4.745  -5.649  0.00  0.00    +0.230 C 
ATOM      8  C   LIG    1        1.610  -4.051  -2.022  0.00  0.00    +0.240 C 
ATOM      9  O   LIG    1       -0.226  -2.654  -0.582  0.00  0.00    -0.540 OA
ENDROOT
BRANCH   1  10
ATOM     10  C   LIG    1        0.201  -0.520  -1.493  0.00  0.00    +0.310 C 
BRANCH  10  12
ATOM     11  C   LIG    1       -1.024   1.353  -0.629  0.00  0.00    +0.350 C 
ATOM     12  N   LIG    1       -0.820  -0.098  -0.525  0.00  0.00    -0.500 N 
ATOM     13  H   LIG    1       -1.687  -0.576  -0.721  0.00  0.00    +0.440 HD
ATOM     14  H   LIG    1       -0.513  -0.328   0.409  0.00  0.00    +0.440 HD
ENDBRANCH  10  12
ENDBRANCH   1  10
BRANCH   8  15
ATOM     15  C   LIG    1        0.620  -4.678  -1.038  0.00  0.00    +0.290 C 
BRANCH  15  16
ATOM     16  N   LIG    1        0.917  -6.110  -0.890  0.00  0.00    -0.640 N 
ATOM     17  H   LIG    1        0.328  -6.503  -0.171  0.00  0.00    +0.450 HD
ATOM     18  H   LIG    1        1.885  -6.228  -0.633  0.00  0.00    +0.440 HD
ATOM     19  H   LIG    1        0.740  -6.582  -1.764  0.00  0.00    +0.430 HD
ENDBRANCH  15  16
ENDBRANCH   8  15
TORSDOF 4
ENDMDL
MODEL       20
REMARK  Name = ZINC000002924334
REMARK                            x       y       z     vdW  Elec       q    Type
REMARK                         _______ _______ _______ _____ _____    ______ ____
ROOT
ATOM      1  C   LIG    1       -0.039   1.482  -0.027  0.00  0.00    +0.330 C 
ATOM      2  N   LIG    1       -0.104   0.015  -0.060  0.00  0.00    -0.380 N 
ATOM      3  H   LIG    1       -1.069  -0.278  -0.079  0.00  0.00    +0.440 HD
ENDROOT
BRANCH   2   4
ATOM      4  C   LIG    1        0.550  -0.531   1.137  0.00  0.00    +0.220 C 
BRANCH   4   5
ATOM      5  C   LIG    1       -0.237  -0.118   2.382  0.00  0.00    +0.210 C 
BRANCH   5   6
ATOM      6  O   LIG    1       -1.531  -0.724   2.349  0.00  0.00    -0.540 OA
ATOM      7  H   LIG    1       -1.513  -1.690   2.330  0.00  0.00    +0.390 HD
ENDBRANCH   5   6
BRANCH   5   8
ATOM      8  C   LIG    1        0.510  -0.580   3.634  0.00  0.00    +0.170 C 
BRANCH   8   9
ATOM      9  N   LIG    1       -0.246  -0.184   4.830  0.00  0.00    -0.520 NA
ATOM     10  C   LIG    1       -0.689   1.215   4.733  0.00  0.00    +0.150 C 
ATOM     11  C   LIG    1       -1.522   1.567   5.969  0.00  0.00    +0.220 C 
ATOM     12  O   LIG    1       -0.746   1.325   7.146  0.00  0.00    -0.380 OA
ATOM     13  C   LIG    1       -0.298  -0.028   7.272  0.00  0.00    +0.240 C 
ATOM     14  C   LIG    1        0.547  -0.396   6.049  0.00  0.00    +0.160 C 
ENDBRANCH   8   9
ENDBRANCH   5   8
ENDBRANCH   4   5
ENDBRANCH   2   4
BRANCH   2  15
ATOM     15  C   LIG    1        0.582  -0.479  -1.261  0.00  0.00    +0.260 C 
BRANCH  15  16
ATOM     16  C   LIG    1        0.378  -1.991  -1.380  0.00  0.00    +0.190 C 
BRANCH  16  17
ATOM     17  O   LIG    1       -1.008  -2.269  -1.591  0.00  0.00    -0.550 OA
ATOM     18  H   LIG    1       -1.372  -1.868  -2.392  0.00  0.00    +0.410 HD
ENDBRANCH  16  17
BRANCH  16  19
ATOM     19  C   LIG    1        1.190  -2.524  -2.561  0.00  0.00    +0.270 C 
BRANCH  19  20
ATOM     20  N   LIG    1        0.994  -3.975  -2.675  0.00  0.00    -0.630 N 
ATOM     21  H   LIG    1        1.302  -4.424  -1.825  0.00  0.00    +0.440 HD
ATOM     22  H   LIG    1        1.530  -4.327  -3.454  0.00  0.00    +0.450 HD
ATOM     23  H   LIG    1        0.015  -4.172  -2.824  0.00  0.00    +0.440 HD
ENDBRANCH  19  20
ENDBRANCH  16  19
ENDBRANCH  15  16
ENDBRANCH   2  15
TORSDOF 10
ENDMDL
MODEL       21
REMARK  Name = ZINC000060245644
REMARK                            x       y       z     vdW  Elec       q    Type
REMARK                         _______ _______ _______ _____ _____    ______ ____
ROOT
ATOM      1  N   LIG    1        0.288  -1.481  -1.836  0.00  0.00    -0.630 N 
ATOM      2  H   LIG    1        0.053  -1.779  -2.728  0.00  0.00    +0.470 HD
ENDROOT
BRANCH   1   3
ATOM      3  C   LIG    1        1.168  -2.161  -1.122  0.00  0.00    +0.690 C 
ATOM      4  N   LIG    1        1.672  -3.362  -1.503  0.00  0.00    -0.540 NA
ATOM      5  C   LIG    1        2.619  -3.833  -0.483  0.00  0.00    +0.330 C 
ATOM      6  C   LIG    1        2.611  -2.723   0.585  0.00  0.00    +0.340 C 
ATOM      7  C   LIG    1        1.327  -4.075  -2.736  0.00  0.00    +0.400 C 
ATOM      8  N   LIG    1        1.664  -1.726   0.065  0.00  0.00    -0.560 NA
ATOM      9  C   LIG    1        1.307  -0.468   0.725  0.00  0.00    +0.370 C 
ENDBRANCH   1   3
BRANCH   1  12
ATOM     10  C   LIG    1       -1.088   0.755   0.667  0.00  0.00    +0.370 C 
ATOM     11  N   LIG    1       -0.948  -0.442  -0.166  0.00  0.00    -0.530 N 
ATOM     12  C   LIG    1       -0.282  -0.377  -1.325  0.00  0.00    +0.700 C 
ATOM     13  C   LIG    1       -1.537  -1.711   0.271  0.00  0.00    +0.360 C 
BRANCH  12  14
ATOM     14  N   LIG    1       -0.184   0.789  -1.976  0.00  0.00    -0.530 N 
ATOM     15  C   LIG    1       -1.297   1.742  -1.945  0.00  0.00    +0.380 C 
ATOM     16  C   LIG    1        1.037   1.113  -2.719  0.00  0.00    +0.370 C 
ENDBRANCH  12  14
ENDBRANCH   1  12
TORSDOF 3
ENDMDL
MODEL       22
REMARK  Name = ZINC000005725088
REMARK                            x       y       z     vdW  Elec       q    Type
REMARK                         _______ _______ _______ _____ _____    ______ ____
ROOT
ATOM      1  N   LIG    1       -1.456   4.967   2.491  0.00  0.00    -0.710 N 
ATOM      2  H   LIG    1       -1.050   5.461   1.763  0.00  0.00    +0.420 HD
ATOM      3  C   LIG    1       -2.039   5.627   3.511  0.00  0.00    +0.510 C 
ATOM      4  O   LIG    1       -2.547   5.008   4.423  0.00  0.00    -0.510 OA
ENDROOT
BRANCH   3   5
ATOM      5  C   LIG    1       -2.059   7.122   3.520  0.00  0.00    +0.510 C 
ATOM      6  N   LIG    1       -2.642   7.782   4.540  0.00  0.00    -0.710 N 
ATOM      7  H   LIG    1       -3.049   7.287   5.268  0.00  0.00    +0.420 HD
ATOM      8  O   LIG    1       -1.551   7.740   2.608  0.00  0.00    -0.510 OA
BRANCH   6   9
ATOM      9  C   LIG    1       -2.662   9.247   4.548  0.00  0.00    +0.300 C 
BRANCH   9  10
ATOM     10  C   LIG    1       -3.378   9.740   5.806  0.00  0.00    +0.030 C 
BRANCH  10  11
ATOM     11  C   LIG    1       -3.399  11.270   5.815  0.00  0.00    +0.280 C 
BRANCH  11  12
ATOM     12  N   LIG    1       -4.087  11.744   7.024  0.00  0.00    -0.640 N 
ATOM     13  H   LIG    1       -5.033  11.395   7.031  0.00  0.00    +0.440 HD
ATOM     14  H   LIG    1       -4.100  12.753   7.029  0.00  0.00    +0.440 HD
ATOM     15  H   LIG    1       -3.599  11.409   7.841  0.00  0.00    +0.440 HD
ENDBRANCH  11  12
ENDBRANCH  10  11
ENDBRANCH   9  10
ENDBRANCH   6   9
ENDBRANCH   3   5
BRANCH   1  16
ATOM     16  C   LIG    1       -1.436   3.502   2.483  0.00  0.00    +0.300 C 
BRANCH  16  17
ATOM     17  C   LIG    1       -0.720   3.008   1.225  0.00  0.00    +0.030 C 
BRANCH  17  18
ATOM     18  C   LIG    1       -0.699   1.479   1.216  0.00  0.00    +0.280 C 
BRANCH  18  19
ATOM     19  N   LIG    1       -0.012   1.005   0.008  0.00  0.00    -0.640 N 
ATOM     20  H   LIG    1       -0.500   1.339  -0.810  0.00  0.00    +0.440 HD
ATOM     21  H   LIG    1        0.935   1.354   0.000  0.00  0.00    +0.440 HD
ATOM     22  H   LIG    1        0.002  -0.004   0.002  0.00  0.00    +0.440 HD
ENDBRANCH  18  19
ENDBRANCH  17  18
ENDBRANCH  16  17
ENDBRANCH   1  16
TORSDOF 9
ENDMDL
MODEL       23
REMARK  Name = ZINC000002561080
REMARK                            x       y       z     vdW  Elec       q    Type
REMARK                         _______ _______ _______ _____ _____    ______ ____
ROOT
ATOM      1  C   LIG    1       -0.567   1.544   6.191  0.00  0.00    +0.490 C 
ATOM      2  N   LIG    1       -0.268   2.803   6.568  0.00  0.00    -0.670 N 
ATOM      3  H   LIG    1        0.353   3.332   6.044  0.00  0.00    +0.400 HD
ATOM      4  O   LIG    1       -1.344   0.882   6.846  0.00  0.00    -0.510 OA
ENDROOT
BRANCH   1   5
ATOM      5  CA  LIG    1        0.065   0.958   4.954  0.00  0.00    +0.170 C 
BRANCH   5   6
ATOM      6  N   LIG    1       -0.018  -0.507   5.009  0.00  0.00    -0.620 N 
ATOM      7  H1  LIG    1        0.469  -0.842   5.826  0.00  0.00    +0.440 HD
ATOM      8  H2  LIG    1        0.404  -0.899   4.181  0.00  0.00    +0.430 HD
ATOM      9  H3  LIG    1       -0.987  -0.788   5.057  0.00  0.00    +0.450 HD
ENDBRANCH   5   6
BRANCH   5  10
ATOM     10  C   LIG    1       -0.675   1.465   3.715  0.00  0.00    +0.100 C 
BRANCH  10  11
ATOM     11  C   LIG    1        0.041   0.972   2.456  0.00  0.00    +0.020 C 
BRANCH  11  12
ATOM     12  C   LIG    1       -0.699   1.479   1.216  0.00  0.00    +0.280 C 
BRANCH  12  13
ATOM     13  N   LIG    1       -0.012   1.005   0.008  0.00  0.00    -0.640 N 
ATOM     14  H   LIG    1       -0.500   1.339  -0.810  0.00  0.00    +0.450 HD
ATOM     15  H   LIG    1        0.935   1.354   0.000  0.00  0.00    +0.440 HD
ATOM     16  H   LIG    1        0.002  -0.004   0.002  0.00  0.00    +0.440 HD
ENDBRANCH  12  13
ENDBRANCH  11  12
ENDBRANCH  10  11
ENDBRANCH   5  10
ENDBRANCH   1   5
BRANCH   2  17
ATOM     17  CA  LIG    1       -0.882   3.372   7.771  0.00  0.00    +0.170 C 
BRANCH  17  18
ATOM     18  C   LIG    1       -2.229   3.951   7.421  0.00  0.00    +0.490 C 
ATOM     19  OXT LIG    1       -2.910   4.477   8.285  0.00  0.00    -0.660 OA
ATOM     20  O   LIG    1       -2.638   3.893   6.274  0.00  0.00    -0.680 OA
ENDBRANCH  17  18
BRANCH  17  21
ATOM     21  C   LIG    1        0.018   4.476   8.329  0.00  0.00    +0.080 C 
BRANCH  21  22
ATOM     22  C   LIG    1        1.340   3.867   8.800  0.00  0.00    +0.020 C 
BRANCH  22  23
ATOM     23  C   LIG    1        2.240   4.971   9.358  0.00  0.00    +0.260 C 
BRANCH  23  24
ATOM     24  N   LIG    1        3.510   4.386   9.810  0.00  0.00    -0.640 N 
ATOM     25  H   LIG    1        4.103   5.114  10.178  0.00  0.00    +0.440 HD
ATOM     26  H   LIG    1        3.970   3.939   9.031  0.00  0.00    +0.430 HD
ATOM     27  H   LIG    1        3.328   3.704  10.530  0.00  0.00    +0.440 HD
ENDBRANCH  23  24
ENDBRANCH  22  23
ENDBRANCH  21  22
ENDBRANCH  17  21
ENDBRANCH   2  17
TORSDOF 12
ENDMDL
MODEL       24
REMARK  Name = ZINC000061806004
REMARK                            x       y       z     vdW  Elec       q    Type
REMARK                         _______ _______ _______ _____ _____    ______ ____
ROOT
ATOM      1  N   LIG    1       -1.431   3.316   2.332  0.00  0.00    -0.520 NA
ENDROOT
BRANCH   1   2
ATOM      2  C   LIG    1       -0.858   2.867   1.056  0.00  0.00    +0.200 C 
BRANCH   2   3
ATOM      3  C   LIG    1       -0.684   1.347   1.081  0.00  0.00    +0.270 C 
BRANCH   3   4
ATOM      4  N   LIG    1       -0.112   0.899  -0.195  0.00  0.00    -0.640 N 
ATOM      5  H   LIG    1       -0.731   1.154  -0.950  0.00  0.00    +0.440 HD
ATOM      6  H   LIG    1        0.786   1.338  -0.333  0.00  0.00    +0.440 HD
ATOM      7  H   LIG    1        0.003  -0.104  -0.178  0.00  0.00    +0.450 HD
ENDBRANCH   3   4
ENDBRANCH   2   3
ENDBRANCH   1   2
BRANCH   1   8
ATOM      8  C   LIG    1       -1.832   4.727   2.262  0.00  0.00    +0.200 C 
BRANCH   8   9
ATOM      9  C   LIG    1       -3.134   4.848   1.468  0.00  0.00    +0.190 C 
BRANCH   9  10
ATOM     10  N   LIG    1       -3.468   6.268   1.288  0.00  0.00    -0.540 NA
ATOM     11  C   LIG    1       -3.326   7.007   2.551  0.00  0.00    +0.140 C 
ATOM     12  C   LIG    1       -3.624   8.488   2.305  0.00  0.00    +0.220 C 
ATOM     13  O   LIG    1       -4.933   8.619   1.745  0.00  0.00    -0.380 OA
ATOM     14  C   LIG    1       -5.106   7.912   0.514  0.00  0.00    +0.230 C 
ATOM     15  C   LIG    1       -4.823   6.425   0.741  0.00  0.00    +0.160 C 
ENDBRANCH   9  10
ENDBRANCH   8   9
ENDBRANCH   1   8
BRANCH   1  16
ATOM     16  C   LIG    1       -0.492   3.090   3.439  0.00  0.00    +0.180 C 
BRANCH  16  17
ATOM     17  C   LIG    1       -1.237   3.201   4.771  0.00  0.00    +0.280 C 
BRANCH  17  18
ATOM     18  N   LIG    1       -0.328   2.853   5.871  0.00  0.00    -0.640 N 
ATOM     19  H   LIG    1        0.002   1.907   5.748  0.00  0.00    +0.440 HD
ATOM     20  H   LIG    1       -0.819   2.927   6.749  0.00  0.00    +0.450 HD
ATOM     21  H   LIG    1        0.458   3.486   5.871  0.00  0.00    +0.440 HD
ENDBRANCH  17  18
ENDBRANCH  16  17
ENDBRANCH   1  16
TORSDOF 9
ENDMDL
MODEL       25
REMARK  Name = ZINC000068606283
REMARK                            x       y       z     vdW  Elec       q    Type
REMARK                         _______ _______ _______ _____ _____    ______ ____
ROOT
ATOM      1  N   LIG    1       -1.504   3.666   2.300  0.00  0.00    -0.490 NA
ATOM      2  C   LIG    1       -0.786   3.422   3.558  0.00  0.00    +0.230 C 
ATOM      3  C   LIG    1        0.280   2.346   3.337  0.00  0.00    +0.030 C 
ATOM      4  C   LIG    1        1.608   2.813   3.936  0.00  0.00    +0.280 C 
ATOM      5  N   LIG    1        2.681   2.630   2.950  0.00  0.00    -0.520 N 
ATOM      6  C   LIG    1        3.532   3.828   2.925  0.00  0.00    +0.280 C 
ATOM      7  C   LIG    1        3.870   4.182   1.475  0.00  0.00    +0.220 C 
ATOM      8  N   LIG    1        3.630   5.614   1.252  0.00  0.00    -0.660 NA
ATOM      9  H   LIG    1        3.146   6.026   2.035  0.00  0.00    +0.370 HD
ATOM     10  C   LIG    1        2.892   5.836   0.001  0.00  0.00    +0.210 C 
ATOM     11  C   LIG    1        1.790   6.871   0.236  0.00  0.00    +0.280 C 
ATOM     12  N   LIG    1        0.532   6.387  -0.348  0.00  0.00    -0.520 N 
ATOM     13  C   LIG    1       -0.578   6.679   0.570  0.00  0.00    +0.280 C 
ATOM     14  C   LIG    1       -1.511   5.469   0.643  0.00  0.00    +0.030 C 
ATOM     15  H   LIG    1        0.591   5.391  -0.497  0.00  0.00    +0.370 HD
ATOM     16  H   LIG    1        0.370   6.850  -1.229  0.00  0.00    +0.460 HD
ATOM     17  H   LIG    1        2.278   2.485   2.037  0.00  0.00    +0.390 HD
ATOM     18  H   LIG    1        3.238   1.828   3.204  0.00  0.00    +0.460 HD
ATOM     19  C   LIG    1       -1.755   5.101   2.108  0.00  0.00    +0.230 C 
ENDROOT
BRANCH   1  20
ATOM     20  C   LIG    1       -0.772   3.102   1.159  0.00  0.00    +0.280 C 
BRANCH  20  21
ATOM     21  C   LIG    1        0.585   3.797   1.029  0.00  0.00    +0.130 C 
BRANCH  21  22
ATOM     22  N   LIG    1        1.244   3.358  -0.208  0.00  0.00    -0.660 N 
ATOM     23  H   LIG    1        1.094   2.368  -0.336  0.00  0.00    +0.460 HD
ATOM     24  H   LIG    1        0.858   3.861  -0.993  0.00  0.00    +0.440 HD
ATOM     25  H   LIG    1        2.234   3.542  -0.145  0.00  0.00    +0.430 HD
ENDBRANCH  21  22
ENDBRANCH  20  21
ENDBRANCH   1  20
TORSDOF 3
ENDMDL
MODEL       26
REMARK  Name = ZINC000014514658
REMARK                            x       y       z     vdW  Elec       q    Type
REMARK                         _______ _______ _______ _____ _____    ______ ____
ROOT
ATOM      1  N   UNK    1       -0.770   1.234   6.151  0.00  0.00    -0.510 N 
ATOM      2  H   UNK    1       -1.714   0.889   6.073  0.00  0.00    +0.430 HD
ATOM      3  H   UNK    1       -0.785   2.239   6.237  0.00  0.00    +0.440 HD
ENDROOT
BRANCH   1   4
ATOM      4  C   UNK    1       -0.010   0.857   4.951  0.00  0.00    +0.250 C 
BRANCH   4   5
ATOM      5  C   UNK    1       -0.675   1.465   3.715  0.00  0.00    +0.230 C 
BRANCH   5   6
ATOM      6  O   UNK    1       -0.593   2.890   3.782  0.00  0.00    -0.550 OA
ATOM      7  H   UNK    1        0.311   3.231   3.816  0.00  0.00    +0.400 HD
ENDBRANCH   5   6
BRANCH   5   8
ATOM      8  C   UNK    1        0.041   0.972   2.456  0.00  0.00    +0.020 C 
BRANCH   8   9
ATOM      9  C   UNK    1       -0.699   1.479   1.216  0.00  0.00    +0.270 C 
BRANCH   9  10
ATOM     10  N   UNK    1       -0.012   1.005   0.008  0.00  0.00    -0.640 N 
ATOM     11  H   UNK    1       -0.500   1.339  -0.810  0.00  0.00    +0.450 HD
ATOM     12  H   UNK    1        0.935   1.354   0.000  0.00  0.00    +0.440 HD
ATOM     13  H   UNK    1        0.002  -0.004   0.002  0.00  0.00    +0.440 HD
ENDBRANCH   9  10
ENDBRANCH   8   9
ENDBRANCH   5   8
ENDBRANCH   4   5
ENDBRANCH   1   4
BRANCH   1  14
ATOM     14  C   UNK    1       -0.131   0.651   7.338  0.00  0.00    +0.260 C 
BRANCH  14  15
ATOM     15  C   UNK    1       -0.922   1.043   8.587  0.00  0.00    +0.040 C 
BRANCH  15  16
ATOM     16  C   UNK    1       -0.257   0.435   9.824  0.00  0.00    +0.030 C 
BRANCH  16  17
ATOM     17  C   UNK    1       -1.048   0.828  11.073  0.00  0.00    +0.070 C 
BRANCH  17  18
ATOM     18  C   UNK    1       -0.383   0.220  12.310  0.00  0.00    +0.090 C 
BRANCH  18  19
ATOM     19  N   UNK    1        0.949   0.813  12.491  0.00  0.00    -0.610 N 
ATOM     20  H   UNK    1        0.860   1.810  12.613  0.00  0.00    +0.430 HD
ATOM     21  H   UNK    1        1.515   0.623  11.677  0.00  0.00    +0.410 HD
ATOM     22  H   UNK    1        1.388   0.412  13.306  0.00  0.00    +0.440 HD
ENDBRANCH  18  19
BRANCH  18  23
ATOM     23  C   UNK    1       -1.228   0.503  13.525  0.00  0.00    +0.480 C 
ATOM     24  O   UNK    1       -0.835   1.287  14.372  0.00  0.00    -0.660 OA
ATOM     25  O   UNK    1       -2.305  -0.052  13.662  0.00  0.00    -0.630 OA
ENDBRANCH  18  23
ENDBRANCH  17  18
ENDBRANCH  16  17
ENDBRANCH  15  16
ENDBRANCH  14  15
ENDBRANCH   1  14
TORSDOF 13
ENDMDL
MODEL       27
REMARK  Name = ZINC000014514655
REMARK                            x       y       z     vdW  Elec       q    Type
REMARK                         _______ _______ _______ _____ _____    ______ ____
ROOT
ATOM      1  N   UNK    1       -0.555   1.538   6.159  0.00  0.00    -0.510 N 
ATOM      2  H   UNK    1       -1.474   1.123   6.208  0.00  0.00    +0.440 HD
ATOM      3  H   UNK    1       -0.642   2.543   6.125  0.00  0.00    +0.430 HD
ENDROOT
BRANCH   1   4
ATOM      4  C   UNK    1        0.132   1.065   4.951  0.00  0.00    +0.250 C 
BRANCH   4   5
ATOM      5  C   UNK    1       -0.675   1.465   3.715  0.00  0.00    +0.230 C 
BRANCH   5   6
ATOM      6  O   UNK    1       -1.976   0.877   3.784  0.00  0.00    -0.550 OA
ATOM      7  H   UNK    1       -1.969  -0.089   3.820  0.00  0.00    +0.400 HD
ENDBRANCH   5   6
BRANCH   5   8
ATOM      8  C   UNK    1        0.041   0.972   2.456  0.00  0.00    +0.020 C 
BRANCH   8   9
ATOM      9  C   UNK    1       -0.699   1.479   1.216  0.00  0.00    +0.270 C 
BRANCH   9  10
ATOM     10  N   UNK    1       -0.012   1.005   0.008  0.00  0.00    -0.640 N 
ATOM     11  H   UNK    1       -0.500   1.339  -0.810  0.00  0.00    +0.450 HD
ATOM     12  H   UNK    1        0.935   1.354   0.000  0.00  0.00    +0.440 HD
ATOM     13  H   UNK    1        0.002  -0.004   0.002  0.00  0.00    +0.440 HD
ENDBRANCH   9  10
ENDBRANCH   8   9
ENDBRANCH   5   8
ENDBRANCH   4   5
ENDBRANCH   1   4
BRANCH   1  14
ATOM     14  C   UNK    1        0.220   1.154   7.346  0.00  0.00    +0.250 C 
BRANCH  14  15
ATOM     15  C   UNK    1       -0.496   1.647   8.605  0.00  0.00    +0.040 C 
BRANCH  15  16
ATOM     16  C   UNK    1        0.311   1.246   9.841  0.00  0.00    +0.030 C 
BRANCH  16  17
ATOM     17  C   UNK    1       -0.405   1.740  11.100  0.00  0.00    +0.080 C 
BRANCH  17  18
ATOM     18  C   UNK    1        0.402   1.339  12.337  0.00  0.00    +0.090 C 
BRANCH  18  19
ATOM     19  N   UNK    1        1.694   2.038  12.325  0.00  0.00    -0.610 N 
ATOM     20  H   UNK    1        1.538   3.035  12.334  0.00  0.00    +0.430 HD
ATOM     21  H   UNK    1        2.206   1.786  11.493  0.00  0.00    +0.410 HD
ATOM     22  H   UNK    1        2.227   1.774  13.141  0.00  0.00    +0.440 HD
ENDBRANCH  18  19
BRANCH  18  23
ATOM     23  C   UNK    1       -0.362   1.716  13.579  0.00  0.00    +0.480 C 
ATOM     24  O   UNK    1        0.036   2.626  14.287  0.00  0.00    -0.660 OA
ATOM     25  O   UNK    1       -1.378   1.111  13.877  0.00  0.00    -0.630 OA
ENDBRANCH  18  23
ENDBRANCH  17  18
ENDBRANCH  16  17
ENDBRANCH  15  16
ENDBRANCH  14  15
ENDBRANCH   1  14
TORSDOF 13
ENDMDL
MODEL       28
REMARK  Name = ZINC000022465713
REMARK                            x       y       z     vdW  Elec       q    Type
REMARK                         _______ _______ _______ _____ _____    ______ ____
ROOT
ATOM      1  C   LIG    1        0.030   0.988   9.773  0.00  0.00    +0.270 C 
ENDROOT
BRANCH   1   2
ATOM      2  N   LIG    1       -0.657   1.462  10.982  0.00  0.00    -0.510 N 
ATOM      3  H   LIG    1       -1.604   1.112  10.989  0.00  0.00    +0.430 HD
ATOM      4  H   LIG    1       -0.671   2.470  10.987  0.00  0.00    +0.430 HD
BRANCH   2   5
ATOM      5  C   LIG    1        0.053   0.975  12.172  0.00  0.00    +0.270 C 
BRANCH   5   6
ATOM      6  C   LIG    1       -0.663   1.468  13.431  0.00  0.00    +0.190 C 
BRANCH   6   7
ATOM      7  N   LIG    1        0.048   0.982  14.621  0.00  0.00    -0.680 NA
ATOM      8  H   LIG    1        0.131  -0.024  14.606  0.00  0.00    +0.360 HD
BRANCH   7   9
ATOM      9  C   LIG    1       -0.613   1.437  15.851  0.00  0.00    +0.190 C 
BRANCH   9  10
ATOM     10  C   LIG    1        0.154   0.912  17.066  0.00  0.00    +0.280 C 
BRANCH  10  11
ATOM     11  N   LIG    1       -0.507   1.367  18.297  0.00  0.00    -0.640 N 
ATOM     12  H   LIG    1       -0.520   2.376  18.318  0.00  0.00    +0.440 HD
ATOM     13  H   LIG    1       -0.001   1.020  19.098  0.00  0.00    +0.450 HD
ATOM     14  H   LIG    1       -1.453   1.018  18.319  0.00  0.00    +0.440 HD
ENDBRANCH  10  11
ENDBRANCH   9  10
ENDBRANCH   7   9
ENDBRANCH   6   7
ENDBRANCH   5   6
ENDBRANCH   2   5
ENDBRANCH   1   2
BRANCH   1  15
ATOM     15  C   LIG    1       -0.710   1.495   8.533  0.00  0.00    +0.190 C 
BRANCH  15  16
ATOM     16  N   LIG    1       -0.022   1.021   7.325  0.00  0.00    -0.680 NA
ATOM     17  H   LIG    1        0.062   0.015   7.327  0.00  0.00    +0.350 HD
BRANCH  16  18
ATOM     18  C   LIG    1       -0.706   1.489   6.112  0.00  0.00    +0.190 C 
BRANCH  18  19
ATOM     19  C   LIG    1        0.037   0.977   4.877  0.00  0.00    +0.190 C 
BRANCH  19  20
ATOM     20  N   LIG    1       -0.647   1.446   3.664  0.00  0.00    -0.680 NA
ATOM     21  H   LIG    1       -0.731   2.451   3.662  0.00  0.00    +0.350 HD
BRANCH  20  22
ATOM     22  C   LIG    1        0.041   0.972   2.456  0.00  0.00    +0.190 C 
BRANCH  22  23
ATOM     23  C   LIG    1       -0.699   1.479   1.216  0.00  0.00    +0.260 C 
BRANCH  23  24
ATOM     24  N   LIG    1       -0.012   1.005   0.008  0.00  0.00    -0.640 N 
ATOM     25  H   LIG    1       -0.500   1.339  -0.810  0.00  0.00    +0.450 HD
ATOM     26  H   LIG    1        0.935   1.354   0.000  0.00  0.00    +0.440 HD
ATOM     27  H   LIG    1        0.002  -0.004   0.002  0.00  0.00    +0.440 HD
ENDBRANCH  23  24
ENDBRANCH  22  23
ENDBRANCH  20  22
ENDBRANCH  19  20
ENDBRANCH  18  19
ENDBRANCH  16  18
ENDBRANCH  15  16
ENDBRANCH   1  15
TORSDOF 15
ENDMDL
MODEL       29
REMARK  Name = ZINC000022590370
REMARK                            x       y       z     vdW  Elec       q    Type
REMARK                         _______ _______ _______ _____ _____    ______ ____
ROOT
ATOM      1  N   LIG    1       -4.149  -4.549   0.017  0.00  0.00    -0.530 NA
ATOM      2  C   LIG    1       -4.962  -3.846   1.019  0.00  0.00    +0.190 C 
ATOM      3  C   LIG    1       -6.406  -4.348   0.944  0.00  0.00    +0.210 C 
ATOM      4  N   LIG    1       -6.430  -5.799   1.174  0.00  0.00    -0.530 NA
ATOM      5  C   LIG    1       -5.617  -6.502   0.172  0.00  0.00    +0.200 C 
ATOM      6  C   LIG    1       -4.173  -6.000   0.248  0.00  0.00    +0.210 C 
ENDROOT
BRANCH   1   7
ATOM      7  C   LIG    1       -2.771  -4.041   0.007  0.00  0.00    +0.190 C 
BRANCH   7   8
ATOM      8  C   LIG    1       -2.792  -2.511   0.015  0.00  0.00    +0.260 C 
BRANCH   8   9
ATOM      9  N   LIG    1       -1.413  -2.002   0.005  0.00  0.00    -0.510 N 
ATOM     10  H   LIG    1       -0.925  -2.337   0.822  0.00  0.00    +0.430 HD
ATOM     11  H   LIG    1       -0.941  -2.328  -0.825  0.00  0.00    +0.430 HD
BRANCH   9  12
ATOM     12  C   LIG    1       -1.433  -0.534   0.013  0.00  0.00    +0.260 C 
BRANCH  12  13
ATOM     13  C   LIG    1        0.002  -0.004   0.002  0.00  0.00    +0.180 C 
BRANCH  13  14
ATOM     14  N   LIG    1       -0.018   1.465   0.010  0.00  0.00    -0.840 NA
ATOM     15  H   LIG    1       -0.556   1.823  -0.764  0.00  0.00    +0.350 HD
ATOM     16  H   LIG    1        0.919   1.839   0.003  0.00  0.00    +0.370 HD
ENDBRANCH  13  14
ENDBRANCH  12  13
ENDBRANCH   9  12
ENDBRANCH   8   9
ENDBRANCH   7   8
ENDBRANCH   1   7
BRANCH   4  17
ATOM     17  C   LIG    1       -7.809  -6.307   1.185  0.00  0.00    +0.180 C 
BRANCH  17  18
ATOM     18  C   LIG    1       -7.813  -7.758   1.670  0.00  0.00    +0.260 C 
BRANCH  18  19
ATOM     19  N   LIG    1       -9.191  -8.267   1.681  0.00  0.00    -0.640 N 
ATOM     20  H   LIG    1       -9.753  -7.703   2.301  0.00  0.00    +0.440 HD
ATOM     21  H   LIG    1       -9.194  -9.224   2.001  0.00  0.00    +0.440 HD
ATOM     22  H   LIG    1       -9.573  -8.223   0.748  0.00  0.00    +0.440 HD
ENDBRANCH  18  19
ENDBRANCH  17  18
ENDBRANCH   4  17
TORSDOF 9
ENDMDL
MODEL       30
REMARK  Name = ZINC000096308256
REMARK                            x       y       z     vdW  Elec       q    Type
REMARK                         _______ _______ _______ _____ _____    ______ ____
ROOT
ATOM      1  C   LIG    1       -4.694   5.162  -2.009  0.00  0.00    +0.190 C 
ENDROOT
BRANCH   1   2
ATOM      2  O   LIG    1       -3.800   4.847  -0.940  0.00  0.00    -0.380 OA
BRANCH   2   3
ATOM      3  C   LIG    1       -2.459   5.293  -1.154  0.00  0.00    +0.190 C 
BRANCH   3   4
ATOM      4  C   LIG    1       -1.595   4.904   0.047  0.00  0.00    +0.220 C 
BRANCH   4   5
ATOM      5  O   LIG    1       -1.510   3.480   0.131  0.00  0.00    -0.390 OA
BRANCH   5   6
ATOM      6  C   LIG    1       -0.720   3.008   1.225  0.00  0.00    +0.200 C 
BRANCH   6   7
ATOM      7  C   LIG    1       -0.699   1.479   1.216  0.00  0.00    +0.290 C 
BRANCH   7   8
ATOM      8  N   LIG    1       -0.012   1.005   0.008  0.00  0.00    -0.640 N 
ATOM      9  H   LIG    1       -0.500   1.339  -0.810  0.00  0.00    +0.440 HD
ATOM     10  H   LIG    1        0.935   1.354   0.000  0.00  0.00    +0.430 HD
ATOM     11  H   LIG    1        0.002  -0.004   0.002  0.00  0.00    +0.440 HD
ENDBRANCH   7   8
ENDBRANCH   6   7
ENDBRANCH   5   6
ENDBRANCH   4   5
ENDBRANCH   3   4
ENDBRANCH   2   3
ENDBRANCH   1   2
BRANCH   1  12
ATOM     12  C   LIG    1       -6.093   4.639  -1.674  0.00  0.00    +0.190 C 
BRANCH  12  13
ATOM     13  O   LIG    1       -6.603   5.337  -0.536  0.00  0.00    -0.380 OA
BRANCH  13  14
ATOM     14  C   LIG    1       -7.911   4.923  -0.138  0.00  0.00    +0.190 C 
BRANCH  14  15
ATOM     15  C   LIG    1       -8.353   5.732   1.083  0.00  0.00    +0.220 C 
BRANCH  15  16
ATOM     16  O   LIG    1       -8.487   7.108   0.719  0.00  0.00    -0.390 OA
BRANCH  16  17
ATOM     17  C   LIG    1       -8.898   7.956   1.793  0.00  0.00    +0.200 C 
BRANCH  17  18
ATOM     18  C   LIG    1       -9.008   9.397   1.292  0.00  0.00    +0.290 C 
BRANCH  18  19
ATOM     19  N   LIG    1      -10.081   9.488   0.293  0.00  0.00    -0.640 N 
ATOM     20  H   LIG    1      -10.955   9.210   0.712  0.00  0.00    +0.430 HD
ATOM     21  H   LIG    1       -9.871   8.877  -0.483  0.00  0.00    +0.440 HD
ATOM     22  H   LIG    1      -10.153  10.438  -0.038  0.00  0.00    +0.440 HD
ENDBRANCH  18  19
ENDBRANCH  17  18
ENDBRANCH  16  17
ENDBRANCH  15  16
ENDBRANCH  14  15
ENDBRANCH  13  14
ENDBRANCH  12  13
ENDBRANCH   1  12
TORSDOF 15
ENDMDL
MODEL       31
REMARK  Name = ZINC000169676840
REMARK                            x       y       z     vdW  Elec       q    Type
REMARK                         _______ _______ _______ _____ _____    ______ ____
ROOT
ATOM      1  C   LIG    1       -1.358  -2.037  -0.122  0.00  0.00    -0.030 C 
ATOM      2  C   LIG    1       -0.902  -2.464  -1.539  0.00  0.00    +0.310 C 
ATOM      3  N   LIG    1       -1.491  -3.800  -1.738  0.00  0.00    -1.010 NA
ATOM      4  C   LIG    1       -2.668  -3.931  -0.867  0.00  0.00    +0.320 C 
ATOM      5  C   LIG    1       -2.797  -2.616  -0.069  0.00  0.00    +0.200 C 
ENDROOT
BRANCH   3   6
ATOM      6  S   LIG    1       -0.921  -4.962  -2.772  0.00  0.00    +2.620 S 
ATOM      7  O   LIG    1       -0.237  -4.230  -3.779  0.00  0.00    -0.930 OA
ATOM      8  O   LIG    1       -2.066  -5.745  -3.084  0.00  0.00    -0.920 OA
ATOM      9  C   LIG    1        0.252  -5.920  -1.773  0.00  0.00    -0.270 C 
ENDBRANCH   3   6
BRANCH   5  10
ATOM     10  N   LIG    1       -3.203  -2.887   1.317  0.00  0.00    -0.630 N 
ATOM     11  H   LIG    1       -4.106  -3.337   1.321  0.00  0.00    +0.450 HD
ATOM     12  H   LIG    1       -3.258  -2.018   1.827  0.00  0.00    +0.440 HD
ATOM     13  H   LIG    1       -2.524  -3.491   1.754  0.00  0.00    +0.440 HD
ENDBRANCH   5  10
BRANCH   1  14
ATOM     14  C   LIG    1       -1.376  -0.512   0.012  0.00  0.00    +0.280 C 
BRANCH  14  16
ATOM     15  C   LIG    1       -0.018   1.465   0.010  0.00  0.00    +0.350 C 
ATOM     16  N   LIG    1        0.002  -0.004   0.002  0.00  0.00    -0.390 N 
ATOM     17  C   LIG    1        0.713  -0.491   1.192  0.00  0.00    +0.330 C 
ATOM     18  H   LIG    1        0.474  -0.330  -0.828  0.00  0.00    +0.430 HD
ENDBRANCH  14  16
ENDBRANCH   1  14
TORSDOF 4
ENDMDL
MODEL       32
REMARK  Name = ZINC000019702185
REMARK                            x       y       z     vdW  Elec       q    Type
REMARK                         _______ _______ _______ _____ _____    ______ ____
ROOT
ATOM      1  N   LIG    1       -2.716  -2.577   0.073  0.00  0.00    -0.730 N 
ATOM      2  H   LIG    1       -3.445  -1.993   0.335  0.00  0.00    +0.410 HD
ATOM      3  C   LIG    1       -2.966  -3.861  -0.251  0.00  0.00    +0.520 C 
ATOM      4  O   LIG    1       -2.056  -4.593  -0.578  0.00  0.00    -0.510 OA
ENDROOT
BRANCH   1   5
ATOM      5  C   LIG    1       -1.345  -2.065   0.030  0.00  0.00    +0.270 C 
BRANCH   5   6
ATOM      6  C   LIG    1       -1.338  -0.591   0.440  0.00  0.00    +0.260 C 
BRANCH   6   8
ATOM      7  C   LIG    1        0.030   1.366   0.674  0.00  0.00    +0.330 C 
ATOM      8  N   LIG    1        0.037  -0.077   0.397  0.00  0.00    -0.380 N 
ATOM      9  C   LIG    1        0.849  -0.765   1.410  0.00  0.00    +0.320 C 
ATOM     10  H   LIG    1        0.430  -0.242  -0.517  0.00  0.00    +0.430 HD
ENDBRANCH   6   8
ENDBRANCH   5   6
ENDBRANCH   1   5
BRANCH   3  11
ATOM     11  C   LIG    1       -4.377  -4.389  -0.207  0.00  0.00    +0.240 C 
BRANCH  11  12
ATOM     12  N   LIG    1       -4.367  -5.837  -0.456  0.00  0.00    -0.530 NA
ATOM     13  C   LIG    1       -5.731  -6.346  -0.657  0.00  0.00    +0.230 C 
ATOM     14  C   LIG    1       -5.672  -7.843  -0.971  0.00  0.00    +0.280 C 
ATOM     15  N   LIG    1       -5.025  -8.551   0.141  0.00  0.00    -0.510 N 
ATOM     16  C   LIG    1       -3.656  -8.049   0.314  0.00  0.00    +0.280 C 
ATOM     17  H   LIG    1       -4.997  -9.540  -0.061  0.00  0.00    +0.440 HD
ATOM     18  H   LIG    1       -5.550  -8.396   0.989  0.00  0.00    +0.430 HD
ATOM     19  C   LIG    1       -3.699  -6.554   0.639  0.00  0.00    +0.210 C 
ENDBRANCH  11  12
ENDBRANCH   3  11
TORSDOF 5
ENDMDL
MODEL       33
REMARK  Name = ZINC000020269869
REMARK                            x       y       z     vdW  Elec       q    Type
REMARK                         _______ _______ _______ _____ _____    ______ ____
ROOT
ATOM      1  N   LIG    1       -2.804  -4.007  -0.424  0.00  0.00    -0.730 N 
ATOM      2  H   LIG    1       -1.984  -4.460  -0.678  0.00  0.00    +0.410 HD
ATOM      3  C   LIG    1       -3.931  -4.717  -0.220  0.00  0.00    +0.520 C 
ATOM      4  O   LIG    1       -4.955  -4.151   0.097  0.00  0.00    -0.510 OA
ENDROOT
BRANCH   1   5
ATOM      5  C   LIG    1       -2.817  -2.551  -0.264  0.00  0.00    +0.280 C 
BRANCH   5   6
ATOM      6  C   LIG    1       -1.421  -1.994  -0.551  0.00  0.00    +0.040 C 
BRANCH   6   7
ATOM      7  C   LIG    1       -1.434  -0.473  -0.384  0.00  0.00    +0.270 C 
BRANCH   7   9
ATOM      8  C   LIG    1       -0.134   1.529  -0.616  0.00  0.00    +0.330 C 
ATOM      9  N   LIG    1       -0.094   0.062  -0.660  0.00  0.00    -0.390 N 
ATOM     10  C   LIG    1        0.849  -0.433   0.352  0.00  0.00    +0.320 C 
ATOM     11  H   LIG    1        0.206  -0.240  -1.575  0.00  0.00    +0.430 HD
ENDBRANCH   7   9
ENDBRANCH   6   7
ENDBRANCH   5   6
ENDBRANCH   1   5
BRANCH   3  12
ATOM     12  C   LIG    1       -3.918  -6.215  -0.385  0.00  0.00    +0.240 C 
BRANCH  12  13
ATOM     13  N   LIG    1       -5.286  -6.734  -0.255  0.00  0.00    -0.520 NA
ATOM     14  C   LIG    1       -5.287  -8.201  -0.172  0.00  0.00    +0.220 C 
ATOM     15  C   LIG    1       -6.722  -8.697   0.023  0.00  0.00    +0.280 C 
ATOM     16  N   LIG    1       -7.551  -8.253  -1.106  0.00  0.00    -0.510 N 
ATOM     17  C   LIG    1       -7.560  -6.785  -1.161  0.00  0.00    +0.280 C 
ATOM     18  H   LIG    1       -8.494  -8.591  -0.983  0.00  0.00    +0.440 HD
ATOM     19  H   LIG    1       -7.172  -8.620  -1.966  0.00  0.00    +0.430 HD
ATOM     20  C   LIG    1       -6.132  -6.274  -1.365  0.00  0.00    +0.210 C 
ENDBRANCH  12  13
ENDBRANCH   3  12
TORSDOF 6
ENDMDL
MODEL       34
REMARK  Name = ZINC000043708029
REMARK                            x       y       z     vdW  Elec       q    Type
REMARK                         _______ _______ _______ _____ _____    ______ ____
ROOT
ATOM      1  O   LIG    1       -0.033   0.038   0.326  0.00  0.00    -0.460 OA
ATOM      2  C   LIG    1       -0.014   1.209   0.009  0.00  0.00    +0.530 C 
ATOM      3  N   LIG    1       -1.158   1.829  -0.344  0.00  0.00    -0.630 N 
ATOM      4  C   LIG    1       -1.145   3.216  -0.834  0.00  0.00    +0.310 C 
ATOM      5  C   LIG    1       -1.940   3.276  -2.143  0.00  0.00    +0.260 C 
ATOM      6  N   LIG    1       -3.282   2.722  -1.925  0.00  0.00    -0.380 N 
ATOM      7  C   LIG    1       -3.186   1.297  -1.586  0.00  0.00    +0.260 C 
ATOM      8  H   LIG    1       -3.730   3.217  -1.169  0.00  0.00    +0.440 HD
ATOM      9  C   LIG    1       -2.453   1.137  -0.255  0.00  0.00    +0.340 C 
ENDROOT
BRANCH   2  10
ATOM     10  C   LIG    1        1.288   1.967   0.003  0.00  0.00    +0.160 C 
ATOM     11  C   LIG    1        1.786   2.115  -1.437  0.00  0.00    +0.250 C 
ATOM     12  N   LIG    1        3.084   2.804  -1.435  0.00  0.00    -0.500 N 
ATOM     13  C   LIG    1        4.053   2.019  -0.658  0.00  0.00    +0.260 C 
ATOM     14  C   LIG    1        3.550   1.871   0.780  0.00  0.00    +0.280 C 
ATOM     15  H   LIG    1        2.980   3.717  -1.018  0.00  0.00    +0.430 HD
ATOM     16  H   LIG    1        3.414   2.903  -2.383  0.00  0.00    +0.440 HD
ATOM     17  O   LIG    1        2.261   1.252   0.768  0.00  0.00    -0.330 OA
ENDBRANCH   2  10
BRANCH   6  18
ATOM     18  C   LIG    1       -4.078   2.878  -3.150  0.00  0.00    +0.280 C 
BRANCH  18  19
ATOM     19  C   LIG    1       -5.513   2.416  -2.887  0.00  0.00    +0.210 C 
BRANCH  19  20
ATOM     20  O   LIG    1       -6.123   3.281  -1.927  0.00  0.00    -0.580 OA
ATOM     21  H   LIG    1       -7.037   3.047  -1.711  0.00  0.00    +0.410 HD
ENDBRANCH  19  20
ENDBRANCH  18  19
ENDBRANCH   6  18
TORSDOF 4
ENDMDL
MODEL       35
REMARK  Name = ZINC000002020107
REMARK                            x       y       z     vdW  Elec       q    Type
REMARK                         _______ _______ _______ _____ _____    ______ ____
ROOT
ATOM      1  N   UNK    1       -0.770   1.234   6.151  0.00  0.00    -0.510 N 
ATOM      2  H   UNK    1       -1.714   0.889   6.073  0.00  0.00    +0.430 HD
ATOM      3  H   UNK    1       -0.785   2.239   6.237  0.00  0.00    +0.440 HD
ENDROOT
BRANCH   1   4
ATOM      4  C   UNK    1       -0.010   0.857   4.951  0.00  0.00    +0.250 C 
BRANCH   4   5
ATOM      5  C   UNK    1       -0.675   1.465   3.715  0.00  0.00    +0.220 C 
BRANCH   5   6
ATOM      6  O   UNK    1       -0.593   2.890   3.782  0.00  0.00    -0.550 OA
ATOM      7  H   UNK    1        0.311   3.231   3.816  0.00  0.00    +0.400 HD
ENDBRANCH   5   6
BRANCH   5   8
ATOM      8  C   UNK    1        0.041   0.972   2.456  0.00  0.00    +0.020 C 
BRANCH   8   9
ATOM      9  C   UNK    1       -0.699   1.479   1.216  0.00  0.00    +0.270 C 
BRANCH   9  10
ATOM     10  N   UNK    1       -0.012   1.005   0.008  0.00  0.00    -0.640 N 
ATOM     11  H   UNK    1       -0.500   1.339  -0.810  0.00  0.00    +0.450 HD
ATOM     12  H   UNK    1        0.935   1.354   0.000  0.00  0.00    +0.440 HD
ATOM     13  H   UNK    1        0.002  -0.004   0.002  0.00  0.00    +0.440 HD
ENDBRANCH   9  10
ENDBRANCH   8   9
ENDBRANCH   5   8
ENDBRANCH   4   5
ENDBRANCH   1   4
BRANCH   1  14
ATOM     14  C   UNK    1       -0.131   0.651   7.338  0.00  0.00    +0.250 C 
BRANCH  14  15
ATOM     15  C   UNK    1       -0.922   1.043   8.587  0.00  0.00    +0.040 C 
BRANCH  15  16
ATOM     16  C   UNK    1       -0.257   0.435   9.824  0.00  0.00    +0.030 C 
BRANCH  16  17
ATOM     17  C   UNK    1       -1.048   0.828  11.073  0.00  0.00    +0.070 C 
BRANCH  17  18
ATOM     18  C   UNK    1       -0.383   0.220  12.310  0.00  0.00    +0.090 C 
BRANCH  18  19
ATOM     19  N   UNK    1       -0.467  -1.245  12.241  0.00  0.00    -0.620 N 
ATOM     20  H   UNK    1       -1.436  -1.525  12.208  0.00  0.00    +0.430 HD
ATOM     21  H   UNK    1       -0.029  -1.646  13.056  0.00  0.00    +0.440 HD
ATOM     22  H   UNK    1        0.005  -1.570  11.411  0.00  0.00    +0.410 HD
ENDBRANCH  18  19
BRANCH  18  23
ATOM     23  C   UNK    1       -1.088   0.706  13.550  0.00  0.00    +0.480 C 
ATOM     24  O   UNK    1       -0.715   1.727  14.103  0.00  0.00    -0.630 OA
ATOM     25  O   UNK    1       -2.031   0.078  14.000  0.00  0.00    -0.660 OA
ENDBRANCH  18  23
ENDBRANCH  17  18
ENDBRANCH  16  17
ENDBRANCH  15  16
ENDBRANCH  14  15
ENDBRANCH   1  14
TORSDOF 13
ENDMDL
