MODEL        1
REMARK  Name = ZINC000001768908
REMARK                            x       y       z     vdW  Elec       q    Type
REMARK                         _______ _______ _______ _____ _____    ______ ____
ROOT
ATOM      1  C   UNK    1       -1.429  -0.534   0.112  0.00  0.00    -0.360 C 
ENDROOT
BRANCH   1   2
ATOM      2  S   UNK    1       -2.173   0.052   1.659  0.00  0.00    +2.470 S 
ATOM      3  O   UNK    1       -2.301   1.466   1.593  0.00  0.00    -0.920 OA
ATOM      4  O   UNK    1       -1.472  -0.531   2.749  0.00  0.00    -0.950 OA
BRANCH   2   5
ATOM      5  C   UNK    1       -3.830  -0.682   1.579  0.00  0.00    -0.450 C 
BRANCH   5   6
ATOM      6  C   UNK    1       -4.611  -0.295   2.809  0.00  0.00    +0.520 C 
ATOM      7  O   UNK    1       -5.756  -0.687   2.952  0.00  0.00    -0.690 OA
ATOM      8  O   UNK    1       -4.097   0.411   3.660  0.00  0.00    -0.680 OA
ENDBRANCH   5   6
ENDBRANCH   2   5
ENDBRANCH   1   2
BRANCH   1   9
ATOM      9  C   UNK    1        0.002  -0.004   0.002  0.00  0.00    +0.120 C 
BRANCH   9  10
ATOM     10  N   UNK    1       -0.018   1.465   0.010  0.00  0.00    -0.820 NA
ATOM     11  H   UNK    1       -0.556   1.823  -0.764  0.00  0.00    +0.340 HD
ATOM     12  H   UNK    1        0.919   1.839   0.003  0.00  0.00    +0.340 HD
ENDBRANCH   9  10
BRANCH   9  13
ATOM     13  C   UNK    1        0.621  -0.491  -1.283  0.00  0.00    +0.480 C 
ATOM     14  O   UNK    1        0.733  -1.687  -1.491  0.00  0.00    -0.700 OA
ATOM     15  O   UNK    1        1.009   0.311  -2.115  0.00  0.00    -0.700 OA
ENDBRANCH   9  13
ENDBRANCH   1   9
TORSDOF 6
ENDMDL
MODEL        2
REMARK  Name = ZINC000015636573
REMARK                            x       y       z     vdW  Elec       q    Type
REMARK                         _______ _______ _______ _____ _____    ______ ____
ROOT
ATOM      1  O   LIG    1        0.002  -0.004   0.002  0.00  0.00    -0.470 OA
ATOM      2  C   LIG    1       -0.014   1.211   0.009  0.00  0.00    +0.410 A 
ATOM      3  C   LIG    1       -1.223   2.070   0.031  0.00  0.00    -0.110 A 
ATOM      4  C   LIG    1       -2.577   1.753   0.050  0.00  0.00    +0.030 A 
ATOM      5  C   LIG    1       -3.525   2.763   0.069  0.00  0.00    +0.000 A 
ATOM      6  C   LIG    1       -3.134   4.088   0.070  0.00  0.00    -0.010 A 
ATOM      7  C   LIG    1       -1.790   4.420   0.052  0.00  0.00    +0.040 A 
ATOM      8  C   LIG    1       -0.825   3.418   0.033  0.00  0.00    -0.110 A 
ATOM      9  C   LIG    1        0.656   3.482   0.011  0.00  0.00    +0.450 A 
ATOM     10  O   LIG    1        1.331   4.494   0.007  0.00  0.00    -0.500 OA
ATOM     11  C   LIG    1        1.164   2.098   0.002  0.00  0.00    -0.310 A 
ATOM     12  N   LIG    1        2.426   1.725  -0.017  0.00  0.00    -0.130 NA
ENDROOT
BRANCH  12  13
ATOM     13  N   LIG    1        2.728   0.471  -0.022  0.00  0.00    -0.310 NA
BRANCH  13  14
ATOM     14  C   LIG    1        4.067   0.075  -0.042  0.00  0.00    +0.250 A 
ATOM     15  N   LIG    1        5.127   0.872  -0.051  0.00  0.00    -0.400 NA
ATOM     16  N   LIG    1        6.177   0.123  -0.069  0.00  0.00    -0.220 NA
ATOM     17  N   LIG    1        5.812  -1.111  -0.072  0.00  0.00    -0.220 NA
ATOM     18  N   LIG    1        4.524  -1.169  -0.050  0.00  0.00    -0.380 NA
ENDBRANCH  13  14
ENDBRANCH  12  13
TORSDOF 2
ENDMDL
MODEL        3
REMARK  Name = ZINC000000182880
REMARK                            x       y       z     vdW  Elec       q    Type
REMARK                         _______ _______ _______ _____ _____    ______ ____
ROOT
ATOM      1  N   SER A  1       -2.343   1.149  -0.671  0.00  0.00    -0.690 N 
ATOM      2  H   SER A  1       -2.929   0.567  -0.163  0.00  0.00    +0.400 HD
ATOM      3  C   UNK A  0       -2.461   1.221  -2.012  0.00  0.00    +0.560 C 
ATOM      4  O   UNK A  0       -1.726   1.950  -2.648  0.00  0.00    -0.560 OA
ENDROOT
BRANCH   3   5
ATOM      5  C   UNK A  0       -3.484   0.411  -2.708  0.00  0.00    -0.120 A 
ATOM      6  C   UNK A  0       -4.337  -0.426  -1.988  0.00  0.00    +0.110 A 
ATOM      7  N   UNK A  0       -5.249  -1.147  -2.605  0.00  0.00    -0.460 NA
ATOM      8  C   UNK A  0       -5.397  -1.113  -3.915  0.00  0.00    +0.080 A 
ATOM      9  C   UNK A  0       -4.589  -0.307  -4.706  0.00  0.00    +0.220 A 
ATOM     10  O   UNK A  0       -4.752  -0.281  -6.055  0.00  0.00    -0.730 OA
ATOM     11  C   UNK A  0       -3.616   0.477  -4.100  0.00  0.00    -0.060 A 
ENDBRANCH   3   5
BRANCH   1  12
ATOM     12  CA  SER A  1       -1.330   1.951   0.019  0.00  0.00    +0.160 C 
BRANCH  12  14
ATOM     13  O   SER A  1        0.002  -0.004   0.002  0.00  0.00    -0.680 OA
ATOM     14  C   SER A  1       -0.015   1.215   0.009  0.00  0.00    +0.500 C 
ATOM     15  OXT SER A  1        1.033   1.839   0.002  0.00  0.00    -0.710 OA
ENDBRANCH  12  14
BRANCH  12  16
ATOM     16  CB  SER A  1       -1.768   2.192   1.465  0.00  0.00    +0.180 C 
BRANCH  16  17
ATOM     17  OG  SER A  1       -1.806   0.947   2.165  0.00  0.00    -0.550 OA
ATOM     18  H   SER A  1       -2.077   1.024   3.090  0.00  0.00    +0.360 HD
ENDBRANCH  16  17
ENDBRANCH  12  16
ENDBRANCH   1  12
TORSDOF 5
ENDMDL
MODEL        4
REMARK  Name = ZINC000000182882
REMARK                            x       y       z     vdW  Elec       q    Type
REMARK                         _______ _______ _______ _____ _____    ______ ____
ROOT
ATOM      1  N   SER A  1       -1.093   3.377  -0.214  0.00  0.00    -0.690 N 
ATOM      2  H   SER A  1       -1.012   3.985   0.538  0.00  0.00    +0.400 HD
ATOM      3  C   UNK A  0       -0.988   3.846  -1.474  0.00  0.00    +0.560 C 
ATOM      4  O   UNK A  0       -1.090   3.085  -2.416  0.00  0.00    -0.560 OA
ENDROOT
BRANCH   3   5
ATOM      5  C   UNK A  0       -0.749   5.286  -1.709  0.00  0.00    -0.120 A 
ATOM      6  C   UNK A  0       -0.625   6.169  -0.635  0.00  0.00    +0.110 A 
ATOM      7  N   UNK A  0       -0.411   7.452  -0.842  0.00  0.00    -0.460 NA
ATOM      8  C   UNK A  0       -0.307   7.956  -2.056  0.00  0.00    +0.080 A 
ATOM      9  C   UNK A  0       -0.419   7.146  -3.178  0.00  0.00    +0.220 A 
ATOM     10  O   UNK A  0       -0.309   7.678  -4.424  0.00  0.00    -0.730 OA
ATOM     11  C   UNK A  0       -0.638   5.785  -3.012  0.00  0.00    -0.060 A 
ENDBRANCH   3   5
BRANCH   1  12
ATOM     12  CA  SER A  1       -1.330   1.951   0.019  0.00  0.00    +0.160 C 
BRANCH  12  14
ATOM     13  O   SER A  1        0.002  -0.004   0.002  0.00  0.00    -0.710 OA
ATOM     14  C   SER A  1       -0.015   1.215   0.009  0.00  0.00    +0.500 C 
ATOM     15  OXT SER A  1        1.033   1.839   0.002  0.00  0.00    -0.680 OA
ENDBRANCH  12  14
BRANCH  12  16
ATOM     16  CB  SER A  1       -2.009   1.762   1.377  0.00  0.00    +0.190 C 
BRANCH  16  17
ATOM     17  OG  SER A  1       -1.119   2.172   2.416  0.00  0.00    -0.560 OA
ATOM     18  H   SER A  1       -1.484   2.080   3.307  0.00  0.00    +0.360 HD
ENDBRANCH  16  17
ENDBRANCH  12  16
ENDBRANCH   1  12
TORSDOF 5
ENDMDL
MODEL        5
REMARK  Name = ZINC000002527900
REMARK                            x       y       z     vdW  Elec       q    Type
REMARK                         _______ _______ _______ _____ _____    ______ ____
ROOT
ATOM      1  N   LIG    1       -3.563   1.622   0.062  0.00  0.00    -0.490 NA
ENDROOT
BRANCH   1   2
ATOM      2  C   LIG    1       -2.185   1.118   0.135  0.00  0.00    +0.170 C 
BRANCH   2   3
ATOM      3  C   LIG    1       -1.207   2.291   0.042  0.00  0.00    -0.060 C 
BRANCH   3   5
ATOM      4  O   LIG    1        0.412   0.578   0.234  0.00  0.00    -0.710 OA
ATOM      5  C   LIG    1        0.206   1.773   0.117  0.00  0.00    +0.500 C 
ATOM      6  O   LIG    1        1.144   2.550   0.055  0.00  0.00    -0.730 OA
ENDBRANCH   3   5
ENDBRANCH   2   3
ENDBRANCH   1   2
BRANCH   1   7
ATOM      7  C   LIG    1       -3.887   2.441   1.237  0.00  0.00    +0.060 C 
BRANCH   7   8
ATOM      8  C   LIG    1       -5.128   3.249   0.959  0.00  0.00    +0.500 C 
ATOM      9  O   LIG    1       -5.616   3.938   1.839  0.00  0.00    -0.740 OA
ATOM     10  O   LIG    1       -5.644   3.214  -0.144  0.00  0.00    -0.670 OA
ENDBRANCH   7   8
ENDBRANCH   1   7
BRANCH   1  11
ATOM     11  C   LIG    1       -4.520   0.518  -0.090  0.00  0.00    +0.080 C 
BRANCH  11  12
ATOM     12  C   LIG    1       -4.486   0.016  -1.511  0.00  0.00    +0.510 C 
ATOM     13  O   LIG    1       -5.248  -0.869  -1.863  0.00  0.00    -0.740 OA
ATOM     14  O   LIG    1       -3.697   0.494  -2.308  0.00  0.00    -0.680 OA
ENDBRANCH  11  12
ENDBRANCH   1  11
TORSDOF 7
ENDMDL
MODEL        6
REMARK  Name = ZINC000087440075
REMARK                            x       y       z     vdW  Elec       q    Type
REMARK                         _______ _______ _______ _____ _____    ______ ____
ROOT
ATOM      1  C   LIG    1       -1.330   1.951   0.019  0.00  0.00    +0.130 C 
ATOM      2  C   LIG    1       -1.556   2.641  -1.343  0.00  0.00    +0.040 C 
ATOM      3  C   LIG    1       -3.077   2.450  -1.581  0.00  0.00    +0.010 C 
ATOM      4  C   LIG    1       -3.314   1.048  -0.967  0.00  0.00    +0.260 C 
ATOM      5  N   LIG    1       -2.433   1.000   0.218  0.00  0.00    -0.580 N 
ATOM      6  C   LIG    1       -2.611   0.213   1.298  0.00  0.00    +0.640 C 
ATOM      7  O   LIG    1       -1.819   0.256   2.219  0.00  0.00    -0.540 OA
ENDROOT
BRANCH   6   8
ATOM      8  C   LIG    1       -3.770  -0.704   1.362  0.00  0.00    +0.040 A 
ATOM      9  N   LIG    1       -4.710  -0.863   0.434  0.00  0.00    -0.360 NA
ATOM     10  N   LIG    1       -5.539  -1.750   0.869  0.00  0.00    -0.200 NA
ATOM     11  N   LIG    1       -5.156  -2.152   2.030  0.00  0.00    -0.200 NA
ATOM     12  N   LIG    1       -4.073  -1.534   2.357  0.00  0.00    -0.340 NA
ENDBRANCH   6   8
BRANCH   1  14
ATOM     13  O   LIG    1        0.002  -0.004   0.002  0.00  0.00    -0.670 OA
ATOM     14  C   LIG    1       -0.015   1.215   0.009  0.00  0.00    +0.500 C 
ATOM     15  O   LIG    1        1.033   1.839   0.002  0.00  0.00    -0.720 OA
ENDBRANCH   1  14
TORSDOF 2
ENDMDL
MODEL        7
REMARK  Name = ZINC000028538931
REMARK                            x       y       z     vdW  Elec       q    Type
REMARK                         _______ _______ _______ _____ _____    ______ ____
ROOT
ATOM      1  C   LIG    1       -0.018   1.461   0.010  0.00  0.00    +0.280 C 
ATOM      2  N   LIG    1        0.002  -0.004   0.002  0.00  0.00    -0.510 N 
ATOM      3  C   LIG    1        0.006  -0.683  -1.166  0.00  0.00    +0.510 A 
ATOM      4  CA  LIG    1        0.026  -2.150  -1.142  0.00  0.00    -0.070 A 
ATOM      5  N   LIG    1        0.040  -2.790   0.017  0.00  0.00    -0.300 NA
ATOM      6  C   LIG    1        0.036  -2.120   1.158  0.00  0.00    -0.220 A 
ATOM      7  C   LIG    1        0.052  -2.828   2.450  0.00  0.00    +0.560 A 
ATOM      8  O   LIG    1        0.063  -4.043   2.503  0.00  0.00    -0.560 OA
ATOM      9  N   LIG    1        0.040  -2.076   3.575  0.00  0.00    -0.710 NA
ATOM     10  C   LIG    1        0.027  -0.719   3.493  0.00  0.00    +0.620 A 
ATOM     11  N   LIG    1        0.019  -0.069   2.347  0.00  0.00    -0.700 NA
ATOM     12  O   LIG    1       -0.007  -0.084  -2.226  0.00  0.00    -0.520 OA
ATOM     13  C   LIG    1        0.023  -0.704   1.178  0.00  0.00    +0.430 A 
ENDROOT
BRANCH  10  14
ATOM     14  N   LIG    1        0.023   0.004   4.652  0.00  0.00    -0.830 N 
ATOM     15  H   LIG    1        0.029  -0.452   5.508  0.00  0.00    +0.400 HD
ATOM     16  H   LIG    1        0.013   0.973   4.619  0.00  0.00    +0.400 HD
ENDBRANCH  10  14
BRANCH   4  17
ATOM     17  C   LIG    1        0.031  -2.908  -2.401  0.00  0.00    +0.560 C 
ATOM     18  OXT LIG    1        0.018  -2.315  -3.472  0.00  0.00    -0.680 OA
ATOM     19  O   LIG    1        0.048  -4.131  -2.379  0.00  0.00    -0.680 OA
ENDBRANCH   4  17
TORSDOF 2
ENDMDL
MODEL        8
REMARK  Name = ZINC000005479804
REMARK                            x       y       z     vdW  Elec       q    Type
REMARK                         _______ _______ _______ _____ _____    ______ ____
ROOT
ATOM      1  N   LIG    1       -3.915   1.516   0.157  0.00  0.00    -0.480 NA
ENDROOT
BRANCH   1   2
ATOM      2  C   LIG    1       -2.585   0.951   0.424  0.00  0.00    +0.170 C 
BRANCH   2   3
ATOM      3  C   LIG    1       -1.640   2.066   0.877  0.00  0.00    -0.070 C 
BRANCH   3   5
ATOM      4  O   LIG    1       -0.078   0.294   0.997  0.00  0.00    -0.700 OA
ATOM      5  C   LIG    1       -0.276   1.487   1.151  0.00  0.00    +0.500 C 
ATOM      6  O   LIG    1        0.632   2.213   1.520  0.00  0.00    -0.730 OA
ENDBRANCH   3   5
ENDBRANCH   2   3
ENDBRANCH   1   2
BRANCH   1   7
ATOM      7  C   LIG    1       -4.907   0.452  -0.049  0.00  0.00    -0.420 C 
BRANCH   7   8
ATOM      8  P   LIG    1       -6.567   1.079   0.368  0.00  0.00    +2.260 P 
ATOM      9  O   LIG    1       -6.941   2.226  -0.597  0.00  0.00    -1.100 OA
ATOM     10  O   LIG    1       -6.568   1.606   1.820  0.00  0.00    -1.100 OA
BRANCH   8  11
ATOM     11  O   LIG    1       -7.641  -0.112   0.228  0.00  0.00    -0.910 OA
ATOM     12  H   LIG    1       -8.548   0.150   0.435  0.00  0.00    +0.400 HD
ENDBRANCH   8  11
ENDBRANCH   7   8
ENDBRANCH   1   7
BRANCH   1  13
ATOM     13  C   LIG    1       -3.878   2.431  -0.991  0.00  0.00    +0.130 C 
BRANCH  13  14
ATOM     14  C   LIG    1       -3.424   1.681  -2.217  0.00  0.00    +0.480 C 
ATOM     15  O   LIG    1       -3.227   2.280  -3.260  0.00  0.00    -0.730 OA
ATOM     16  O   LIG    1       -3.253   0.474  -2.165  0.00  0.00    -0.700 OA
ENDBRANCH  13  14
ENDBRANCH   1  13
TORSDOF 8
ENDMDL
MODEL        9
REMARK  Name = ZINC000002597015
REMARK                            x       y       z     vdW  Elec       q    Type
REMARK                         _______ _______ _______ _____ _____    ______ ____
ROOT
ATOM      1  C   SER A  1        0.731  -0.503   1.223  0.00  0.00    +0.510 C 
ATOM      2  N   GLU A  2        0.541  -1.767   1.651  0.00  0.00    -0.680 N 
ATOM      3  H   GLU A  2       -0.064  -2.355   1.173  0.00  0.00    +0.390 HD
ATOM      4  O   SER A  1        1.488   0.232   1.820  0.00  0.00    -0.540 OA
ENDROOT
BRANCH   1   5
ATOM      5  CA  SER A  1        0.002  -0.004   0.002  0.00  0.00    +0.180 C 
BRANCH   5   6
ATOM      6  N   SER A  1       -0.018   1.465   0.010  0.00  0.00    -0.820 NA
ATOM      7  H1  SER A  1       -0.556   1.823  -0.764  0.00  0.00    +0.340 HD
ATOM      8  H2  SER A  1        0.919   1.839   0.003  0.00  0.00    +0.350 HD
ENDBRANCH   5   6
BRANCH   5   9
ATOM      9  CB  SER A  1        0.718  -0.497  -1.257  0.00  0.00    +0.170 C 
BRANCH   9  10
ATOM     10  OG  SER A  1       -0.036  -0.123  -2.412  0.00  0.00    -0.580 OA
ATOM     11  H   SER A  1        0.360  -0.404  -3.248  0.00  0.00    +0.380 HD
ENDBRANCH   9  10
ENDBRANCH   5   9
ENDBRANCH   1   5
BRANCH   2  12
ATOM     12  CA  GLU A  2        1.250  -2.252   2.838  0.00  0.00    +0.150 C 
BRANCH  12  13
ATOM     13  C   GLU A  2        2.617  -2.746   2.440  0.00  0.00    +0.500 C 
ATOM     14  OXT GLU A  2        2.797  -3.213   1.328  0.00  0.00    -0.700 OA
ATOM     15  O   GLU A  2        3.543  -2.678   3.230  0.00  0.00    -0.700 OA
ENDBRANCH  12  13
BRANCH  12  16
ATOM     16  CB  GLU A  2        0.458  -3.398   3.471  0.00  0.00    +0.050 C 
BRANCH  16  17
ATOM     17  CG  GLU A  2       -0.881  -2.869   3.988  0.00  0.00    -0.080 C 
BRANCH  17  18
ATOM     18  CD  GLU A  2       -1.660  -3.998   4.612  0.00  0.00    +0.490 C 
ATOM     19  OE2 GLU A  2       -2.763  -3.787   5.088  0.00  0.00    -0.720 OA
ATOM     20  OE1 GLU A  2       -1.188  -5.121   4.641  0.00  0.00    -0.700 OA
ENDBRANCH  17  18
ENDBRANCH  16  17
ENDBRANCH  12  16
ENDBRANCH   2  12
TORSDOF 9
ENDMDL
MODEL       10
REMARK  Name = ZINC000005273797
REMARK                            x       y       z     vdW  Elec       q    Type
REMARK                         _______ _______ _______ _____ _____    ______ ____
ROOT
ATOM      1  C   SER A  1        0.731  -0.503   1.223  0.00  0.00    +0.520 C 
ATOM      2  N   GLU A  2        0.541  -1.767   1.651  0.00  0.00    -0.680 N 
ATOM      3  H   GLU A  2       -0.064  -2.355   1.173  0.00  0.00    +0.390 HD
ATOM      4  O   SER A  1        1.488   0.232   1.820  0.00  0.00    -0.550 OA
ENDROOT
BRANCH   1   5
ATOM      5  CA  SER A  1        0.002  -0.004   0.002  0.00  0.00    +0.190 C 
BRANCH   5   6
ATOM      6  N   SER A  1       -0.018   1.465   0.010  0.00  0.00    -0.820 NA
ATOM      7  H1  SER A  1       -0.556   1.823  -0.764  0.00  0.00    +0.340 HD
ATOM      8  H2  SER A  1        0.919   1.839   0.003  0.00  0.00    +0.350 HD
ENDBRANCH   5   6
BRANCH   5   9
ATOM      9  CB  SER A  1        0.718  -0.497  -1.257  0.00  0.00    +0.160 C 
BRANCH   9  10
ATOM     10  OG  SER A  1       -0.036  -0.123  -2.412  0.00  0.00    -0.570 OA
ATOM     11  H   SER A  1        0.360  -0.404  -3.248  0.00  0.00    +0.380 HD
ENDBRANCH   9  10
ENDBRANCH   5   9
ENDBRANCH   1   5
BRANCH   2  12
ATOM     12  CA  GLU A  2        1.250  -2.252   2.838  0.00  0.00    +0.150 C 
BRANCH  12  13
ATOM     13  C   GLU A  2        0.478  -1.871   4.075  0.00  0.00    +0.500 C 
ATOM     14  OXT GLU A  2        0.980  -2.017   5.176  0.00  0.00    -0.700 OA
ATOM     15  O   GLU A  2       -0.649  -1.416   3.974  0.00  0.00    -0.700 OA
ENDBRANCH  12  13
BRANCH  12  16
ATOM     16  CB  GLU A  2        1.380  -3.775   2.767  0.00  0.00    +0.060 C 
BRANCH  16  17
ATOM     17  CG  GLU A  2        2.268  -4.157   1.581  0.00  0.00    -0.080 C 
BRANCH  17  18
ATOM     18  CD  GLU A  2        2.396  -5.657   1.512  0.00  0.00    +0.490 C 
ATOM     19  OE2 GLU A  2        3.066  -6.171   0.633  0.00  0.00    -0.720 OA
ATOM     20  OE1 GLU A  2        1.829  -6.356   2.334  0.00  0.00    -0.700 OA
ENDBRANCH  17  18
ENDBRANCH  16  17
ENDBRANCH  12  16
ENDBRANCH   2  12
TORSDOF 9
ENDMDL
MODEL       11
REMARK  Name = ZINC000005273796
REMARK                            x       y       z     vdW  Elec       q    Type
REMARK                         _______ _______ _______ _____ _____    ______ ____
ROOT
ATOM      1  C   SER A  1        0.707  -0.490  -1.238  0.00  0.00    +0.480 C 
ATOM      2  N   GLU A  2        0.510  -1.749  -1.676  0.00  0.00    -0.680 N 
ATOM      3  H   GLU A  2       -0.087  -2.343  -1.193  0.00  0.00    +0.390 HD
ATOM      4  O   SER A  1        1.453   0.252  -1.841  0.00  0.00    -0.560 OA
ENDROOT
BRANCH   1   5
ATOM      5  CA  SER A  1        0.002  -0.004   0.002  0.00  0.00    +0.180 C 
BRANCH   5   6
ATOM      6  N   SER A  1       -0.018   1.465   0.010  0.00  0.00    -0.810 NA
ATOM      7  H1  SER A  1       -0.556   1.823  -0.764  0.00  0.00    +0.340 HD
ATOM      8  H2  SER A  1        0.919   1.839   0.003  0.00  0.00    +0.340 HD
ENDBRANCH   5   6
BRANCH   5   9
ATOM      9  CB  SER A  1        0.742  -0.511   1.242  0.00  0.00    +0.200 C 
BRANCH   9  10
ATOM     10  OG  SER A  1        0.010  -0.149   2.414  0.00  0.00    -0.560 OA
ATOM     11  H   SER A  1        0.422  -0.439   3.240  0.00  0.00    +0.370 HD
ENDBRANCH   9  10
ENDBRANCH   5   9
ENDBRANCH   1   5
BRANCH   2  12
ATOM     12  CA  GLU A  2        1.195  -2.222  -2.881  0.00  0.00    +0.150 C 
BRANCH  12  13
ATOM     13  C   GLU A  2        2.570  -2.719  -2.515  0.00  0.00    +0.500 C 
ATOM     14  OXT GLU A  2        3.375  -2.987  -3.391  0.00  0.00    -0.700 OA
ATOM     15  O   GLU A  2        2.877  -2.854  -1.343  0.00  0.00    -0.700 OA
ENDBRANCH  12  13
BRANCH  12  16
ATOM     16  CB  GLU A  2        0.392  -3.361  -3.512  0.00  0.00    +0.060 C 
BRANCH  16  17
ATOM     17  CG  GLU A  2       -0.957  -2.826  -3.997  0.00  0.00    -0.080 C 
BRANCH  17  18
ATOM     18  CD  GLU A  2       -1.748  -3.948  -4.618  0.00  0.00    +0.490 C 
ATOM     19  OE2 GLU A  2       -2.860  -3.732  -5.070  0.00  0.00    -0.720 OA
ATOM     20  OE1 GLU A  2       -1.277  -5.072  -4.668  0.00  0.00    -0.700 OA
ENDBRANCH  17  18
ENDBRANCH  16  17
ENDBRANCH  12  16
ENDBRANCH   2  12
TORSDOF 9
ENDMDL
MODEL       12
REMARK  Name = ZINC000005273795
REMARK                            x       y       z     vdW  Elec       q    Type
REMARK                         _______ _______ _______ _____ _____    ______ ____
ROOT
ATOM      1  C   SER A  1        0.707  -0.490  -1.238  0.00  0.00    +0.470 C 
ATOM      2  N   GLU A  2        0.510  -1.749  -1.676  0.00  0.00    -0.680 N 
ATOM      3  H   GLU A  2       -0.087  -2.343  -1.193  0.00  0.00    +0.390 HD
ATOM      4  O   SER A  1        1.453   0.252  -1.841  0.00  0.00    -0.560 OA
ENDROOT
BRANCH   1   5
ATOM      5  CA  SER A  1        0.002  -0.004   0.002  0.00  0.00    +0.190 C 
BRANCH   5   6
ATOM      6  N   SER A  1       -0.018   1.465   0.010  0.00  0.00    -0.810 NA
ATOM      7  H1  SER A  1       -0.556   1.823  -0.764  0.00  0.00    +0.340 HD
ATOM      8  H2  SER A  1        0.919   1.839   0.003  0.00  0.00    +0.340 HD
ENDBRANCH   5   6
BRANCH   5   9
ATOM      9  CB  SER A  1        0.742  -0.511   1.242  0.00  0.00    +0.200 C 
BRANCH   9  10
ATOM     10  OG  SER A  1        0.010  -0.149   2.414  0.00  0.00    -0.560 OA
ATOM     11  H   SER A  1        0.422  -0.439   3.240  0.00  0.00    +0.370 HD
ENDBRANCH   9  10
ENDBRANCH   5   9
ENDBRANCH   1   5
BRANCH   2  12
ATOM     12  CA  GLU A  2        1.195  -2.222  -2.881  0.00  0.00    +0.150 C 
BRANCH  12  13
ATOM     13  C   GLU A  2        0.400  -1.827  -4.099  0.00  0.00    +0.500 C 
ATOM     14  OXT GLU A  2       -0.813  -1.725  -4.028  0.00  0.00    -0.700 OA
ATOM     15  O   GLU A  2        0.969  -1.610  -5.155  0.00  0.00    -0.700 OA
ENDBRANCH  12  13
BRANCH  12  16
ATOM     16  CB  GLU A  2        1.326  -3.745  -2.829  0.00  0.00    +0.050 C 
BRANCH  16  17
ATOM     17  CG  GLU A  2        2.237  -4.139  -1.665  0.00  0.00    -0.080 C 
BRANCH  17  18
ATOM     18  CD  GLU A  2        2.366  -5.640  -1.614  0.00  0.00    +0.490 C 
ATOM     19  OE2 GLU A  2        3.053  -6.164  -0.753  0.00  0.00    -0.720 OA
ATOM     20  OE1 GLU A  2        1.784  -6.330  -2.433  0.00  0.00    -0.700 OA
ENDBRANCH  17  18
ENDBRANCH  16  17
ENDBRANCH  12  16
ENDBRANCH   2  12
TORSDOF 9
ENDMDL
MODEL       13
REMARK  Name = ZINC000087440238
REMARK                            x       y       z     vdW  Elec       q    Type
REMARK                         _______ _______ _______ _____ _____    ______ ____
ROOT
ATOM      1  C   LIG    1       -1.330   1.951   0.019  0.00  0.00    -0.100 C 
ATOM      2  C   LIG    1       -1.109   3.484   0.107  0.00  0.00    +0.040 C 
ATOM      3  C   LIG    1       -2.407   3.983   0.775  0.00  0.00    +0.260 C 
ATOM      4  N   LIG    1       -2.993   2.843   1.495  0.00  0.00    -0.610 N 
ATOM      5  C   LIG    1       -4.146   2.863   2.193  0.00  0.00    +0.630 C 
ATOM      6  O   LIG    1       -4.536   1.857   2.751  0.00  0.00    -0.550 OA
ATOM      7  C   LIG    1       -2.111   1.673   1.327  0.00  0.00    +0.270 C 
ENDROOT
BRANCH   5   8
ATOM      8  C   LIG    1       -4.936   4.111   2.279  0.00  0.00    +0.030 A 
ATOM      9  N   LIG    1       -4.639   5.280   1.719  0.00  0.00    -0.350 NA
ATOM     10  N   LIG    1       -5.577   6.109   2.030  0.00  0.00    -0.190 NA
ATOM     11  N   LIG    1       -6.448   5.507   2.761  0.00  0.00    -0.200 NA
ATOM     12  N   LIG    1       -6.086   4.280   2.927  0.00  0.00    -0.330 NA
ENDBRANCH   5   8
BRANCH   1  14
ATOM     13  O   LIG    1        0.002  -0.004   0.002  0.00  0.00    -0.700 OA
ATOM     14  C   LIG    1       -0.015   1.215   0.009  0.00  0.00    +0.510 C 
ATOM     15  O   LIG    1        1.033   1.839   0.002  0.00  0.00    -0.700 OA
ENDBRANCH   1  14
TORSDOF 2
ENDMDL
MODEL       14
REMARK  Name = ZINC000087440240
REMARK                            x       y       z     vdW  Elec       q    Type
REMARK                         _______ _______ _______ _____ _____    ______ ____
ROOT
ATOM      1  C   LIG    1       -1.330   1.951   0.019  0.00  0.00    -0.100 C 
ATOM      2  C   LIG    1       -1.502   2.800  -1.268  0.00  0.00    +0.030 C 
ATOM      3  C   LIG    1       -3.035   2.890  -1.420  0.00  0.00    +0.260 C 
ATOM      4  N   LIG    1       -3.615   1.761  -0.677  0.00  0.00    -0.610 N 
ATOM      5  C   LIG    1       -4.930   1.498  -0.549  0.00  0.00    +0.630 C 
ATOM      6  O   LIG    1       -5.297   0.532   0.090  0.00  0.00    -0.550 OA
ATOM      7  C   LIG    1       -2.518   0.964  -0.096  0.00  0.00    +0.270 C 
ENDROOT
BRANCH   5   8
ATOM      8  C   LIG    1       -5.928   2.385  -1.187  0.00  0.00    +0.030 A 
ATOM      9  N   LIG    1       -5.676   3.468  -1.918  0.00  0.00    -0.350 NA
ATOM     10  N   LIG    1       -6.810   3.957  -2.289  0.00  0.00    -0.190 NA
ATOM     11  N   LIG    1       -7.760   3.225  -1.822  0.00  0.00    -0.200 NA
ATOM     12  N   LIG    1       -7.251   2.252  -1.147  0.00  0.00    -0.330 NA
ENDBRANCH   5   8
BRANCH   1  14
ATOM     13  O   LIG    1        0.002  -0.004   0.002  0.00  0.00    -0.700 OA
ATOM     14  C   LIG    1       -0.015   1.215   0.009  0.00  0.00    +0.510 C 
ATOM     15  O   LIG    1        1.033   1.839   0.002  0.00  0.00    -0.700 OA
ENDBRANCH   1  14
TORSDOF 2
ENDMDL
MODEL       15
REMARK  Name = ZINC000008672837
REMARK                            x       y       z     vdW  Elec       q    Type
REMARK                         _______ _______ _______ _____ _____    ______ ____
ROOT
ATOM      1  CA  LIG    1       -1.298   1.937   0.019  0.00  0.00    -0.030 A 
ATOM      2  N   LIG    1       -2.437   1.264   0.026  0.00  0.00    -0.300 NA
ATOM      3  C   LIG    1       -3.597   1.903   0.035  0.00  0.00    -0.140 A 
ATOM      4  C   LIG    1       -3.656   3.309   0.037  0.00  0.00    +0.390 A 
ATOM      5  N   LIG    1       -2.514   4.042   0.029  0.00  0.00    -0.620 N 
ATOM      6  H   LIG    1       -2.553   5.011   0.030  0.00  0.00    +0.400 HD
ATOM      7  N   LIG    1       -4.877   3.920   0.045  0.00  0.00    -0.660 N 
ATOM      8  H   LIG    1       -4.926   4.888   0.047  0.00  0.00    +0.390 HD
ATOM      9  C   LIG    1       -6.012   3.203   0.053  0.00  0.00    +0.660 A 
ATOM     10  N   LIG    1       -6.023   1.860   0.051  0.00  0.00    -0.690 NA
ATOM     11  O   LIG    1       -7.074   3.793   0.060  0.00  0.00    -0.610 OA
ATOM     12  C   LIG    1       -4.871   1.156   0.043  0.00  0.00    +0.560 A 
ATOM     13  O   LIG    1       -4.882  -0.060   0.042  0.00  0.00    -0.540 OA
ATOM     14  C   LIG    1       -1.323   3.405   0.027  0.00  0.00    +0.500 A 
ATOM     15  O   LIG    1       -0.284   4.040   0.020  0.00  0.00    -0.500 OA
ENDROOT
BRANCH   1  17
ATOM     16  O   LIG    1        0.002  -0.004   0.002  0.00  0.00    -0.670 OA
ATOM     17  C   LIG    1       -0.015   1.220   0.009  0.00  0.00    +0.550 C 
ATOM     18  OXT LIG    1        1.037   1.846   0.002  0.00  0.00    -0.670 OA
ENDBRANCH   1  17
TORSDOF 1
ENDMDL
MODEL       16
REMARK  Name = ZINC000012297001
REMARK                            x       y       z     vdW  Elec       q    Type
REMARK                         _______ _______ _______ _____ _____    ______ ____
ROOT
ATOM      1  C   LIG    1        0.002  -0.004   0.002  0.00  0.00    +0.590 A 
ATOM      2  N   LIG    1       -1.138  -0.663   0.004  0.00  0.00    -0.690 NA
ATOM      3  C   LIG    1       -1.163  -2.000  -0.004  0.00  0.00    +0.390 A 
ATOM      4  C   LIG    1        0.028  -2.706  -0.014  0.00  0.00    -0.330 A 
ATOM      5  C   LIG    1        0.017  -4.210  -0.023  0.00  0.00    +0.000 C 
ATOM      6  C   LIG    1       -1.194  -4.706  -0.816  0.00  0.00    +0.060 C 
ATOM      7  C   LIG    1       -2.430  -3.971  -0.371  0.00  0.00    +0.550 C 
ATOM      8  O   LIG    1       -3.494  -4.552  -0.346  0.00  0.00    -0.570 OA
ATOM      9  C   LIG    1        1.236  -2.003  -0.016  0.00  0.00    +0.540 A 
ATOM     10  O   LIG    1        2.303  -2.596  -0.025  0.00  0.00    -0.620 OA
ATOM     11  N   LIG    1       -2.369  -2.679  -0.001  0.00  0.00    -0.640 N 
ATOM     12  H   LIG    1       -3.179  -2.219   0.270  0.00  0.00    +0.390 HD
ATOM     13  N   LIG    1        1.198  -0.653  -0.013  0.00  0.00    -0.710 NA
ENDROOT
BRANCH   1  14
ATOM     14  N   LIG    1       -0.017   1.365   0.009  0.00  0.00    -0.840 N 
ATOM     15  H   LIG    1       -0.863   1.839   0.016  0.00  0.00    +0.390 HD
ATOM     16  H   LIG    1        0.817   1.861   0.004  0.00  0.00    +0.400 HD
ENDBRANCH   1  14
BRANCH   5  17
ATOM     17  C   LIG    1       -0.067  -4.721   1.393  0.00  0.00    +0.500 C 
ATOM     18  O   LIG    1        0.416  -4.071   2.304  0.00  0.00    -0.680 OA
ATOM     19  O   LIG    1       -0.617  -5.784   1.626  0.00  0.00    -0.720 OA
ENDBRANCH   5  17
TORSDOF 2
ENDMDL
MODEL       17
REMARK  Name = ZINC000012297000
REMARK                            x       y       z     vdW  Elec       q    Type
REMARK                         _______ _______ _______ _____ _____    ______ ____
ROOT
ATOM      1  C   LIG    1        0.002  -0.004   0.002  0.00  0.00    +0.590 A 
ATOM      2  N   LIG    1       -1.138  -0.663   0.004  0.00  0.00    -0.690 NA
ATOM      3  C   LIG    1       -1.163  -2.000  -0.004  0.00  0.00    +0.410 A 
ATOM      4  C   LIG    1        0.028  -2.706  -0.014  0.00  0.00    -0.350 A 
ATOM      5  C   LIG    1        0.017  -4.211  -0.022  0.00  0.00    +0.000 C 
ATOM      6  C   LIG    1       -1.186  -4.715   0.777  0.00  0.00    +0.060 C 
ATOM      7  C   LIG    1       -2.426  -3.975   0.353  0.00  0.00    +0.550 C 
ATOM      8  O   LIG    1       -3.491  -4.556   0.332  0.00  0.00    -0.570 OA
ATOM      9  C   LIG    1        1.236  -2.003  -0.016  0.00  0.00    +0.530 A 
ATOM     10  O   LIG    1        2.303  -2.596  -0.025  0.00  0.00    -0.620 OA
ATOM     11  N   LIG    1       -2.369  -2.679  -0.002  0.00  0.00    -0.630 N 
ATOM     12  H   LIG    1       -3.182  -2.216  -0.260  0.00  0.00    +0.390 HD
ATOM     13  N   LIG    1        1.198  -0.653  -0.013  0.00  0.00    -0.710 NA
ENDROOT
BRANCH   1  14
ATOM     14  N   LIG    1       -0.017   1.365   0.009  0.00  0.00    -0.840 N 
ATOM     15  H   LIG    1       -0.863   1.839   0.016  0.00  0.00    +0.390 HD
ATOM     16  H   LIG    1        0.817   1.861   0.004  0.00  0.00    +0.400 HD
ENDBRANCH   1  14
BRANCH   5  17
ATOM     17  C   LIG    1       -0.081  -4.705  -1.442  0.00  0.00    +0.510 C 
ATOM     18  O   LIG    1       -0.809  -4.136  -2.237  0.00  0.00    -0.700 OA
ATOM     19  O   LIG    1        0.569  -5.673  -1.797  0.00  0.00    -0.720 OA
ENDBRANCH   5  17
TORSDOF 2
ENDMDL
MODEL       18
REMARK  Name = ZINC000006184883
REMARK                            x       y       z     vdW  Elec       q    Type
REMARK                         _______ _______ _______ _____ _____    ______ ____
ROOT
ATOM      1  C   UNK    1        0.630  -0.498  -1.303  0.00  0.00    -0.390 C 
ENDROOT
BRANCH   1   2
ATOM      2  S   UNK    1        2.371   0.005  -1.365  0.00  0.00    +2.450 S 
ATOM      3  O   UNK    1        3.075  -0.669  -0.330  0.00  0.00    -0.940 OA
ATOM      4  O   UNK    1        2.430   1.424  -1.433  0.00  0.00    -0.950 OA
BRANCH   2   5
ATOM      5  C   UNK    1        2.901  -0.673  -2.961  0.00  0.00    -0.440 C 
BRANCH   5   6
ATOM      6  C   UNK    1        4.354  -0.345  -3.189  0.00  0.00    +0.520 C 
ATOM      7  O   UNK    1        4.909  -0.713  -4.211  0.00  0.00    -0.680 OA
ATOM      8  O   UNK    1        4.975   0.287  -2.352  0.00  0.00    -0.680 OA
ENDBRANCH   5   6
ENDBRANCH   2   5
ENDBRANCH   1   2
BRANCH   1   9
ATOM      9  C   UNK    1        0.002  -0.004   0.002  0.00  0.00    +0.130 C 
BRANCH   9  10
ATOM     10  N   UNK    1       -0.018   1.465   0.010  0.00  0.00    -0.830 NA
ATOM     11  H   UNK    1       -0.556   1.823  -0.764  0.00  0.00    +0.340 HD
ATOM     12  H   UNK    1        0.919   1.839   0.003  0.00  0.00    +0.330 HD
ENDBRANCH   9  10
BRANCH   9  13
ATOM     13  C   UNK    1       -1.407  -0.526   0.111  0.00  0.00    +0.510 C 
ATOM     14  O   UNK    1       -1.604  -1.714   0.305  0.00  0.00    -0.700 OA
ATOM     15  O   UNK    1       -2.351   0.239   0.004  0.00  0.00    -0.680 OA
ENDBRANCH   9  13
ENDBRANCH   1   9
TORSDOF 6
ENDMDL
MODEL       19
REMARK  Name = ZINC000001787697
REMARK                            x       y       z     vdW  Elec       q    Type
REMARK                         _______ _______ _______ _____ _____    ______ ____
ROOT
ATOM      1  N   LIG    1       -2.452   1.075   0.078  0.00  0.00    -0.450 NA
ENDROOT
BRANCH   1   2
ATOM      2  C   LIG    1       -1.283   1.956  -0.045  0.00  0.00    +0.160 C 
BRANCH   2   4
ATOM      3  O   LIG    1       -2.431   2.735  -1.961  0.00  0.00    -0.710 OA
ATOM      4  C   LIG    1       -1.469   2.875  -1.225  0.00  0.00    +0.470 C 
ATOM      5  O   LIG    1       -0.660   3.761  -1.442  0.00  0.00    -0.730 OA
ENDBRANCH   2   4
ENDBRANCH   1   2
BRANCH   1   6
ATOM      6  C   LIG    1       -2.576   0.198  -1.093  0.00  0.00    -0.440 C 
BRANCH   6   7
ATOM      7  P   LIG    1       -1.546  -1.286  -0.854  0.00  0.00    +2.260 P 
ATOM      8  O   LIG    1       -2.050  -2.069   0.379  0.00  0.00    -1.100 OA
ATOM      9  O   LIG    1       -0.077  -0.863  -0.630  0.00  0.00    -1.100 OA
BRANCH   7  10
ATOM     10  O   LIG    1       -1.641  -2.222  -2.160  0.00  0.00    -0.910 OA
ATOM     11  H   LIG    1       -1.116  -3.032  -2.103  0.00  0.00    +0.400 HD
ENDBRANCH   7  10
ENDBRANCH   6   7
ENDBRANCH   1   6
BRANCH   1  12
ATOM     12  C   LIG    1       -3.679   1.855   0.285  0.00  0.00    +0.070 C 
BRANCH  12  13
ATOM     13  C   LIG    1       -3.613   2.552   1.620  0.00  0.00    +0.500 C 
ATOM     14  O   LIG    1       -4.538   3.256   1.987  0.00  0.00    -0.740 OA
ATOM     15  O   LIG    1       -2.634   2.412   2.333  0.00  0.00    -0.680 OA
ENDBRANCH  12  13
ENDBRANCH   1  12
TORSDOF 7
ENDMDL
MODEL       20
REMARK  Name = ZINC000075283661
REMARK                            x       y       z     vdW  Elec       q    Type
REMARK                         _______ _______ _______ _____ _____    ______ ____
ROOT
ATOM      1  CA  THR A  1       -1.433  -0.534   0.013  0.00  0.00    +0.040 C 
ENDROOT
BRANCH   1   2
ATOM      2  C   THR A  1       -2.100  -0.151   1.309  0.00  0.00    +0.500 C 
ATOM      3  OXT THR A  1       -2.034  -0.896   2.272  0.00  0.00    -0.680 OA
ATOM      4  O   THR A  1       -2.705   0.904   1.395  0.00  0.00    -0.720 OA
ENDBRANCH   1   2
BRANCH   1   6
ATOM      5  CG2 THR A  1       -0.019   1.526   0.010  0.00  0.00    +0.010 C 
ATOM      6  CB  THR A  1        0.002  -0.004   0.002  0.00  0.00    +0.210 C 
BRANCH   6   7
ATOM      7  OG1 THR A  1        0.693  -0.477   1.160  0.00  0.00    -0.560 OA
ATOM      8  HG1 THR A  1        0.294  -0.202   1.996  0.00  0.00    +0.370 HD
ENDBRANCH   6   7
ENDBRANCH   1   6
BRANCH   1   9
ATOM      9  N   THR A  1       -1.416  -1.997  -0.116  0.00  0.00    -0.630 NA
ATOM     10  H   THR A  1       -0.625  -2.303  -0.662  0.00  0.00    +0.330 HD
BRANCH   9  11
ATOM     11  C   UNK A  0       -2.675  -2.489  -0.691  0.00  0.00    -0.400 C 
BRANCH  11  12
ATOM     12  P   UNK A  0       -2.483  -2.688  -2.493  0.00  0.00    +2.210 P 
ATOM     13  O   UNK A  0       -2.251  -1.305  -3.142  0.00  0.00    -1.090 OA
ATOM     14  O   UNK A  0       -1.273  -3.603  -2.784  0.00  0.00    -1.090 OA
BRANCH  12  15
ATOM     15  O   UNK A  0       -3.817  -3.350  -3.105  0.00  0.00    -0.900 OA
ATOM     16  H   UNK A  0       -3.785  -3.485  -4.062  0.00  0.00    +0.400 HD
ENDBRANCH  12  15
ENDBRANCH  11  12
ENDBRANCH   9  11
ENDBRANCH   1   9
TORSDOF 7
ENDMDL
MODEL       21
REMARK  Name = ZINC000075283655
REMARK                            x       y       z     vdW  Elec       q    Type
REMARK                         _______ _______ _______ _____ _____    ______ ____
ROOT
ATOM      1  CA  THR A  1        0.806  -0.740  -1.109  0.00  0.00    +0.070 C 
ENDROOT
BRANCH   1   2
ATOM      2  C   THR A  1        2.280  -0.436  -1.175  0.00  0.00    +0.470 C 
ATOM      3  OXT THR A  1        2.670   0.717  -1.097  0.00  0.00    -0.700 OA
ATOM      4  O   THR A  1        3.084  -1.343  -1.307  0.00  0.00    -0.700 OA
ENDBRANCH   1   2
BRANCH   1   6
ATOM      5  CG2 THR A  1        0.482   0.742   0.876  0.00  0.00    -0.010 C 
ATOM      6  CB  THR A  1        0.339  -0.686   0.347  0.00  0.00    +0.230 C 
BRANCH   6   7
ATOM      7  OG1 THR A  1        1.138  -1.569   1.136  0.00  0.00    -0.570 OA
ATOM      8  HG1 THR A  1        2.081  -1.356   1.131  0.00  0.00    +0.370 HD
ENDBRANCH   6   7
ENDBRANCH   1   6
BRANCH   1   9
ATOM      9  N   THR A  1        0.557  -2.081  -1.654  0.00  0.00    -0.620 NA
ATOM     10  H   THR A  1        1.270  -2.730  -1.358  0.00  0.00    +0.330 HD
BRANCH   9  11
ATOM     11  C   UNK A  0        0.455  -2.043  -3.119  0.00  0.00    -0.450 C 
BRANCH  11  12
ATOM     12  P   UNK A  0       -1.298  -1.917  -3.603  0.00  0.00    +2.270 P 
ATOM     13  O   UNK A  0       -2.056  -3.176  -3.127  0.00  0.00    -1.100 OA
ATOM     14  O   UNK A  0       -1.923  -0.662  -2.952  0.00  0.00    -1.100 OA
BRANCH  12  15
ATOM     15  O   UNK A  0       -1.406  -1.800  -5.205  0.00  0.00    -0.910 OA
ATOM     16  H   UNK A  0       -2.312  -1.729  -5.535  0.00  0.00    +0.400 HD
ENDBRANCH  12  15
ENDBRANCH  11  12
ENDBRANCH   9  11
ENDBRANCH   1   9
TORSDOF 7
ENDMDL
MODEL       22
REMARK  Name = ZINC000075283656
REMARK                            x       y       z     vdW  Elec       q    Type
REMARK                         _______ _______ _______ _____ _____    ______ ____
ROOT
ATOM      1  CA  THR A  1       -1.342  -0.537   0.257  0.00  0.00    +0.070 C 
ENDROOT
BRANCH   1   2
ATOM      2  C   THR A  1       -1.483  -2.027   0.431  0.00  0.00    +0.480 C 
ATOM      3  OXT THR A  1       -0.950  -2.787  -0.360  0.00  0.00    -0.710 OA
ATOM      4  O   THR A  1       -2.131  -2.473   1.363  0.00  0.00    -0.710 OA
ENDBRANCH   1   2
BRANCH   1   6
ATOM      5  CG2 THR A  1        0.240   1.390   0.424  0.00  0.00    +0.010 C 
ATOM      6  CB  THR A  1        0.118  -0.134   0.477  0.00  0.00    +0.220 C 
BRANCH   6   7
ATOM      7  OG1 THR A  1        0.553  -0.602   1.755  0.00  0.00    -0.570 OA
ATOM      8  HG1 THR A  1        0.045  -0.249   2.498  0.00  0.00    +0.370 HD
ENDBRANCH   6   7
ENDBRANCH   1   6
BRANCH   1   9
ATOM      9  N   THR A  1       -2.193   0.153   1.235  0.00  0.00    -0.620 NA
ATOM     10  H   THR A  1       -2.156  -0.304   2.133  0.00  0.00    +0.320 HD
BRANCH   9  11
ATOM     11  C   UNK A  0       -3.577   0.252   0.751  0.00  0.00    -0.430 C 
BRANCH  11  12
ATOM     12  P   UNK A  0       -3.824   1.865  -0.060  0.00  0.00    +2.270 P 
ATOM     13  O   UNK A  0       -3.643   2.996   0.977  0.00  0.00    -1.100 OA
ATOM     14  O   UNK A  0       -2.788   2.035  -1.194  0.00  0.00    -1.090 OA
BRANCH  12  15
ATOM     15  O   UNK A  0       -5.310   1.935  -0.676  0.00  0.00    -0.910 OA
ATOM     16  H   UNK A  0       -5.512   2.768  -1.124  0.00  0.00    +0.400 HD
ENDBRANCH  12  15
ENDBRANCH  11  12
ENDBRANCH   9  11
ENDBRANCH   1   9
TORSDOF 7
ENDMDL
MODEL       23
REMARK  Name = ZINC000075283659
REMARK                            x       y       z     vdW  Elec       q    Type
REMARK                         _______ _______ _______ _____ _____    ______ ____
ROOT
ATOM      1  CA  THR A  1        0.718  -0.497  -1.257  0.00  0.00    +0.050 C 
ENDROOT
BRANCH   1   2
ATOM      2  C   THR A  1        0.739  -2.004  -1.265  0.00  0.00    +0.510 C 
ATOM      3  OXT THR A  1        1.666  -2.604  -0.749  0.00  0.00    -0.680 OA
ATOM      4  O   THR A  1       -0.172  -2.623  -1.788  0.00  0.00    -0.720 OA
ENDBRANCH   1   2
BRANCH   1   6
ATOM      5  CG2 THR A  1       -0.019   1.526   0.010  0.00  0.00    -0.000 C 
ATOM      6  CB  THR A  1        0.002  -0.004   0.002  0.00  0.00    +0.210 C 
BRANCH   6   7
ATOM      7  OG1 THR A  1        0.693  -0.477   1.160  0.00  0.00    -0.560 OA
ATOM      8  HG1 THR A  1        1.611  -0.180   1.219  0.00  0.00    +0.370 HD
ENDBRANCH   6   7
ENDBRANCH   1   6
BRANCH   1   9
ATOM      9  N   THR A  1        2.096   0.011  -1.267  0.00  0.00    -0.630 NA
ATOM     10  H   THR A  1        2.155   0.907  -0.807  0.00  0.00    +0.320 HD
BRANCH   9  11
ATOM     11  C   UNK A  0        2.619   0.088  -2.638  0.00  0.00    -0.400 C 
BRANCH  11  12
ATOM     12  P   UNK A  0        2.373   1.774  -3.288  0.00  0.00    +2.210 P 
ATOM     13  O   UNK A  0        0.860   2.064  -3.409  0.00  0.00    -1.090 OA
ATOM     14  O   UNK A  0        3.017   2.796  -2.324  0.00  0.00    -1.090 OA
BRANCH  12  15
ATOM     15  O   UNK A  0        3.061   1.896  -4.738  0.00  0.00    -0.900 OA
ATOM     16  H   UNK A  0        2.970   2.768  -5.145  0.00  0.00    +0.400 HD
ENDBRANCH  12  15
ENDBRANCH  11  12
ENDBRANCH   9  11
ENDBRANCH   1   9
TORSDOF 7
ENDMDL
