MODEL        1
REMARK  Name = ZINC000003163158
REMARK                            x       y       z     vdW  Elec       q    Type
REMARK                         _______ _______ _______ _____ _____    ______ ____
ROOT
ATOM      1  C   LIG    1       -3.715   1.698   0.029  0.00  0.00    +0.200 C 
ATOM      2  C   LIG    1       -3.837   2.486   1.349  0.00  0.00    -0.300 C 
ATOM      3  S   LIG    1       -5.638   2.405   1.708  0.00  0.00    +2.410 S 
ATOM      4  C   LIG    1       -5.836   0.708   1.031  0.00  0.00    -0.310 C 
ATOM      5  O   LIG    1       -6.335   3.335   0.891  0.00  0.00    -0.900 OA
ATOM      6  O   LIG    1       -5.849   2.390   3.114  0.00  0.00    -0.900 OA
ATOM      7  C   LIG    1       -4.846   0.692  -0.148  0.00  0.00    +0.200 C 
ENDROOT
BRANCH   1   8
ATOM      8  N   LIG    1       -2.433   0.981   0.019  0.00  0.00    -0.460 N 
ATOM      9  H   LIG    1       -2.368   0.397   0.839  0.00  0.00    +0.430 HD
ATOM     10  H   LIG    1       -2.376   0.406  -0.808  0.00  0.00    +0.440 HD
BRANCH   8  11
ATOM     11  C   LIG    1       -1.330   1.951   0.019  0.00  0.00    +0.170 C 
BRANCH  11  13
ATOM     12  O   LIG    1        0.002  -0.004   0.002  0.00  0.00    -0.670 OA
ATOM     13  C   LIG    1       -0.015   1.215   0.009  0.00  0.00    +0.480 C 
ATOM     14  O   LIG    1        1.033   1.839   0.002  0.00  0.00    -0.640 OA
ENDBRANCH  11  13
ENDBRANCH   8  11
ENDBRANCH   1   8
BRANCH   7  15
ATOM     15  O   LIG    1       -4.284  -0.617  -0.264  0.00  0.00    -0.560 OA
ATOM     16  H   LIG    1       -4.935  -1.309  -0.446  0.00  0.00    +0.420 HD
ENDBRANCH   7  15
TORSDOF 4
ENDMDL
MODEL        2
REMARK  Name = ZINC000065501485
REMARK                            x       y       z     vdW  Elec       q    Type
REMARK                         _______ _______ _______ _____ _____    ______ ____
ROOT
ATOM      1  C   LIG    1       -0.018   1.461   0.010  0.00  0.00    +0.280 C 
ATOM      2  N   LIG    1        0.002  -0.004   0.002  0.00  0.00    -0.610 N 
ATOM      3  C   LIG    1       -1.271  -0.718   0.004  0.00  0.00    +0.280 C 
ATOM      4  C   LIG    1       -1.068  -2.163  -0.454  0.00  0.00    +0.190 C 
ATOM      5  N   LIG    1        0.041  -2.751   0.309  0.00  0.00    -0.530 NA
ATOM      6  C   LIG    1        0.103  -4.208   0.139  0.00  0.00    +0.190 C 
ATOM      7  C   LIG    1        1.155  -4.780   1.097  0.00  0.00    +0.290 C 
ATOM      8  N   LIG    1        2.424  -4.067   0.885  0.00  0.00    -0.620 N 
ATOM      9  C   LIG    1        2.410  -2.595   0.895  0.00  0.00    +0.330 C 
ATOM     10  C   LIG    1        3.571  -4.745   0.686  0.00  0.00    +0.520 C 
ATOM     11  O   LIG    1        4.609  -4.142   0.513  0.00  0.00    -0.530 OA
ATOM     12  C   LIG    1        1.313  -2.120  -0.064  0.00  0.00    +0.140 C 
ATOM     13  C   LIG    1        1.187  -0.626  -0.013  0.00  0.00    +0.530 C 
ATOM     14  O   LIG    1        2.197   0.043   0.023  0.00  0.00    -0.540 OA
ENDROOT
BRANCH  10  15
ATOM     15  C   LIG    1        3.565  -6.252   0.679  0.00  0.00    +0.060 C 
BRANCH  15  16
ATOM     16  C   LIG    1        4.985  -6.767   0.435  0.00  0.00    +0.210 C 
BRANCH  16  17
ATOM     17  O   LIG    1        4.979  -8.196   0.428  0.00  0.00    -0.580 OA
ATOM     18  H   LIG    1        5.848  -8.592   0.279  0.00  0.00    +0.390 HD
ENDBRANCH  16  17
ENDBRANCH  15  16
ENDBRANCH  10  15
TORSDOF 3
ENDMDL
MODEL        3
REMARK  Name = ZINC000068517729
REMARK                            x       y       z     vdW  Elec       q    Type
REMARK                         _______ _______ _______ _____ _____    ______ ____
ROOT
ATOM      1  C   LIG    1       -2.550  -2.680   0.012  0.00  0.00    +0.510 C 
ATOM      2  N   LIG    1       -2.778  -4.008   0.007  0.00  0.00    -0.610 N 
ATOM      3  C   LIG    1       -1.659  -4.960  -0.003  0.00  0.00    +0.270 C 
ATOM      4  C   LIG    1       -1.835  -5.941   1.161  0.00  0.00    +0.020 C 
ATOM      5  C   LIG    1       -3.216  -6.593   1.068  0.00  0.00    +0.060 C 
ATOM      6  C   LIG    1       -4.299  -5.517   1.175  0.00  0.00    -0.020 C 
ATOM      7  C   LIG    1       -4.151  -4.532   0.017  0.00  0.00    +0.300 C 
ATOM      8  O   LIG    1       -3.482  -1.905   0.025  0.00  0.00    -0.540 OA
ENDROOT
BRANCH   6   9
ATOM      9  C   LIG    1       -5.659  -6.165   1.117  0.00  0.00    +0.520 C 
ATOM     10  O   LIG    1       -5.753  -7.368   1.001  0.00  0.00    -0.540 OA
ATOM     11  N   LIG    1       -6.770  -5.406   1.193  0.00  0.00    -0.850 N 
ATOM     12  H   LIG    1       -7.645  -5.822   1.155  0.00  0.00    +0.400 HD
ATOM     13  H   LIG    1       -6.695  -4.443   1.285  0.00  0.00    +0.400 HD
ENDBRANCH   6   9
BRANCH   1  14
ATOM     14  C   LIG    1       -1.136  -2.159   0.001  0.00  0.00    +0.300 C 
BRANCH  14  17
ATOM     15  C   LIG    1       -0.018   1.503   0.010  0.00  0.00    +0.110 C 
ATOM     16  C   LIG    1        0.002  -0.004   0.002  0.00  0.00    +0.510 C 
ATOM     17  N   LIG    1       -1.156  -0.694   0.009  0.00  0.00    -0.720 N 
ATOM     18  H   LIG    1       -2.002  -0.220   0.020  0.00  0.00    +0.410 HD
ATOM     19  O   LIG    1        1.060  -0.596  -0.011  0.00  0.00    -0.550 OA
ENDBRANCH  14  17
ENDBRANCH   1  14
TORSDOF 3
ENDMDL
MODEL        4
REMARK  Name = ZINC000013209481
REMARK                            x       y       z     vdW  Elec       q    Type
REMARK                         _______ _______ _______ _____ _____    ______ ____
ROOT
ATOM      1  N   LIG    1        0.866  -1.969   1.174  0.00  0.00    -0.550 N 
ATOM      2  C   LIG    1       -0.103  -2.744   1.703  0.00  0.00    +0.600 A 
ATOM      3  C   LIG    1        0.022  -4.148   1.634  0.00  0.00    -0.150 A 
ATOM      4  C   LIG    1        1.142  -4.699   1.024  0.00  0.00    +0.310 A 
ATOM      5  N   LIG    1        2.103  -3.849   0.499  0.00  0.00    -0.510 N 
ATOM      6  C   LIG    1        3.294  -4.404  -0.150  0.00  0.00    +0.340 C 
ATOM      7  N   LIG    1        1.018  -6.026   1.091  0.00  0.00    -0.500 NA
ATOM      8  C   LIG    1       -0.098  -6.337   1.700  0.00  0.00    +0.490 A 
ATOM      9  N   LIG    1       -0.750  -5.212   2.056  0.00  0.00    -0.410 N 
ATOM     10  C   LIG    1       -2.034  -5.133   2.757  0.00  0.00    +0.360 C 
ATOM     11  O   LIG    1       -1.076  -2.238   2.233  0.00  0.00    -0.490 OA
ATOM     12  C   LIG    1        1.942  -2.515   0.581  0.00  0.00    +0.710 A 
ATOM     13  O   LIG    1        2.796  -1.785   0.115  0.00  0.00    -0.540 OA
ENDROOT
BRANCH   1  14
ATOM     14  C   LIG    1        0.742  -0.511   1.242  0.00  0.00    +0.350 C 
BRANCH  14  16
ATOM     15  C   LIG    1       -0.019   1.526   0.010  0.00  0.00    +0.030 C 
ATOM     16  C   LIG    1        0.002  -0.004   0.002  0.00  0.00    +0.150 C 
BRANCH  16  17
ATOM     17  O   LIG    1       -1.339  -0.499   0.012  0.00  0.00    -0.550 OA
ATOM     18  H   LIG    1       -1.868  -0.216  -0.746  0.00  0.00    +0.380 HD
ENDBRANCH  16  17
ENDBRANCH  14  16
ENDBRANCH   1  14
TORSDOF 3
ENDMDL
MODEL        5
REMARK  Name = ZINC000000518707
REMARK                            x       y       z     vdW  Elec       q    Type
REMARK                         _______ _______ _______ _____ _____    ______ ____
ROOT
ATOM      1  N   LIG    1        0.634  -1.958  -1.325  0.00  0.00    -0.400 N 
ATOM      2  C   LIG    1        1.556  -2.836  -0.883  0.00  0.00    +0.510 A 
ATOM      3  N   LIG    1        1.146  -4.058  -1.109  0.00  0.00    -0.500 NA
ATOM      4  C   LIG    1       -0.050  -4.032  -1.703  0.00  0.00    +0.320 A 
ATOM      5  N   LIG    1       -0.921  -5.011  -2.154  0.00  0.00    -0.510 N 
ATOM      6  C   LIG    1       -0.568  -6.425  -2.011  0.00  0.00    +0.350 C 
ATOM      7  C   LIG    1       -2.087  -4.664  -2.730  0.00  0.00    +0.710 A 
ATOM      8  O   LIG    1       -2.837  -5.537  -3.123  0.00  0.00    -0.530 OA
ATOM      9  N   LIG    1       -2.445  -3.377  -2.879  0.00  0.00    -0.650 N 
ATOM     10  H   LIG    1       -3.295  -3.162  -3.296  0.00  0.00    +0.440 HD
ATOM     11  C   LIG    1       -1.642  -2.379  -2.457  0.00  0.00    +0.600 A 
ATOM     12  O   LIG    1       -1.977  -1.216  -2.597  0.00  0.00    -0.520 OA
ATOM     13  C   LIG    1       -0.407  -2.697  -1.850  0.00  0.00    -0.160 A 
ENDROOT
BRANCH   1  14
ATOM     14  C   LIG    1        0.718  -0.497  -1.257  0.00  0.00    +0.300 C 
BRANCH  14  16
ATOM     15  C   LIG    1       -0.019   1.526   0.010  0.00  0.00    +0.020 C 
ATOM     16  C   LIG    1        0.002  -0.004   0.002  0.00  0.00    +0.200 C 
BRANCH  16  17
ATOM     17  O   LIG    1        0.693  -0.477   1.160  0.00  0.00    -0.560 OA
ATOM     18  H   LIG    1        1.611  -0.180   1.219  0.00  0.00    +0.380 HD
ENDBRANCH  16  17
ENDBRANCH  14  16
ENDBRANCH   1  14
TORSDOF 3
ENDMDL
MODEL        6
REMARK  Name = ZINC000040457309
REMARK                            x       y       z     vdW  Elec       q    Type
REMARK                         _______ _______ _______ _____ _____    ______ ____
ROOT
ATOM      1  C   LIG    1        0.201  -1.579  -1.892  0.00  0.00    +0.390 A 
ATOM      2  N   LIG    1       -0.890  -2.202  -1.461  0.00  0.00    -0.210 NA
ATOM      3  N   LIG    1       -1.343  -3.227  -2.101  0.00  0.00    -0.210 NA
ATOM      4  C   LIG    1       -0.718  -3.658  -3.190  0.00  0.00    +0.390 A 
ATOM      5  N   LIG    1        0.373  -3.035  -3.622  0.00  0.00    -0.210 NA
ATOM      6  N   LIG    1        0.822  -2.007  -2.985  0.00  0.00    -0.210 NA
ENDROOT
BRANCH   1   7
ATOM      7  N   LIG    1        0.688  -0.476  -1.203  0.00  0.00    -0.700 N 
ATOM      8  H   LIG    1        1.482  -0.019  -1.520  0.00  0.00    +0.420 HD
BRANCH   7  10
ATOM      9  C   LIG    1       -0.019   1.526   0.010  0.00  0.00    +0.050 C 
ATOM     10  C   LIG    1        0.002  -0.004   0.002  0.00  0.00    +0.450 C 
BRANCH  10  11
ATOM     11  O   LIG    1        0.693  -0.477   1.160  0.00  0.00    -0.560 OA
ATOM     12  H   LIG    1        1.611  -0.180   1.219  0.00  0.00    +0.380 HD
ENDBRANCH  10  11
ENDBRANCH   7  10
ENDBRANCH   1   7
BRANCH   4  13
ATOM     13  N   LIG    1       -1.205  -4.761  -3.879  0.00  0.00    -0.670 N 
ATOM     14  H   LIG    1       -2.002  -5.216  -3.564  0.00  0.00    +0.420 HD
BRANCH  13  15
ATOM     15  C   LIG    1       -0.516  -5.237  -5.081  0.00  0.00    +0.420 C 
ATOM     16  C   LIG    1       -1.549  -5.651  -6.131  0.00  0.00    +0.030 C 
BRANCH  15  17
ATOM     17  O   LIG    1        0.301  -6.361  -4.748  0.00  0.00    -0.590 OA
ATOM     18  H   LIG    1        0.788  -6.729  -5.497  0.00  0.00    +0.400 HD
ENDBRANCH  15  17
ENDBRANCH  13  15
ENDBRANCH   4  13
TORSDOF 6
ENDMDL
MODEL        7
REMARK  Name = ZINC000040457307
REMARK                            x       y       z     vdW  Elec       q    Type
REMARK                         _______ _______ _______ _____ _____    ______ ____
ROOT
ATOM      1  C   LIG    1       -1.689  -1.671  -0.680  0.00  0.00    +0.390 A 
ATOM      2  N   LIG    1       -0.745  -2.325  -1.348  0.00  0.00    -0.200 NA
ATOM      3  N   LIG    1       -1.040  -3.403  -1.992  0.00  0.00    -0.210 NA
ATOM      4  C   LIG    1       -2.287  -3.860  -1.987  0.00  0.00    +0.390 A 
ATOM      5  N   LIG    1       -3.231  -3.207  -1.319  0.00  0.00    -0.210 NA
ATOM      6  N   LIG    1       -2.935  -2.131  -0.671  0.00  0.00    -0.210 NA
ENDROOT
BRANCH   1   7
ATOM      7  N   LIG    1       -1.372  -0.511   0.012  0.00  0.00    -0.700 N 
ATOM      8  H   LIG    1       -2.061  -0.036   0.503  0.00  0.00    +0.420 HD
BRANCH   7  10
ATOM      9  C   LIG    1       -0.019   1.526   0.010  0.00  0.00    +0.050 C 
ATOM     10  C   LIG    1        0.002  -0.004   0.002  0.00  0.00    +0.450 C 
BRANCH  10  11
ATOM     11  O   LIG    1        0.693  -0.477   1.160  0.00  0.00    -0.560 OA
ATOM     12  H   LIG    1        0.294  -0.202   1.996  0.00  0.00    +0.380 HD
ENDBRANCH  10  11
ENDBRANCH   7  10
ENDBRANCH   1   7
BRANCH   4  13
ATOM     13  N   LIG    1       -2.604  -5.020  -2.680  0.00  0.00    -0.670 N 
ATOM     14  H   LIG    1       -1.915  -5.498  -3.167  0.00  0.00    +0.420 HD
BRANCH  13  15
ATOM     15  C   LIG    1       -3.979  -5.524  -2.674  0.00  0.00    +0.420 C 
ATOM     16  C   LIG    1       -3.964  -7.050  -2.555  0.00  0.00    +0.030 C 
BRANCH  15  17
ATOM     17  O   LIG    1       -4.629  -5.148  -3.890  0.00  0.00    -0.590 OA
ATOM     18  H   LIG    1       -5.546  -5.449  -3.955  0.00  0.00    +0.400 HD
ENDBRANCH  15  17
ENDBRANCH  13  15
ENDBRANCH   4  13
TORSDOF 6
ENDMDL
MODEL        8
REMARK  Name = ZINC000000400519
REMARK                            x       y       z     vdW  Elec       q    Type
REMARK                         _______ _______ _______ _____ _____    ______ ____
ROOT
ATOM      1  O   LIG    1        0.002  -0.004   0.002  0.00  0.00    -0.500 OA
ATOM      2  C   LIG    1       -0.014   1.214   0.009  0.00  0.00    +0.550 A 
ATOM      3  C   LIG    1       -1.246   1.911   0.030  0.00  0.00    -0.120 A 
ATOM      4  C   LIG    1       -1.236   3.261   0.038  0.00  0.00    +0.340 A 
ATOM      5  N   LIG    1       -0.043   3.930   0.025  0.00  0.00    -0.530 N 
ATOM      6  C   LIG    1        1.121   3.256   0.005  0.00  0.00    +0.690 A 
ATOM      7  O   LIG    1        2.170   3.870  -0.006  0.00  0.00    -0.520 OA
ATOM      8  N   LIG    1        1.140   1.910   0.001  0.00  0.00    -0.550 N 
ENDROOT
BRANCH   5   9
ATOM      9  C   LIG    1       -0.032   5.396   0.033  0.00  0.00    +0.330 C 
BRANCH   9  10
ATOM     10  C   LIG    1       -0.008   5.897   1.478  0.00  0.00    +0.180 C 
BRANCH  10  11
ATOM     11  O   LIG    1        1.219   5.507   2.097  0.00  0.00    -0.560 OA
ATOM     12  H   LIG    1        1.304   5.792   3.017  0.00  0.00    +0.380 HD
ENDBRANCH  10  11
ENDBRANCH   9  10
ENDBRANCH   5   9
BRANCH   8  13
ATOM     13  C   LIG    1        2.421   1.199  -0.020  0.00  0.00    +0.330 C 
BRANCH  13  14
ATOM     14  C   LIG    1        2.889   0.948   1.415  0.00  0.00    +0.170 C 
BRANCH  14  15
ATOM     15  O   LIG    1        1.976   0.063   2.066  0.00  0.00    -0.560 OA
ATOM     16  H   LIG    1        2.211  -0.141   2.982  0.00  0.00    +0.380 HD
ENDBRANCH  14  15
ENDBRANCH  13  14
ENDBRANCH   8  13
TORSDOF 6
ENDMDL
MODEL        9
REMARK  Name = ZINC000004318064
REMARK                            x       y       z     vdW  Elec       q    Type
REMARK                         _______ _______ _______ _____ _____    ______ ____
ROOT
ATOM      1  N   LIG    1       -1.414  -1.994   0.125  0.00  0.00    -0.440 N 
ATOM      2  C   LIG    1       -1.375  -2.886  -0.900  0.00  0.00    +0.580 A 
ATOM      3  N   LIG    1       -1.369  -4.111  -0.414  0.00  0.00    -0.540 NA
ATOM      4  C   LIG    1       -1.403  -4.072   0.919  0.00  0.00    +0.360 A 
ATOM      5  N   LIG    1       -1.413  -5.047   1.904  0.00  0.00    -0.510 N 
ATOM      6  C   LIG    1       -1.389  -6.464   1.532  0.00  0.00    +0.350 C 
ATOM      7  C   LIG    1       -1.454  -4.693   3.202  0.00  0.00    +0.710 A 
ATOM      8  O   LIG    1       -1.467  -5.562   4.053  0.00  0.00    -0.540 OA
ATOM      9  N   LIG    1       -1.478  -3.404   3.581  0.00  0.00    -0.650 N 
ATOM     10  H   LIG    1       -1.504  -3.183   4.525  0.00  0.00    +0.440 HD
ATOM     11  C   LIG    1       -1.465  -2.411   2.667  0.00  0.00    +0.600 A 
ATOM     12  O   LIG    1       -1.486  -1.246   3.024  0.00  0.00    -0.530 OA
ATOM     13  C   LIG    1       -1.426  -2.735   1.300  0.00  0.00    -0.190 A 
ENDROOT
BRANCH   2  14
ATOM     14  N   LIG    1       -1.347  -2.561  -2.236  0.00  0.00    -0.810 N 
ATOM     15  H   LIG    1       -1.319  -3.262  -2.906  0.00  0.00    +0.430 HD
ATOM     16  H   LIG    1       -1.354  -1.630  -2.509  0.00  0.00    +0.420 HD
ENDBRANCH   2  14
BRANCH   1  17
ATOM     17  C   LIG    1       -1.433  -0.534   0.013  0.00  0.00    +0.340 C 
BRANCH  17  19
ATOM     18  C   LIG    1       -0.019   1.526   0.010  0.00  0.00    +0.030 C 
ATOM     19  C   LIG    1        0.002  -0.004   0.002  0.00  0.00    +0.160 C 
BRANCH  19  20
ATOM     20  O   LIG    1        0.671  -0.465  -1.174  0.00  0.00    -0.570 OA
ATOM     21  H   LIG    1        1.588  -0.167  -1.247  0.00  0.00    +0.390 HD
ENDBRANCH  19  20
ENDBRANCH  17  19
ENDBRANCH   1  17
TORSDOF 4
ENDMDL
MODEL       10
REMARK  Name = ZINC000000057347
REMARK                            x       y       z     vdW  Elec       q    Type
REMARK                         _______ _______ _______ _____ _____    ______ ____
ROOT
ATOM      1  N   LIG    1       -1.414  -1.994   0.125  0.00  0.00    -0.410 N 
ATOM      2  C   LIG    1       -1.470  -2.877  -0.891  0.00  0.00    +0.520 A 
ATOM      3  N   LIG    1       -1.430  -4.097  -0.419  0.00  0.00    -0.500 NA
ATOM      4  C   LIG    1       -1.347  -4.064   0.914  0.00  0.00    +0.320 A 
ATOM      5  N   LIG    1       -1.277  -5.038   1.897  0.00  0.00    -0.510 N 
ATOM      6  C   LIG    1       -1.295  -6.455   1.524  0.00  0.00    +0.350 C 
ATOM      7  C   LIG    1       -1.202  -4.684   3.194  0.00  0.00    +0.710 A 
ATOM      8  O   LIG    1       -1.146  -5.553   4.042  0.00  0.00    -0.530 OA
ATOM      9  N   LIG    1       -1.185  -3.395   3.574  0.00  0.00    -0.550 N 
ATOM     10  C   LIG    1       -1.098  -3.064   4.998  0.00  0.00    +0.350 C 
ATOM     11  C   LIG    1       -1.246  -2.401   2.663  0.00  0.00    +0.600 A 
ATOM     12  O   LIG    1       -1.229  -1.237   3.020  0.00  0.00    -0.520 OA
ATOM     13  C   LIG    1       -1.329  -2.727   1.292  0.00  0.00    -0.160 A 
ENDROOT
BRANCH   1  14
ATOM     14  C   LIG    1       -1.433  -0.534   0.013  0.00  0.00    +0.340 C 
BRANCH  14  16
ATOM     15  C   LIG    1       -0.019   1.526   0.010  0.00  0.00    +0.030 C 
ATOM     16  C   LIG    1        0.002  -0.004   0.002  0.00  0.00    +0.160 C 
BRANCH  16  17
ATOM     17  O   LIG    1        0.671  -0.465  -1.174  0.00  0.00    -0.570 OA
ATOM     18  H   LIG    1        1.588  -0.167  -1.247  0.00  0.00    +0.390 HD
ENDBRANCH  16  17
ENDBRANCH  14  16
ENDBRANCH   1  14
TORSDOF 3
ENDMDL
MODEL       11
REMARK  Name = ZINC000006584740
REMARK                            x       y       z     vdW  Elec       q    Type
REMARK                         _______ _______ _______ _____ _____    ______ ____
ROOT
ATOM      1  O   LIG    1        0.002  -0.004   0.002  0.00  0.00    -0.510 OA
ATOM      2  C   LIG    1       -0.014   1.214   0.009  0.00  0.00    +0.550 A 
ATOM      3  C   LIG    1       -1.246   1.911   0.030  0.00  0.00    -0.120 A 
ATOM      4  C   LIG    1       -1.236   3.261   0.038  0.00  0.00    +0.360 A 
ATOM      5  N   LIG    1       -0.043   3.930   0.025  0.00  0.00    -0.540 N 
ATOM      6  C   LIG    1        1.121   3.256   0.005  0.00  0.00    +0.700 A 
ATOM      7  O   LIG    1        2.170   3.870  -0.006  0.00  0.00    -0.530 OA
ATOM      8  N   LIG    1        1.140   1.910   0.001  0.00  0.00    -0.660 N 
ATOM      9  H   LIG    1        1.988   1.439  -0.013  0.00  0.00    +0.430 HD
ENDROOT
BRANCH   5  10
ATOM     10  C   LIG    1       -0.032   5.396   0.033  0.00  0.00    +0.420 C 
ATOM     11  C   LIG    1        0.683   5.920   1.297  0.00  0.00    +0.230 C 
ATOM     12  O   LIG    1       -0.125   7.060   1.676  0.00  0.00    -0.350 OA
ATOM     13  C   LIG    1       -1.468   6.634   1.359  0.00  0.00    +0.330 C 
ATOM     14  O   LIG    1       -1.375   5.904   0.121  0.00  0.00    -0.360 OA
BRANCH  13  15
ATOM     15  C   LIG    1       -2.379   7.851   1.185  0.00  0.00    +0.220 C 
BRANCH  15  16
ATOM     16  O   LIG    1       -1.865   8.687   0.147  0.00  0.00    -0.560 OA
ATOM     17  H   LIG    1       -2.393   9.479  -0.018  0.00  0.00    +0.390 HD
ENDBRANCH  15  16
ENDBRANCH  13  15
ENDBRANCH   5  10
TORSDOF 3
ENDMDL
MODEL       12
REMARK  Name = ZINC000070817935
REMARK                            x       y       z     vdW  Elec       q    Type
REMARK                         _______ _______ _______ _____ _____    ______ ____
ROOT
ATOM      1  C   LIG    1       -4.068  -2.429   0.232  0.00  0.00    +0.540 C 
ATOM      2  N   LIG    1       -4.402  -3.620   0.768  0.00  0.00    -0.620 N 
ATOM      3  C   LIG    1       -5.590  -4.361   0.311  0.00  0.00    +0.300 C 
ATOM      4  C   LIG    1       -5.126  -5.700  -0.264  0.00  0.00    +0.260 C 
ATOM      5  N   LIG    1       -4.170  -6.342   0.628  0.00  0.00    -0.720 N 
ATOM      6  H   LIG    1       -4.054  -7.302   0.550  0.00  0.00    +0.400 HD
ATOM      7  C   LIG    1       -3.442  -5.702   1.545  0.00  0.00    +0.510 C 
ATOM      8  O   LIG    1       -2.621  -6.334   2.175  0.00  0.00    -0.540 OA
ATOM      9  C   LIG    1       -3.590  -4.236   1.828  0.00  0.00    +0.320 C 
ATOM     10  O   LIG    1       -4.755  -1.944  -0.642  0.00  0.00    -0.520 OA
ENDROOT
BRANCH   1  15
ATOM     11  C   LIG    1       -0.018   1.503   0.010  0.00  0.00    +0.110 C 
ATOM     12  C   LIG    1        0.002  -0.004   0.002  0.00  0.00    +0.540 C 
ATOM     13  N   LIG    1       -1.156  -0.694   0.009  0.00  0.00    -0.650 N 
ATOM     14  C   LIG    1       -2.588  -0.359   0.018  0.00  0.00    +0.310 C 
ATOM     15  C   LIG    1       -2.842  -1.701   0.719  0.00  0.00    -0.030 C 
ATOM     16  C   LIG    1       -1.543  -2.112   0.005  0.00  0.00    +0.300 C 
ATOM     17  O   LIG    1        1.060  -0.596  -0.011  0.00  0.00    -0.540 OA
ENDBRANCH   1  15
TORSDOF 1
ENDMDL
MODEL       13
REMARK  Name = ZINC000025625773
REMARK                            x       y       z     vdW  Elec       q    Type
REMARK                         _______ _______ _______ _____ _____    ______ ____
ROOT
ATOM      1  C   LIG    1       -0.019   1.526   0.010  0.00  0.00    +0.050 C 
ATOM      2  C   LIG    1        0.002  -0.004   0.002  0.00  0.00    +0.250 C 
ATOM      3  O   LIG    1        0.697  -0.474  -1.171  0.00  0.00    -0.350 OA
ATOM      4  C   LIG    1        2.073  -0.649  -0.713  0.00  0.00    +0.370 C 
ATOM      5  O   LIG    1        2.606   0.664  -0.578  0.00  0.00    -0.360 OA
ATOM      6  C   LIG    1        3.712   0.887   0.251  0.00  0.00    +0.210 C 
ATOM      7  C   LIG    1        3.702   0.176   1.578  0.00  0.00    +0.130 C 
ATOM      8  C   LIG    1        3.020  -1.171   1.571  0.00  0.00    +0.200 C 
ATOM      9  C   LIG    1        1.800  -1.261   0.680  0.00  0.00    +0.140 C 
ATOM     10  C   LIG    1       -1.431  -0.539  -0.001  0.00  0.00    +0.080 C 
ATOM     11  O   LIG    1        0.698  -0.486   1.167  0.00  0.00    -0.350 OA
ENDROOT
BRANCH   8  12
ATOM     12  O   LIG    1        2.630  -1.491   2.908  0.00  0.00    -0.550 OA
ATOM     13  H   LIG    1        3.367  -1.538   3.532  0.00  0.00    +0.390 HD
ENDBRANCH   8  12
BRANCH   7  14
ATOM     14  O   LIG    1        5.054  -0.009   2.001  0.00  0.00    -0.560 OA
ATOM     15  H   LIG    1        5.548   0.815   2.112  0.00  0.00    +0.390 HD
ENDBRANCH   7  14
BRANCH   6  16
ATOM     16  C   LIG    1        4.969   0.455  -0.507  0.00  0.00    +0.160 C 
BRANCH  16  17
ATOM     17  O   LIG    1        5.154   1.300  -1.644  0.00  0.00    -0.560 OA
ATOM     18  H   LIG    1        5.934   1.084  -2.172  0.00  0.00    +0.380 HD
ENDBRANCH  16  17
ENDBRANCH   6  16
TORSDOF 4
ENDMDL
MODEL       14
REMARK  Name = ZINC000006524717
REMARK                            x       y       z     vdW  Elec       q    Type
REMARK                         _______ _______ _______ _____ _____    ______ ____
ROOT
ATOM      1  O   LIG    1        0.002  -0.004   0.002  0.00  0.00    -0.510 OA
ATOM      2  C   LIG    1       -0.014   1.214   0.009  0.00  0.00    +0.550 A 
ATOM      3  C   LIG    1       -1.246   1.911   0.030  0.00  0.00    -0.110 A 
ATOM      4  C   LIG    1       -1.236   3.261   0.038  0.00  0.00    +0.370 A 
ATOM      5  N   LIG    1       -0.043   3.930   0.025  0.00  0.00    -0.530 N 
ATOM      6  C   LIG    1        1.121   3.256   0.005  0.00  0.00    +0.710 A 
ATOM      7  O   LIG    1        2.170   3.870  -0.006  0.00  0.00    -0.530 OA
ATOM      8  N   LIG    1        1.140   1.910   0.001  0.00  0.00    -0.660 N 
ATOM      9  H   LIG    1        1.988   1.439  -0.013  0.00  0.00    +0.430 HD
ENDROOT
BRANCH   5  10
ATOM     10  C   LIG    1       -0.032   5.396   0.033  0.00  0.00    +0.420 C 
ATOM     11  C   LIG    1        0.644   5.938   1.316  0.00  0.00    +0.240 C 
ATOM     12  O   LIG    1        0.035   7.234   1.484  0.00  0.00    -0.370 OA
ATOM     13  C   LIG    1       -1.204   7.218   0.761  0.00  0.00    +0.350 C 
ATOM     14  O   LIG    1       -1.374   5.923   0.161  0.00  0.00    -0.370 OA
BRANCH  13  15
ATOM     15  C   LIG    1       -2.363   7.494   1.722  0.00  0.00    +0.200 C 
BRANCH  15  16
ATOM     16  O   LIG    1       -2.371   6.505   2.754  0.00  0.00    -0.560 OA
ATOM     17  H   LIG    1       -3.081   6.618   3.400  0.00  0.00    +0.380 HD
ENDBRANCH  15  16
ENDBRANCH  13  15
ENDBRANCH   5  10
TORSDOF 3
ENDMDL
MODEL       15
REMARK  Name = ZINC000058393915
REMARK                            x       y       z     vdW  Elec       q    Type
REMARK                         _______ _______ _______ _____ _____    ______ ____
ROOT
ATOM      1  S   LIG    1       -1.877  -1.618  -1.339  0.00  0.00    +2.780 S 
ATOM      2  O   LIG    1       -0.964  -1.506  -2.423  0.00  0.00    -0.970 OA
ATOM      3  O   LIG    1       -3.284  -1.489  -1.492  0.00  0.00    -0.970 OA
ENDROOT
BRANCH   1   4
ATOM      4  N   LIG    1       -1.421  -0.482  -0.225  0.00  0.00    -1.010 NA
ATOM      5  C   LIG    1       -2.409   0.066   0.709  0.00  0.00    +0.300 C 
BRANCH   4   7
ATOM      6  C   LIG    1        0.012   1.496  -0.335  0.00  0.00    +0.030 C 
ATOM      7  C   LIG    1       -0.031  -0.024  -0.172  0.00  0.00    +0.240 C 
ATOM      8  C   LIG    1        0.582  -0.410   1.176  0.00  0.00    +0.030 C 
ENDBRANCH   4   7
ENDBRANCH   1   4
BRANCH   1   9
ATOM      9  N   LIG    1       -1.615  -3.105  -0.659  0.00  0.00    -0.990 NA
ATOM     10  C   LIG    1       -0.331  -3.784  -0.853  0.00  0.00    +0.310 C 
BRANCH   9  11
ATOM     11  C   LIG    1       -2.668  -3.743   0.136  0.00  0.00    +0.330 C 
BRANCH  11  12
ATOM     12  C   LIG    1       -3.465  -4.674  -0.740  0.00  0.00    +0.500 C 
ATOM     13  O   LIG    1       -3.124  -4.868  -1.887  0.00  0.00    -0.530 OA
ATOM     14  N   LIG    1       -4.558  -5.291  -0.248  0.00  0.00    -0.850 N 
ATOM     15  H   LIG    1       -5.071  -5.891  -0.812  0.00  0.00    +0.400 HD
ATOM     16  H   LIG    1       -4.831  -5.136   0.670  0.00  0.00    +0.400 HD
ENDBRANCH  11  12
ENDBRANCH   9  11
ENDBRANCH   1   9
TORSDOF 5
ENDMDL
MODEL       16
REMARK  Name = ZINC000025625763
REMARK                            x       y       z     vdW  Elec       q    Type
REMARK                         _______ _______ _______ _____ _____    ______ ____
ROOT
ATOM      1  C   LIG    1       -0.019   1.526   0.010  0.00  0.00    +0.050 C 
ATOM      2  C   LIG    1        0.002  -0.004   0.002  0.00  0.00    +0.250 C 
ATOM      3  O   LIG    1        0.696  -0.474  -1.170  0.00  0.00    -0.350 OA
ATOM      4  C   LIG    1        2.070  -0.659  -0.717  0.00  0.00    +0.350 C 
ATOM      5  O   LIG    1        2.638   0.642  -0.618  0.00  0.00    -0.360 OA
ATOM      6  C   LIG    1        3.802   0.799   0.163  0.00  0.00    +0.200 C 
ATOM      7  C   LIG    1        3.643   0.258   1.570  0.00  0.00    +0.130 C 
ATOM      8  C   LIG    1        3.023  -1.127   1.583  0.00  0.00    +0.200 C 
ATOM      9  C   LIG    1        1.809  -1.254   0.684  0.00  0.00    +0.130 C 
ATOM     10  C   LIG    1       -1.431  -0.539  -0.000  0.00  0.00    +0.080 C 
ATOM     11  O   LIG    1        0.697  -0.486   1.166  0.00  0.00    -0.330 OA
ENDROOT
BRANCH   8  12
ATOM     12  O   LIG    1        2.639  -1.447   2.921  0.00  0.00    -0.530 OA
ATOM     13  H   LIG    1        3.372  -1.451   3.551  0.00  0.00    +0.380 HD
ENDBRANCH   8  12
BRANCH   7  14
ATOM     14  O   LIG    1        2.808   1.146   2.317  0.00  0.00    -0.530 OA
ATOM     15  H   LIG    1        3.156   2.045   2.390  0.00  0.00    +0.380 HD
ENDBRANCH   7  14
BRANCH   6  16
ATOM     16  C   LIG    1        4.957   0.062  -0.518  0.00  0.00    +0.150 C 
BRANCH  16  17
ATOM     17  O   LIG    1        5.247   0.685  -1.771  0.00  0.00    -0.560 OA
ATOM     18  H   LIG    1        5.970   0.270  -2.260  0.00  0.00    +0.380 HD
ENDBRANCH  16  17
ENDBRANCH   6  16
TORSDOF 4
ENDMDL
MODEL       17
REMARK  Name = ZINC000003870261
REMARK                            x       y       z     vdW  Elec       q    Type
REMARK                         _______ _______ _______ _____ _____    ______ ____
ROOT
ATOM      1  C1*   U A  1       -0.032   5.396   0.033  0.00  0.00    +0.430 C 
ATOM      2  O4*   U A  1       -1.379   5.908   0.124  0.00  0.00    -0.350 OA
ATOM      3  C4*   U A  1       -1.240   7.258   0.616  0.00  0.00    +0.150 C 
ATOM      4  C3*   U A  1       -0.136   7.175   1.693  0.00  0.00    +0.130 C 
ATOM      5  C2*   U A  1        0.680   5.921   1.299  0.00  0.00    +0.180 C 
ENDROOT
BRANCH   1  10
ATOM      6  O4    U A  1        0.002  -0.004   0.002  0.00  0.00    -0.520 OA
ATOM      7  C4    U A  1       -0.014   1.214   0.009  0.00  0.00    +0.550 A 
ATOM      8  C5    U A  1       -1.246   1.911   0.030  0.00  0.00    -0.130 A 
ATOM      9  C6    U A  1       -1.236   3.261   0.038  0.00  0.00    +0.370 A 
ATOM     10  N1    U A  1       -0.043   3.930   0.025  0.00  0.00    -0.520 N 
ATOM     11  C2    U A  1        1.121   3.256   0.005  0.00  0.00    +0.710 A 
ATOM     12  O2    U A  1        2.170   3.870  -0.006  0.00  0.00    -0.540 OA
ATOM     13  N3    U A  1        1.140   1.910   0.001  0.00  0.00    -0.660 N 
ATOM     14  H3    U A  1        1.988   1.439  -0.013  0.00  0.00    +0.430 HD
ENDBRANCH   1  10
BRANCH   4  15
ATOM     15  O3*   U A  1       -0.713   7.015   2.990  0.00  0.00    -0.540 OA
ATOM     16  H3*   U A  1       -1.282   7.748   3.261  0.00  0.00    +0.380 HD
ENDBRANCH   4  15
BRANCH   5  17
ATOM     17  O2*   U A  1        0.633   4.945   2.342  0.00  0.00    -0.530 OA
ATOM     18  H2*   U A  1        1.012   5.246   3.179  0.00  0.00    +0.390 HD
ENDBRANCH   5  17
BRANCH   3  19
ATOM     19  C5*   U A  1       -2.555   7.739   1.234  0.00  0.00    +0.220 C 
BRANCH  19  20
ATOM     20  O5*   U A  1       -3.548   7.850   0.213  0.00  0.00    -0.560 OA
ATOM     21  H5*   U A  1       -4.410   8.150   0.533  0.00  0.00    +0.390 HD
ENDBRANCH  19  20
ENDBRANCH   3  19
TORSDOF 5
ENDMDL
MODEL       18
REMARK  Name = ZINC000001080904
REMARK                            x       y       z     vdW  Elec       q    Type
REMARK                         _______ _______ _______ _____ _____    ______ ____
ROOT
ATOM      1  N   LIG    1        1.398  -2.528   2.296  0.00  0.00    -0.130 N 
ATOM      2  N   LIG    1        2.669  -2.717   2.380  0.00  0.00    -0.030 NA
ATOM      3  N   LIG    1        2.956  -3.072   3.587  0.00  0.00    -0.190 NA
ATOM      4  C   LIG    1        1.815  -3.103   4.274  0.00  0.00    -0.350 A 
ATOM      5  N   LIG    1        0.861  -2.753   3.446  0.00  0.00    -0.200 NA
ENDROOT
BRANCH   4   6
ATOM      6  S   LIG    1        1.625  -3.524   5.974  0.00  0.00    +2.540 S 
ATOM      7  O   LIG    1        2.730  -4.374   6.250  0.00  0.00    -0.900 OA
ATOM      8  O   LIG    1        0.290  -4.004   6.070  0.00  0.00    -0.900 OA
ATOM      9  C   LIG    1        1.799  -1.948   6.854  0.00  0.00    -0.210 C 
ENDBRANCH   4   6
BRANCH   1  10
ATOM     10  C   LIG    1        0.679  -2.115   1.088  0.00  0.00    +0.470 C 
BRANCH  10  11
ATOM     11  C   LIG    1        0.618  -0.611   1.029  0.00  0.00    +0.450 C 
ATOM     12  O   LIG    1        1.124   0.049   1.905  0.00  0.00    -0.490 OA
BRANCH  11  14
ATOM     13  C   LIG    1       -0.018   1.448   0.010  0.00  0.00    +0.290 C 
ATOM     14  O   LIG    1        0.002  -0.004   0.002  0.00  0.00    -0.350 OA
ENDBRANCH  11  14
ENDBRANCH  10  11
ENDBRANCH   1  10
TORSDOF 4
ENDMDL
MODEL       19
REMARK  Name = ZINC000012958872
REMARK                            x       y       z     vdW  Elec       q    Type
REMARK                         _______ _______ _______ _____ _____    ______ ____
ROOT
ATOM      1  O   LIG    1        0.002  -0.004   0.002  0.00  0.00    -0.490 OA
ATOM      2  C   LIG    1       -0.015   1.217   0.009  0.00  0.00    +0.530 A 
ATOM      3  C   LIG    1       -1.248   1.917   0.030  0.00  0.00    -0.110 A 
ATOM      4  C   LIG    1       -1.228   3.265   0.004  0.00  0.00    +0.340 A 
ATOM      5  N   LIG    1       -0.041   3.932  -0.048  0.00  0.00    -0.520 N 
ATOM      6  C   LIG    1        1.144   3.222  -0.019  0.00  0.00    +0.580 A 
ATOM      7  O   LIG    1        2.227   4.076   0.011  0.00  0.00    -0.250 OA
ATOM      8  C   LIG    1        1.708   5.255   0.656  0.00  0.00    +0.150 C 
ATOM      9  C   LIG    1        2.217   6.647   0.319  0.00  0.00    +0.210 C 
ATOM     10  C   LIG    1        0.899   7.463   0.160  0.00  0.00    +0.180 C 
ATOM     11  O   LIG    1       -0.199   6.505   0.271  0.00  0.00    -0.320 OA
ATOM     12  C   LIG    1        0.345   5.300  -0.142  0.00  0.00    +0.350 C 
ATOM     13  N   LIG    1        1.132   1.909   0.002  0.00  0.00    -0.550 NA
ENDROOT
BRANCH   9  14
ATOM     14  O   LIG    1        3.014   7.167   1.385  0.00  0.00    -0.540 OA
ATOM     15  H   LIG    1        3.362   8.053   1.219  0.00  0.00    +0.400 HD
ENDBRANCH   9  14
BRANCH  10  16
ATOM     16  C   LIG    1        0.795   8.513   1.268  0.00  0.00    +0.220 C 
BRANCH  16  17
ATOM     17  O   LIG    1       -0.356   9.329   1.044  0.00  0.00    -0.570 OA
ATOM     18  H   LIG    1       -0.485  10.018   1.710  0.00  0.00    +0.390 HD
ENDBRANCH  16  17
ENDBRANCH  10  16
TORSDOF 3
ENDMDL
MODEL       20
REMARK  Name = ZINC000000519804
REMARK                            x       y       z     vdW  Elec       q    Type
REMARK                         _______ _______ _______ _____ _____    ______ ____
ROOT
ATOM      1  C   LIG    1        0.012   1.693   0.503  0.00  0.00    +0.030 C 
ATOM      2  C   LIG    1        0.005   0.170   0.362  0.00  0.00    +0.250 C 
ATOM      3  O   LIG    1        0.643  -0.229  -0.872  0.00  0.00    -0.380 OA
ATOM      4  C   LIG    1        2.054  -0.086  -0.606  0.00  0.00    +0.340 C 
ATOM      5  O   LIG    1        2.760  -1.180  -1.211  0.00  0.00    -0.320 OA
ATOM      6  C   LIG    1        2.729  -2.275  -0.270  0.00  0.00    +0.110 C 
ATOM      7  C   LIG    1        2.962  -1.583   1.096  0.00  0.00    +0.160 C 
ATOM      8  C   LIG    1        2.178  -0.236   0.934  0.00  0.00    +0.160 C 
ATOM      9  C   LIG    1       -1.426  -0.367   0.428  0.00  0.00    +0.090 C 
ATOM     10  O   LIG    1        0.822  -0.438   1.389  0.00  0.00    -0.360 OA
ENDROOT
BRANCH   7  11
ATOM     11  O   LIG    1        4.353  -1.334   1.310  0.00  0.00    -0.550 OA
ATOM     12  H   LIG    1        4.885  -2.135   1.408  0.00  0.00    +0.390 HD
ENDBRANCH   7  11
BRANCH   6  13
ATOM     13  C   LIG    1        3.848  -3.274  -0.570  0.00  0.00    +0.230 C 
BRANCH  13  14
ATOM     14  O   LIG    1        3.699  -3.772  -1.901  0.00  0.00    -0.540 OA
ATOM     15  H   LIG    1        2.860  -4.227  -2.059  0.00  0.00    +0.380 HD
ENDBRANCH  13  14
BRANCH  13  16
ATOM     16  C   LIG    1        3.772  -4.437   0.421  0.00  0.00    +0.150 C 
BRANCH  16  17
ATOM     17  O   LIG    1        4.885  -5.311   0.217  0.00  0.00    -0.560 OA
ATOM     18  H   LIG    1        4.901  -6.072   0.812  0.00  0.00    +0.390 HD
ENDBRANCH  16  17
ENDBRANCH  13  16
ENDBRANCH   6  13
TORSDOF 5
ENDMDL
MODEL       21
REMARK  Name = ZINC000013546398
REMARK                            x       y       z     vdW  Elec       q    Type
REMARK                         _______ _______ _______ _____ _____    ______ ____
ROOT
ATOM      1  C   LIG    1       -0.032   5.396   0.033  0.00  0.00    +0.410 C 
ATOM      2  O   LIG    1        0.789   5.898  -1.044  0.00  0.00    -0.330 OA
ATOM      3  C   LIG    1        1.132   7.248  -0.662  0.00  0.00    +0.190 C 
ATOM      4  C   LIG    1        1.424   7.168   0.853  0.00  0.00    +0.160 C 
ATOM      5  C   LIG    1        0.637   5.921   1.322  0.00  0.00    +0.140 C 
ATOM      6  F   LIG    1       -0.326   6.278   2.272  0.00  0.00    -0.190 F 
ENDROOT
BRANCH   1  11
ATOM      7  O   LIG    1        0.002  -0.004   0.002  0.00  0.00    -0.510 OA
ATOM      8  C   LIG    1       -0.014   1.214   0.009  0.00  0.00    +0.550 A 
ATOM      9  C   LIG    1       -1.246   1.911   0.030  0.00  0.00    -0.100 A 
ATOM     10  C   LIG    1       -1.236   3.261   0.038  0.00  0.00    +0.350 A 
ATOM     11  N   LIG    1       -0.043   3.930   0.025  0.00  0.00    -0.530 N 
ATOM     12  C   LIG    1        1.121   3.256   0.005  0.00  0.00    +0.690 A 
ATOM     13  O   LIG    1        2.170   3.870  -0.006  0.00  0.00    -0.510 OA
ATOM     14  N   LIG    1        1.140   1.910   0.001  0.00  0.00    -0.660 N 
ATOM     15  H   LIG    1        1.988   1.439  -0.013  0.00  0.00    +0.430 HD
ENDBRANCH   1  11
BRANCH   4  16
ATOM     16  O   LIG    1        2.824   6.999   1.085  0.00  0.00    -0.530 OA
ATOM     17  H   LIG    1        3.063   6.943   2.020  0.00  0.00    +0.390 HD
ENDBRANCH   4  16
BRANCH   3  18
ATOM     18  C   LIG    1        2.375   7.717  -1.422  0.00  0.00    +0.230 C 
BRANCH  18  19
ATOM     19  O   LIG    1        2.069   7.826  -2.814  0.00  0.00    -0.570 OA
ATOM     20  H   LIG    1        2.813   8.119  -3.358  0.00  0.00    +0.390 HD
ENDBRANCH  18  19
ENDBRANCH   3  18
TORSDOF 4
ENDMDL
MODEL       22
REMARK  Name = ZINC000000056350
REMARK                            x       y       z     vdW  Elec       q    Type
REMARK                         _______ _______ _______ _____ _____    ______ ____
ROOT
ATOM      1  C1*   U A  1       -0.032   5.396   0.033  0.00  0.00    +0.420 C 
ATOM      2  C2*   U A  1        0.667   5.929   1.309  0.00  0.00    +0.010 C 
ATOM      3  C3*   U A  1        0.040   7.337   1.458  0.00  0.00    +0.170 C 
ATOM      4  C4*   U A  1       -1.268   7.255   0.647  0.00  0.00    +0.190 C 
ATOM      5  O4*   U A  1       -1.376   5.913   0.139  0.00  0.00    -0.360 OA
ENDROOT
BRANCH   1  10
ATOM      6  O4    U A  1        0.002  -0.004   0.002  0.00  0.00    -0.510 OA
ATOM      7  C4    U A  1       -0.014   1.214   0.009  0.00  0.00    +0.550 A 
ATOM      8  C5    U A  1       -1.246   1.911   0.030  0.00  0.00    -0.130 A 
ATOM      9  C6    U A  1       -1.236   3.261   0.038  0.00  0.00    +0.370 A 
ATOM     10  N1    U A  1       -0.043   3.930   0.025  0.00  0.00    -0.530 N 
ATOM     11  C2    U A  1        1.121   3.256   0.005  0.00  0.00    +0.700 A 
ATOM     12  O2    U A  1        2.170   3.870  -0.006  0.00  0.00    -0.540 OA
ATOM     13  N3    U A  1        1.140   1.910   0.001  0.00  0.00    -0.660 N 
ATOM     14  H3    U A  1        1.988   1.439  -0.013  0.00  0.00    +0.430 HD
ENDBRANCH   1  10
BRANCH   3  15
ATOM     15  O3*   U A  1       -0.237   7.618   2.831  0.00  0.00    -0.550 OA
ATOM     16  H3*   U A  1        0.547   7.624   3.397  0.00  0.00    +0.390 HD
ENDBRANCH   3  15
BRANCH   4  17
ATOM     17  C5*   U A  1       -2.461   7.572   1.550  0.00  0.00    +0.220 C 
BRANCH  17  18
ATOM     18  O5*   U A  1       -3.655   7.609   0.767  0.00  0.00    -0.570 OA
ATOM     19  H5*   U A  1       -4.454   7.805   1.276  0.00  0.00    +0.380 HD
ENDBRANCH  17  18
ENDBRANCH   4  17
TORSDOF 4
ENDMDL
MODEL       23
REMARK  Name = ZINC000008613151
REMARK                            x       y       z     vdW  Elec       q    Type
REMARK                         _______ _______ _______ _____ _____    ______ ____
ROOT
ATOM      1  C1*   U A  1       -0.032   5.396   0.033  0.00  0.00    +0.440 C 
ATOM      2  O4*   U A  1        0.789   5.898  -1.044  0.00  0.00    -0.340 OA
ATOM      3  C4*   U A  1        1.132   7.248  -0.662  0.00  0.00    +0.140 C 
ATOM      4  C3*   U A  1        1.424   7.168   0.853  0.00  0.00    +0.130 C 
ATOM      5  C2*   U A  1        0.637   5.921   1.322  0.00  0.00    +0.170 C 
ENDROOT
BRANCH   1  10
ATOM      6  O4    U A  1        0.002  -0.004   0.002  0.00  0.00    -0.520 OA
ATOM      7  C4    U A  1       -0.014   1.214   0.009  0.00  0.00    +0.550 A 
ATOM      8  C5    U A  1       -1.246   1.911   0.030  0.00  0.00    -0.120 A 
ATOM      9  C6    U A  1       -1.236   3.261   0.038  0.00  0.00    +0.350 A 
ATOM     10  N1    U A  1       -0.043   3.930   0.025  0.00  0.00    -0.520 N 
ATOM     11  C2    U A  1        1.121   3.256   0.005  0.00  0.00    +0.700 A 
ATOM     12  O2    U A  1        2.170   3.870  -0.006  0.00  0.00    -0.480 OA
ATOM     13  N3    U A  1        1.140   1.910   0.001  0.00  0.00    -0.660 N 
ATOM     14  H3    U A  1        1.988   1.439  -0.013  0.00  0.00    +0.430 HD
ENDBRANCH   1  10
BRANCH   4  15
ATOM     15  O3*   U A  1        2.824   6.999   1.085  0.00  0.00    -0.530 OA
ATOM     16  H3*   U A  1        3.367   7.728   0.756  0.00  0.00    +0.380 HD
ENDBRANCH   4  15
BRANCH   5  17
ATOM     17  O2*   U A  1        1.528   4.941   1.860  0.00  0.00    -0.520 OA
ATOM     18  H2*   U A  1        2.021   5.242   2.636  0.00  0.00    +0.380 HD
ENDBRANCH   5  17
BRANCH   3  19
ATOM     19  C5*   U A  1        2.375   7.717  -1.422  0.00  0.00    +0.210 C 
BRANCH  19  20
ATOM     20  O5*   U A  1        2.069   7.826  -2.814  0.00  0.00    -0.560 OA
ATOM     21  H5*   U A  1        2.813   8.119  -3.358  0.00  0.00    +0.390 HD
ENDBRANCH  19  20
ENDBRANCH   3  19
TORSDOF 5
ENDMDL
MODEL       24
REMARK  Name = ZINC000004016691
REMARK                            x       y       z     vdW  Elec       q    Type
REMARK                         _______ _______ _______ _____ _____    ______ ____
ROOT
ATOM      1  C   LIG    1       -0.032   5.396   0.033  0.00  0.00    +0.410 C 
ATOM      2  O   LIG    1        0.764   5.885  -1.060  0.00  0.00    -0.340 OA
ATOM      3  C   LIG    1        1.404   7.096  -0.606  0.00  0.00    +0.190 C 
ATOM      4  C   LIG    1        1.808   6.767   0.854  0.00  0.00    +0.170 C 
ATOM      5  C   LIG    1        0.610   5.907   1.337  0.00  0.00    +0.130 C 
ATOM      6  F   LIG    1       -0.295   6.691   2.061  0.00  0.00    -0.180 F 
ENDROOT
BRANCH   1  11
ATOM      7  O   LIG    1        0.002  -0.004   0.002  0.00  0.00    -0.510 OA
ATOM      8  C   LIG    1       -0.014   1.214   0.009  0.00  0.00    +0.550 A 
ATOM      9  C   LIG    1       -1.246   1.911   0.030  0.00  0.00    -0.100 A 
ATOM     10  C   LIG    1       -1.236   3.261   0.038  0.00  0.00    +0.350 A 
ATOM     11  N   LIG    1       -0.043   3.930   0.025  0.00  0.00    -0.530 N 
ATOM     12  C   LIG    1        1.121   3.256   0.005  0.00  0.00    +0.700 A 
ATOM     13  O   LIG    1        2.170   3.870  -0.006  0.00  0.00    -0.530 OA
ATOM     14  N   LIG    1        1.140   1.910   0.001  0.00  0.00    -0.660 N 
ATOM     15  H   LIG    1        1.988   1.439  -0.013  0.00  0.00    +0.430 HD
ENDBRANCH   1  11
BRANCH   4  16
ATOM     16  O   LIG    1        1.925   7.960   1.632  0.00  0.00    -0.540 OA
ATOM     17  H   LIG    1        2.176   7.805   2.553  0.00  0.00    +0.390 HD
ENDBRANCH   4  16
BRANCH   3  18
ATOM     18  C   LIG    1        2.640   7.404  -1.454  0.00  0.00    +0.220 C 
BRANCH  18  19
ATOM     19  O   LIG    1        2.236   7.717  -2.788  0.00  0.00    -0.570 OA
ATOM     20  H   LIG    1        2.970   7.923  -3.383  0.00  0.00    +0.390 HD
ENDBRANCH  18  19
ENDBRANCH   3  18
TORSDOF 4
ENDMDL
MODEL       25
REMARK  Name = ZINC000029467499
REMARK                            x       y       z     vdW  Elec       q    Type
REMARK                         _______ _______ _______ _____ _____    ______ ____
ROOT
ATOM      1  O   LIG    1        0.002  -0.004   0.002  0.00  0.00    -0.510 OA
ATOM      2  C   LIG    1       -0.014   1.214   0.009  0.00  0.00    +0.550 A 
ATOM      3  C   LIG    1       -1.246   1.911   0.030  0.00  0.00    -0.110 A 
ATOM      4  C   LIG    1       -1.236   3.261   0.038  0.00  0.00    +0.350 A 
ATOM      5  N   LIG    1       -0.043   3.930   0.025  0.00  0.00    -0.530 N 
ATOM      6  C   LIG    1        1.121   3.256   0.005  0.00  0.00    +0.700 A 
ATOM      7  O   LIG    1        2.170   3.870  -0.006  0.00  0.00    -0.530 OA
ATOM      8  N   LIG    1        1.140   1.910   0.001  0.00  0.00    -0.660 N 
ATOM      9  H   LIG    1        1.988   1.439  -0.013  0.00  0.00    +0.430 HD
ENDROOT
BRANCH   5  10
ATOM     10  C   LIG    1       -0.032   5.396   0.033  0.00  0.00    +0.420 C 
ATOM     11  C   LIG    1        0.657   5.931   1.313  0.00  0.00    +0.220 C 
ATOM     12  O   LIG    1        1.132   7.225   0.872  0.00  0.00    -0.360 OA
ATOM     13  C   LIG    1        1.525   7.026  -0.496  0.00  0.00    +0.350 C 
ATOM     14  O   LIG    1        0.801   5.905  -1.028  0.00  0.00    -0.370 OA
BRANCH  13  15
ATOM     15  C   LIG    1        1.196   8.277  -1.314  0.00  0.00    +0.200 C 
BRANCH  15  16
ATOM     16  O   LIG    1       -0.205   8.546  -1.228  0.00  0.00    -0.560 OA
ATOM     17  H   LIG    1       -0.486   9.328  -1.724  0.00  0.00    +0.380 HD
ENDBRANCH  15  16
ENDBRANCH  13  15
ENDBRANCH   5  10
TORSDOF 3
ENDMDL
MODEL       26
REMARK  Name = ZINC000003834164
REMARK                            x       y       z     vdW  Elec       q    Type
REMARK                         _______ _______ _______ _____ _____    ______ ____
ROOT
ATOM      1  C1*   U A  1       -0.032   5.396   0.033  0.00  0.00    +0.440 C 
ATOM      2  O4*   U A  1        0.799   5.904  -1.033  0.00  0.00    -0.340 OA
ATOM      3  C4*   U A  1        1.171   7.245  -0.672  0.00  0.00    +0.150 C 
ATOM      4  C3*   U A  1        1.134   7.332   0.866  0.00  0.00    +0.140 C 
ATOM      5  C2*   U A  1        0.653   5.929   1.317  0.00  0.00    +0.170 C 
ENDROOT
BRANCH   1  10
ATOM      6  O4    U A  1        0.002  -0.004   0.002  0.00  0.00    -0.520 OA
ATOM      7  C4    U A  1       -0.014   1.214   0.009  0.00  0.00    +0.550 A 
ATOM      8  C5    U A  1       -1.246   1.911   0.030  0.00  0.00    -0.120 A 
ATOM      9  C6    U A  1       -1.236   3.261   0.038  0.00  0.00    +0.350 A 
ATOM     10  N1    U A  1       -0.043   3.930   0.025  0.00  0.00    -0.530 N 
ATOM     11  C2    U A  1        1.121   3.256   0.005  0.00  0.00    +0.700 A 
ATOM     12  O2    U A  1        2.170   3.870  -0.006  0.00  0.00    -0.480 OA
ATOM     13  N3    U A  1        1.140   1.910   0.001  0.00  0.00    -0.660 N 
ATOM     14  H3    U A  1        1.988   1.439  -0.013  0.00  0.00    +0.430 HD
ENDBRANCH   1  10
BRANCH   4  15
ATOM     15  O3*   U A  1        0.209   8.336   1.288  0.00  0.00    -0.550 OA
ATOM     16  H3*   U A  1        0.431   9.227   0.985  0.00  0.00    +0.390 HD
ENDBRANCH   4  15
BRANCH   5  17
ATOM     17  O2*   U A  1        1.760   5.103   1.682  0.00  0.00    -0.510 OA
ATOM     18  H2*   U A  1        2.278   5.444   2.424  0.00  0.00    +0.370 HD
ENDBRANCH   5  17
BRANCH   3  19
ATOM     19  C5*   U A  1        2.582   7.548  -1.180  0.00  0.00    +0.200 C 
BRANCH  19  20
ATOM     20  O5*   U A  1        2.581   7.564  -2.609  0.00  0.00    -0.560 OA
ATOM     21  H5*   U A  1        3.445   7.750  -3.001  0.00  0.00    +0.380 HD
ENDBRANCH  19  20
ENDBRANCH   3  19
TORSDOF 5
ENDMDL
MODEL       27
REMARK  Name = ZINC000000105325
REMARK                            x       y       z     vdW  Elec       q    Type
REMARK                         _______ _______ _______ _____ _____    ______ ____
ROOT
ATOM      1  C1*   U A  1       -0.032   5.396   0.033  0.00  0.00    +0.420 C 
ATOM      2  C2*   U A  1        0.667   5.929   1.309  0.00  0.00    +0.010 C 
ATOM      3  C3*   U A  1        0.040   7.337   1.458  0.00  0.00    +0.170 C 
ATOM      4  C4*   U A  1       -1.268   7.255   0.647  0.00  0.00    +0.190 C 
ATOM      5  O4*   U A  1       -1.376   5.913   0.139  0.00  0.00    -0.360 OA
ENDROOT
BRANCH   1  10
ATOM      6  O4    U A  1        0.002  -0.004   0.002  0.00  0.00    -0.510 OA
ATOM      7  C4    U A  1       -0.014   1.214   0.009  0.00  0.00    +0.550 A 
ATOM      8  C5    U A  1       -1.246   1.911   0.030  0.00  0.00    -0.130 A 
ATOM      9  C6    U A  1       -1.236   3.261   0.038  0.00  0.00    +0.370 A 
ATOM     10  N1    U A  1       -0.043   3.930   0.025  0.00  0.00    -0.530 N 
ATOM     11  C2    U A  1        1.121   3.256   0.005  0.00  0.00    +0.700 A 
ATOM     12  O2    U A  1        2.170   3.870  -0.006  0.00  0.00    -0.540 OA
ATOM     13  N3    U A  1        1.140   1.910   0.001  0.00  0.00    -0.660 N 
ATOM     14  H3    U A  1        1.988   1.439  -0.013  0.00  0.00    +0.430 HD
ENDBRANCH   1  10
BRANCH   3  15
ATOM     15  O3*   U A  1        0.909   8.332   0.912  0.00  0.00    -0.550 OA
ATOM     16  H3*   U A  1        1.769   8.385   1.350  0.00  0.00    +0.390 HD
ENDBRANCH   3  15
BRANCH   4  17
ATOM     17  C5*   U A  1       -2.461   7.572   1.550  0.00  0.00    +0.210 C 
BRANCH  17  18
ATOM     18  O5*   U A  1       -3.655   7.609   0.767  0.00  0.00    -0.560 OA
ATOM     19  H5*   U A  1       -4.454   7.805   1.276  0.00  0.00    +0.390 HD
ENDBRANCH  17  18
ENDBRANCH   4  17
TORSDOF 4
ENDMDL
MODEL       28
REMARK  Name = ZINC000006524831
REMARK                            x       y       z     vdW  Elec       q    Type
REMARK                         _______ _______ _______ _____ _____    ______ ____
ROOT
ATOM      1  C1*   U A  1       -0.032   5.396   0.033  0.00  0.00    +0.460 C 
ATOM      2  O4*   U A  1        0.880   5.897  -0.969  0.00  0.00    -0.320 OA
ATOM      3  C4*   U A  1        2.196   5.752  -0.391  0.00  0.00    +0.120 C 
ATOM      4  C3*   U A  1        2.025   6.162   1.088  0.00  0.00    +0.130 C 
ATOM      5  C2*   U A  1        0.523   5.922   1.375  0.00  0.00    +0.180 C 
ENDROOT
BRANCH   1  10
ATOM      6  O4    U A  1       -0.124  -0.003   0.054  0.00  0.00    -0.510 OA
ATOM      7  C4    U A  1       -0.097   1.214   0.044  0.00  0.00    +0.550 A 
ATOM      8  C5    U A  1        0.783   1.901  -0.827  0.00  0.00    -0.100 A 
ATOM      9  C6    U A  1        0.793   3.251  -0.819  0.00  0.00    +0.350 A 
ATOM     10  N1    U A  1       -0.043   3.930   0.025  0.00  0.00    -0.540 N 
ATOM     11  C2    U A  1       -0.875   3.266   0.846  0.00  0.00    +0.700 A 
ATOM     12  O2    U A  1       -1.610   3.889   1.587  0.00  0.00    -0.530 OA
ATOM     13  N3    U A  1       -0.909   1.920   0.856  0.00  0.00    -0.660 N 
ATOM     14  H3    U A  1       -1.515   1.456   1.455  0.00  0.00    +0.430 HD
ENDBRANCH   1  10
BRANCH   4  15
ATOM     15  O3*   U A  1        2.836   5.341   1.932  0.00  0.00    -0.550 OA
ATOM     16  H3*   U A  1        3.784   5.410   1.754  0.00  0.00    +0.390 HD
ENDBRANCH   4  15
BRANCH   5  17
ATOM     17  O2*   U A  1       -0.119   7.145   1.742  0.00  0.00    -0.540 OA
ATOM     18  H2*   U A  1        0.236   7.549   2.546  0.00  0.00    +0.390 HD
ENDBRANCH   5  17
BRANCH   3  19
ATOM     19  C5*   U A  1        3.190   6.681  -1.092  0.00  0.00    +0.210 C 
BRANCH  19  20
ATOM     20  O5*   U A  1        3.365   6.256  -2.445  0.00  0.00    -0.570 OA
ATOM     21  H5*   U A  1        3.984   6.801  -2.951  0.00  0.00    +0.390 HD
ENDBRANCH  19  20
ENDBRANCH   3  19
TORSDOF 5
ENDMDL
MODEL       29
REMARK  Name = ZINC000003581670
REMARK                            x       y       z     vdW  Elec       q    Type
REMARK                         _______ _______ _______ _____ _____    ______ ____
ROOT
ATOM      1  O   LIG    1        0.002  -0.004   0.002  0.00  0.00    -0.520 OA
ATOM      2  C   LIG    1       -0.014   1.214   0.009  0.00  0.00    +0.550 A 
ATOM      3  C   LIG    1       -1.246   1.911   0.030  0.00  0.00    -0.120 A 
ATOM      4  C   LIG    1       -1.236   3.261   0.038  0.00  0.00    +0.350 A 
ATOM      5  N   LIG    1       -0.043   3.930   0.025  0.00  0.00    -0.540 N 
ATOM      6  C   LIG    1        1.121   3.256   0.005  0.00  0.00    +0.670 A 
ATOM      7  O   LIG    1        2.170   3.870  -0.006  0.00  0.00    -0.460 OA
ATOM      8  N   LIG    1        1.140   1.910   0.001  0.00  0.00    -0.660 N 
ATOM      9  H   LIG    1        1.988   1.439  -0.013  0.00  0.00    +0.430 HD
ENDROOT
BRANCH   5  10
ATOM     10  C   LIG    1       -0.032   5.396   0.033  0.00  0.00    +0.420 C 
ATOM     11  C   LIG    1        0.635   5.920   1.323  0.00  0.00    +0.210 C 
ATOM     12  O   LIG    1        1.993   6.188   0.899  0.00  0.00    -0.340 OA
ATOM     13  C   LIG    1        1.827   6.687  -0.445  0.00  0.00    +0.330 C 
ATOM     14  O   LIG    1        0.784   5.895  -1.042  0.00  0.00    -0.360 OA
BRANCH  13  15
ATOM     15  C   LIG    1        3.130   6.523  -1.232  0.00  0.00    +0.200 C 
BRANCH  15  16
ATOM     16  O   LIG    1        3.501   5.144  -1.256  0.00  0.00    -0.520 OA
ATOM     17  H   LIG    1        4.319   4.965  -1.739  0.00  0.00    +0.370 HD
ENDBRANCH  15  16
ENDBRANCH  13  15
ENDBRANCH   5  10
TORSDOF 3
ENDMDL
MODEL       30
REMARK  Name = ZINC000002583633
REMARK                            x       y       z     vdW  Elec       q    Type
REMARK                         _______ _______ _______ _____ _____    ______ ____
ROOT
ATOM      1  C1*   U A  1       -0.032   5.396   0.033  0.00  0.00    +0.440 C 
ATOM      2  O4*   U A  1        0.799   5.904  -1.033  0.00  0.00    -0.340 OA
ATOM      3  C4*   U A  1        1.171   7.245  -0.672  0.00  0.00    +0.160 C 
ATOM      4  C3*   U A  1        1.134   7.332   0.866  0.00  0.00    +0.140 C 
ATOM      5  C2*   U A  1        0.653   5.929   1.317  0.00  0.00    +0.180 C 
ENDROOT
BRANCH   1  10
ATOM      6  O4    U A  1        0.002  -0.004   0.002  0.00  0.00    -0.510 OA
ATOM      7  C4    U A  1       -0.014   1.214   0.009  0.00  0.00    +0.550 A 
ATOM      8  C5    U A  1       -1.246   1.911   0.030  0.00  0.00    -0.110 A 
ATOM      9  C6    U A  1       -1.236   3.261   0.038  0.00  0.00    +0.360 A 
ATOM     10  N1    U A  1       -0.043   3.930   0.025  0.00  0.00    -0.530 N 
ATOM     11  C2    U A  1        1.121   3.256   0.005  0.00  0.00    +0.700 A 
ATOM     12  O2    U A  1        2.170   3.870  -0.006  0.00  0.00    -0.530 OA
ATOM     13  N3    U A  1        1.140   1.910   0.001  0.00  0.00    -0.660 N 
ATOM     14  H3    U A  1        1.988   1.439  -0.013  0.00  0.00    +0.430 HD
ENDBRANCH   1  10
BRANCH   4  15
ATOM     15  O3*   U A  1        0.209   8.336   1.288  0.00  0.00    -0.540 OA
ATOM     16  H3*   U A  1        0.431   9.227   0.985  0.00  0.00    +0.390 HD
ENDBRANCH   4  15
BRANCH   5  17
ATOM     17  O2*   U A  1       -0.280   6.032   2.394  0.00  0.00    -0.540 OA
ATOM     18  H2*   U A  1        0.083   6.444   3.190  0.00  0.00    +0.390 HD
ENDBRANCH   5  17
BRANCH   3  19
ATOM     19  C5*   U A  1        2.582   7.548  -1.180  0.00  0.00    +0.200 C 
BRANCH  19  20
ATOM     20  O5*   U A  1        2.581   7.564  -2.609  0.00  0.00    -0.560 OA
ATOM     21  H5*   U A  1        3.445   7.750  -3.001  0.00  0.00    +0.380 HD
ENDBRANCH  19  20
ENDBRANCH   3  19
TORSDOF 5
ENDMDL
MODEL       31
REMARK  Name = ZINC000008613701
REMARK                            x       y       z     vdW  Elec       q    Type
REMARK                         _______ _______ _______ _____ _____    ______ ____
ROOT
ATOM      1  C1*   U A  1       -0.032   5.396   0.033  0.00  0.00    +0.430 C 
ATOM      2  C2*   U A  1        0.712   5.907   1.285  0.00  0.00    +0.010 C 
ATOM      3  C3*   U A  1       -0.149   7.130   1.703  0.00  0.00    +0.170 C 
ATOM      4  C4*   U A  1       -1.565   6.644   1.302  0.00  0.00    +0.190 C 
ATOM      5  O4*   U A  1       -1.375   5.891   0.092  0.00  0.00    -0.350 OA
ENDROOT
BRANCH   1  10
ATOM      6  O4    U A  1        0.002  -0.004   0.002  0.00  0.00    -0.510 OA
ATOM      7  C4    U A  1       -0.014   1.214   0.009  0.00  0.00    +0.550 A 
ATOM      8  C5    U A  1       -1.246   1.911   0.030  0.00  0.00    -0.130 A 
ATOM      9  C6    U A  1       -1.236   3.261   0.038  0.00  0.00    +0.370 A 
ATOM     10  N1    U A  1       -0.043   3.930   0.025  0.00  0.00    -0.540 N 
ATOM     11  C2    U A  1        1.121   3.256   0.005  0.00  0.00    +0.700 A 
ATOM     12  O2    U A  1        2.170   3.870  -0.006  0.00  0.00    -0.540 OA
ATOM     13  N3    U A  1        1.140   1.910   0.001  0.00  0.00    -0.660 N 
ATOM     14  H3    U A  1        1.988   1.439  -0.013  0.00  0.00    +0.430 HD
ENDBRANCH   1  10
BRANCH   3  15
ATOM     15  O3*   U A  1        0.224   8.297   0.967  0.00  0.00    -0.550 OA
ATOM     16  H3*   U A  1        1.139   8.574   1.107  0.00  0.00    +0.390 HD
ENDBRANCH   3  15
BRANCH   4  17
ATOM     17  C5*   U A  1       -2.484   7.841   1.045  0.00  0.00    +0.220 C 
BRANCH  17  18
ATOM     18  O5*   U A  1       -3.811   7.376   0.791  0.00  0.00    -0.570 OA
ATOM     19  H5*   U A  1       -4.449   8.082   0.620  0.00  0.00    +0.390 HD
ENDBRANCH  17  18
ENDBRANCH   4  17
TORSDOF 4
ENDMDL
MODEL       32
REMARK  Name = ZINC000003870263
REMARK                            x       y       z     vdW  Elec       q    Type
REMARK                         _______ _______ _______ _____ _____    ______ ____
ROOT
ATOM      1  C1*   U A  1       -0.032   5.396   0.033  0.00  0.00    +0.440 C 
ATOM      2  O4*   U A  1       -1.379   5.908   0.124  0.00  0.00    -0.350 OA
ATOM      3  C4*   U A  1       -1.240   7.258   0.616  0.00  0.00    +0.150 C 
ATOM      4  C3*   U A  1       -0.136   7.175   1.693  0.00  0.00    +0.140 C 
ATOM      5  C2*   U A  1        0.680   5.921   1.299  0.00  0.00    +0.170 C 
ENDROOT
BRANCH   1  10
ATOM      6  O4    U A  1        0.002  -0.004   0.002  0.00  0.00    -0.510 OA
ATOM      7  C4    U A  1       -0.014   1.214   0.009  0.00  0.00    +0.550 A 
ATOM      8  C5    U A  1       -1.246   1.911   0.030  0.00  0.00    -0.130 A 
ATOM      9  C6    U A  1       -1.236   3.261   0.038  0.00  0.00    +0.370 A 
ATOM     10  N1    U A  1       -0.043   3.930   0.025  0.00  0.00    -0.530 N 
ATOM     11  C2    U A  1        1.121   3.256   0.005  0.00  0.00    +0.700 A 
ATOM     12  O2    U A  1        2.170   3.870  -0.006  0.00  0.00    -0.510 OA
ATOM     13  N3    U A  1        1.140   1.910   0.001  0.00  0.00    -0.660 N 
ATOM     14  H3    U A  1        1.988   1.439  -0.013  0.00  0.00    +0.430 HD
ENDBRANCH   1  10
BRANCH   4  15
ATOM     15  O3*   U A  1       -0.713   7.015   2.990  0.00  0.00    -0.550 OA
ATOM     16  H3*   U A  1       -1.282   7.748   3.261  0.00  0.00    +0.390 HD
ENDBRANCH   4  15
BRANCH   5  17
ATOM     17  O2*   U A  1        2.034   6.275   1.010  0.00  0.00    -0.530 OA
ATOM     18  H2*   U A  1        2.507   6.665   1.757  0.00  0.00    +0.390 HD
ENDBRANCH   5  17
BRANCH   3  19
ATOM     19  C5*   U A  1       -2.555   7.739   1.234  0.00  0.00    +0.220 C 
BRANCH  19  20
ATOM     20  O5*   U A  1       -3.548   7.850   0.213  0.00  0.00    -0.560 OA
ATOM     21  H5*   U A  1       -4.410   8.150   0.533  0.00  0.00    +0.390 HD
ENDBRANCH  19  20
ENDBRANCH   3  19
TORSDOF 5
ENDMDL
MODEL       33
REMARK  Name = ZINC000003635934
REMARK                            x       y       z     vdW  Elec       q    Type
REMARK                         _______ _______ _______ _____ _____    ______ ____
ROOT
ATOM      1  C1*   U A  1       -0.032   5.396   0.033  0.00  0.00    +0.440 C 
ATOM      2  C2*   U A  1        0.712   5.907   1.285  0.00  0.00    +0.020 C 
ATOM      3  C3*   U A  1       -0.149   7.130   1.703  0.00  0.00    +0.170 C 
ATOM      4  C4*   U A  1       -1.565   6.644   1.302  0.00  0.00    +0.180 C 
ATOM      5  O4*   U A  1       -1.375   5.891   0.092  0.00  0.00    -0.350 OA
ENDROOT
BRANCH   1  10
ATOM      6  O4    U A  1        0.002  -0.004   0.002  0.00  0.00    -0.510 OA
ATOM      7  C4    U A  1       -0.014   1.214   0.009  0.00  0.00    +0.550 A 
ATOM      8  C5    U A  1       -1.246   1.911   0.030  0.00  0.00    -0.130 A 
ATOM      9  C6    U A  1       -1.236   3.261   0.038  0.00  0.00    +0.370 A 
ATOM     10  N1    U A  1       -0.043   3.930   0.025  0.00  0.00    -0.540 N 
ATOM     11  C2    U A  1        1.121   3.256   0.005  0.00  0.00    +0.700 A 
ATOM     12  O2    U A  1        2.170   3.870  -0.006  0.00  0.00    -0.540 OA
ATOM     13  N3    U A  1        1.140   1.910   0.001  0.00  0.00    -0.660 N 
ATOM     14  H3    U A  1        1.988   1.439  -0.013  0.00  0.00    +0.430 HD
ENDBRANCH   1  10
BRANCH   3  15
ATOM     15  O3*   U A  1       -0.063   7.364   3.110  0.00  0.00    -0.550 OA
ATOM     16  H3*   U A  1        0.830   7.566   3.421  0.00  0.00    +0.390 HD
ENDBRANCH   3  15
BRANCH   4  17
ATOM     17  C5*   U A  1       -2.484   7.841   1.045  0.00  0.00    +0.210 C 
BRANCH  17  18
ATOM     18  O5*   U A  1       -3.811   7.376   0.791  0.00  0.00    -0.570 OA
ATOM     19  H5*   U A  1       -4.449   8.082   0.620  0.00  0.00    +0.390 HD
ENDBRANCH  17  18
ENDBRANCH   4  17
TORSDOF 4
ENDMDL
MODEL       34
REMARK  Name = ZINC000017174165
REMARK                            x       y       z     vdW  Elec       q    Type
REMARK                         _______ _______ _______ _____ _____    ______ ____
ROOT
ATOM      1  C   LIG    1       -0.032   5.396   0.033  0.00  0.00    +0.410 C 
ATOM      2  O   LIG    1        0.764   5.885  -1.060  0.00  0.00    -0.340 OA
ATOM      3  C   LIG    1        1.404   7.096  -0.606  0.00  0.00    +0.200 C 
ATOM      4  C   LIG    1        1.808   6.767   0.854  0.00  0.00    +0.170 C 
ATOM      5  C   LIG    1        0.610   5.907   1.337  0.00  0.00    +0.150 C 
ATOM      6  F   LIG    1        1.058   4.837   2.117  0.00  0.00    -0.180 F 
ENDROOT
BRANCH   1  11
ATOM      7  O   LIG    1        0.002  -0.004   0.002  0.00  0.00    -0.510 OA
ATOM      8  C   LIG    1       -0.014   1.214   0.009  0.00  0.00    +0.550 A 
ATOM      9  C   LIG    1       -1.246   1.911   0.030  0.00  0.00    -0.100 A 
ATOM     10  C   LIG    1       -1.236   3.261   0.038  0.00  0.00    +0.350 A 
ATOM     11  N   LIG    1       -0.043   3.930   0.025  0.00  0.00    -0.530 N 
ATOM     12  C   LIG    1        1.121   3.256   0.005  0.00  0.00    +0.710 A 
ATOM     13  O   LIG    1        2.170   3.870  -0.006  0.00  0.00    -0.520 OA
ATOM     14  N   LIG    1        1.140   1.910   0.001  0.00  0.00    -0.660 N 
ATOM     15  H   LIG    1        1.988   1.439  -0.013  0.00  0.00    +0.430 HD
ENDBRANCH   1  11
BRANCH   4  16
ATOM     16  O   LIG    1        1.925   7.960   1.632  0.00  0.00    -0.550 OA
ATOM     17  H   LIG    1        2.176   7.805   2.553  0.00  0.00    +0.390 HD
ENDBRANCH   4  16
BRANCH   3  18
ATOM     18  C   LIG    1        2.640   7.404  -1.454  0.00  0.00    +0.220 C 
BRANCH  18  19
ATOM     19  O   LIG    1        2.236   7.717  -2.788  0.00  0.00    -0.570 OA
ATOM     20  H   LIG    1        2.970   7.923  -3.383  0.00  0.00    +0.390 HD
ENDBRANCH  18  19
ENDBRANCH   3  18
TORSDOF 4
ENDMDL
MODEL       35
REMARK  Name = ZINC000021999985
REMARK                            x       y       z     vdW  Elec       q    Type
REMARK                         _______ _______ _______ _____ _____    ______ ____
ROOT
ATOM      1  C   LIG    1       -0.032   5.396   0.033  0.00  0.00    +0.410 C 
ATOM      2  O   LIG    1        0.764   5.885  -1.060  0.00  0.00    -0.340 OA
ATOM      3  C   LIG    1        1.404   7.096  -0.606  0.00  0.00    +0.190 C 
ATOM      4  C   LIG    1        1.808   6.767   0.854  0.00  0.00    +0.150 C 
ATOM      5  C   LIG    1        0.610   5.907   1.337  0.00  0.00    +0.140 C 
ATOM      6  F   LIG    1        1.058   4.837   2.117  0.00  0.00    -0.180 F 
ENDROOT
BRANCH   1  11
ATOM      7  O   LIG    1        0.002  -0.004   0.002  0.00  0.00    -0.520 OA
ATOM      8  C   LIG    1       -0.014   1.214   0.009  0.00  0.00    +0.550 A 
ATOM      9  C   LIG    1       -1.246   1.911   0.030  0.00  0.00    -0.120 A 
ATOM     10  C   LIG    1       -1.236   3.261   0.038  0.00  0.00    +0.350 A 
ATOM     11  N   LIG    1       -0.043   3.930   0.025  0.00  0.00    -0.530 N 
ATOM     12  C   LIG    1        1.121   3.256   0.005  0.00  0.00    +0.690 A 
ATOM     13  O   LIG    1        2.170   3.870  -0.006  0.00  0.00    -0.490 OA
ATOM     14  N   LIG    1        1.140   1.910   0.001  0.00  0.00    -0.660 N 
ATOM     15  H   LIG    1        1.988   1.439  -0.013  0.00  0.00    +0.430 HD
ENDBRANCH   1  11
BRANCH   4  16
ATOM     16  O   LIG    1        3.024   6.017   0.890  0.00  0.00    -0.510 OA
ATOM     17  H   LIG    1        3.318   5.787   1.782  0.00  0.00    +0.380 HD
ENDBRANCH   4  16
BRANCH   3  18
ATOM     18  C   LIG    1        2.640   7.404  -1.454  0.00  0.00    +0.220 C 
BRANCH  18  19
ATOM     19  O   LIG    1        2.236   7.717  -2.788  0.00  0.00    -0.570 OA
ATOM     20  H   LIG    1        2.970   7.923  -3.383  0.00  0.00    +0.390 HD
ENDBRANCH  18  19
ENDBRANCH   3  18
TORSDOF 4
ENDMDL
MODEL       36
REMARK  Name = ZINC000011525576
REMARK                            x       y       z     vdW  Elec       q    Type
REMARK                         _______ _______ _______ _____ _____    ______ ____
ROOT
ATOM      1  C1*   U A  1       -0.032   5.396   0.033  0.00  0.00    +0.450 C 
ATOM      2  O4*   U A  1        0.764   5.885  -1.060  0.00  0.00    -0.340 OA
ATOM      3  C4*   U A  1        1.404   7.096  -0.606  0.00  0.00    +0.150 C 
ATOM      4  C3*   U A  1        1.808   6.767   0.854  0.00  0.00    +0.140 C 
ATOM      5  C2*   U A  1        0.610   5.907   1.337  0.00  0.00    +0.160 C 
ENDROOT
BRANCH   1  10
ATOM      6  O4    U A  1        0.002  -0.004   0.002  0.00  0.00    -0.520 OA
ATOM      7  C4    U A  1       -0.014   1.214   0.009  0.00  0.00    +0.550 A 
ATOM      8  C5    U A  1       -1.246   1.911   0.030  0.00  0.00    -0.110 A 
ATOM      9  C6    U A  1       -1.236   3.261   0.038  0.00  0.00    +0.360 A 
ATOM     10  N1    U A  1       -0.043   3.930   0.025  0.00  0.00    -0.530 N 
ATOM     11  C2    U A  1        1.121   3.256   0.005  0.00  0.00    +0.690 A 
ATOM     12  O2    U A  1        2.170   3.870  -0.006  0.00  0.00    -0.490 OA
ATOM     13  N3    U A  1        1.140   1.910   0.001  0.00  0.00    -0.660 N 
ATOM     14  H3    U A  1        1.988   1.439  -0.013  0.00  0.00    +0.430 HD
ENDBRANCH   1  10
BRANCH   4  15
ATOM     15  O3*   U A  1        3.024   6.017   0.890  0.00  0.00    -0.520 OA
ATOM     16  H3*   U A  1        3.784   6.482   0.515  0.00  0.00    +0.380 HD
ENDBRANCH   4  15
BRANCH   5  17
ATOM     17  O2*   U A  1       -0.315   6.708   2.076  0.00  0.00    -0.550 OA
ATOM     18  H2*   U A  1        0.059   7.102   2.876  0.00  0.00    +0.390 HD
ENDBRANCH   5  17
BRANCH   3  19
ATOM     19  C5*   U A  1        2.640   7.404  -1.454  0.00  0.00    +0.210 C 
BRANCH  19  20
ATOM     20  O5*   U A  1        2.236   7.717  -2.788  0.00  0.00    -0.560 OA
ATOM     21  H5*   U A  1        2.970   7.923  -3.383  0.00  0.00    +0.380 HD
ENDBRANCH  19  20
ENDBRANCH   3  19
TORSDOF 5
ENDMDL
MODEL       37
REMARK  Name = ZINC000000895165
REMARK                            x       y       z     vdW  Elec       q    Type
REMARK                         _______ _______ _______ _____ _____    ______ ____
ROOT
ATOM      1  C1*   U A  1       -0.032   5.396   0.033  0.00  0.00    +0.430 C 
ATOM      2  O4*   U A  1       -1.379   5.908   0.124  0.00  0.00    -0.350 OA
ATOM      3  C4*   U A  1       -1.240   7.258   0.616  0.00  0.00    +0.150 C 
ATOM      4  C3*   U A  1       -0.136   7.175   1.693  0.00  0.00    +0.130 C 
ATOM      5  C2*   U A  1        0.680   5.921   1.299  0.00  0.00    +0.160 C 
ENDROOT
BRANCH   1  10
ATOM      6  O4    U A  1        0.002  -0.004   0.002  0.00  0.00    -0.510 OA
ATOM      7  C4    U A  1       -0.014   1.214   0.009  0.00  0.00    +0.550 A 
ATOM      8  C5    U A  1       -1.246   1.911   0.030  0.00  0.00    -0.130 A 
ATOM      9  C6    U A  1       -1.236   3.261   0.038  0.00  0.00    +0.370 A 
ATOM     10  N1    U A  1       -0.043   3.930   0.025  0.00  0.00    -0.540 N 
ATOM     11  C2    U A  1        1.121   3.256   0.005  0.00  0.00    +0.690 A 
ATOM     12  O2    U A  1        2.170   3.870  -0.006  0.00  0.00    -0.510 OA
ATOM     13  N3    U A  1        1.140   1.910   0.001  0.00  0.00    -0.660 N 
ATOM     14  H3    U A  1        1.988   1.439  -0.013  0.00  0.00    +0.430 HD
ENDBRANCH   1  10
BRANCH   4  15
ATOM     15  O3*   U A  1        0.689   8.341   1.656  0.00  0.00    -0.540 OA
ATOM     16  H3*   U A  1        0.214   9.164   1.837  0.00  0.00    +0.390 HD
ENDBRANCH   4  15
BRANCH   5  17
ATOM     17  O2*   U A  1        2.034   6.275   1.010  0.00  0.00    -0.520 OA
ATOM     18  H2*   U A  1        2.507   6.665   1.757  0.00  0.00    +0.390 HD
ENDBRANCH   5  17
BRANCH   3  19
ATOM     19  C5*   U A  1       -2.555   7.739   1.234  0.00  0.00    +0.210 C 
BRANCH  19  20
ATOM     20  O5*   U A  1       -3.548   7.850   0.213  0.00  0.00    -0.560 OA
ATOM     21  H5*   U A  1       -4.410   8.150   0.533  0.00  0.00    +0.390 HD
ENDBRANCH  19  20
ENDBRANCH   3  19
TORSDOF 5
ENDMDL
MODEL       38
REMARK  Name = ZINC000000155696
REMARK                            x       y       z     vdW  Elec       q    Type
REMARK                         _______ _______ _______ _____ _____    ______ ____
ROOT
ATOM      1  C1*   U A  1       -0.032   5.396   0.033  0.00  0.00    +0.420 C 
ATOM      2  C2*   U A  1        0.637   5.921   1.322  0.00  0.00    +0.010 C 
ATOM      3  C3*   U A  1        1.422   7.168   0.856  0.00  0.00    +0.160 C 
ATOM      4  C4*   U A  1        1.134   7.248  -0.660  0.00  0.00    +0.190 C 
ATOM      5  O4*   U A  1        0.789   5.898  -1.044  0.00  0.00    -0.350 OA
ENDROOT
BRANCH   1  10
ATOM      6  O4    U A  1        0.002  -0.004   0.002  0.00  0.00    -0.510 OA
ATOM      7  C4    U A  1       -0.014   1.214   0.009  0.00  0.00    +0.550 A 
ATOM      8  C5    U A  1       -1.246   1.911   0.030  0.00  0.00    -0.110 A 
ATOM      9  C6    U A  1       -1.236   3.261   0.038  0.00  0.00    +0.350 A 
ATOM     10  N1    U A  1       -0.043   3.930   0.025  0.00  0.00    -0.530 N 
ATOM     11  C2    U A  1        1.121   3.256   0.005  0.00  0.00    +0.700 A 
ATOM     12  O2    U A  1        2.170   3.870  -0.006  0.00  0.00    -0.520 OA
ATOM     13  N3    U A  1        1.140   1.910   0.001  0.00  0.00    -0.660 N 
ATOM     14  H3    U A  1        1.988   1.439  -0.013  0.00  0.00    +0.430 HD
ENDBRANCH   1  10
BRANCH   3  15
ATOM     15  O3*   U A  1        0.944   8.338   1.522  0.00  0.00    -0.560 OA
ATOM     16  H3*   U A  1        1.047   8.314   2.483  0.00  0.00    +0.390 HD
ENDBRANCH   3  15
BRANCH   4  17
ATOM     17  C5*   U A  1        2.378   7.719  -1.415  0.00  0.00    +0.210 C 
BRANCH  17  18
ATOM     18  O5*   U A  1        2.059   7.898  -2.796  0.00  0.00    -0.570 OA
ATOM     19  H5*   U A  1        2.803   8.196  -3.337  0.00  0.00    +0.390 HD
ENDBRANCH  17  18
ENDBRANCH   4  17
TORSDOF 4
ENDMDL
MODEL       39
REMARK  Name = ZINC000003870262
REMARK                            x       y       z     vdW  Elec       q    Type
REMARK                         _______ _______ _______ _____ _____    ______ ____
ROOT
ATOM      1  C1*   U A  1       -0.032   5.396   0.033  0.00  0.00    +0.450 C 
ATOM      2  O4*   U A  1        0.880   5.897  -0.969  0.00  0.00    -0.320 OA
ATOM      3  C4*   U A  1        2.196   5.752  -0.391  0.00  0.00    +0.110 C 
ATOM      4  C3*   U A  1        2.025   6.162   1.088  0.00  0.00    +0.130 C 
ATOM      5  C2*   U A  1        0.523   5.922   1.375  0.00  0.00    +0.180 C 
ENDROOT
BRANCH   1  10
ATOM      6  O4    U A  1       -0.125  -0.003   0.054  0.00  0.00    -0.510 OA
ATOM      7  C4    U A  1       -0.098   1.214   0.043  0.00  0.00    +0.550 A 
ATOM      8  C5    U A  1        0.795   1.901  -0.815  0.00  0.00    -0.100 A 
ATOM      9  C6    U A  1        0.805   3.251  -0.807  0.00  0.00    +0.350 A 
ATOM     10  N1    U A  1       -0.043   3.930   0.025  0.00  0.00    -0.550 N 
ATOM     11  C2    U A  1       -0.887   3.266   0.835  0.00  0.00    +0.700 A 
ATOM     12  O2    U A  1       -1.632   3.889   1.565  0.00  0.00    -0.530 OA
ATOM     13  N3    U A  1       -0.921   1.920   0.844  0.00  0.00    -0.660 N 
ATOM     14  H3    U A  1       -1.536   1.457   1.434  0.00  0.00    +0.430 HD
ENDBRANCH   1  10
BRANCH   4  15
ATOM     15  O3*   U A  1        2.357   7.540   1.268  0.00  0.00    -0.540 OA
ATOM     16  H3*   U A  1        3.273   7.756   1.045  0.00  0.00    +0.380 HD
ENDBRANCH   4  15
BRANCH   5  17
ATOM     17  O2*   U A  1       -0.119   7.145   1.742  0.00  0.00    -0.530 OA
ATOM     18  H2*   U A  1        0.236   7.549   2.546  0.00  0.00    +0.390 HD
ENDBRANCH   5  17
BRANCH   3  19
ATOM     19  C5*   U A  1        3.190   6.681  -1.092  0.00  0.00    +0.220 C 
BRANCH  19  20
ATOM     20  O5*   U A  1        3.365   6.256  -2.445  0.00  0.00    -0.560 OA
ATOM     21  H5*   U A  1        3.984   6.801  -2.951  0.00  0.00    +0.390 HD
ENDBRANCH  19  20
ENDBRANCH   3  19
TORSDOF 5
ENDMDL
MODEL       40
REMARK  Name = ZINC000003870264
REMARK                            x       y       z     vdW  Elec       q    Type
REMARK                         _______ _______ _______ _____ _____    ______ ____
ROOT
ATOM      1  C1*   U A  1       -0.032   5.396   0.033  0.00  0.00    +0.470 C 
ATOM      2  O4*   U A  1        0.880   5.897  -0.969  0.00  0.00    -0.330 OA
ATOM      3  C4*   U A  1        2.196   5.752  -0.391  0.00  0.00    +0.110 C 
ATOM      4  C3*   U A  1        2.025   6.162   1.088  0.00  0.00    +0.130 C 
ATOM      5  C2*   U A  1        0.523   5.922   1.375  0.00  0.00    +0.190 C 
ENDROOT
BRANCH   1  10
ATOM      6  O4    U A  1       -0.141  -0.003  -0.023  0.00  0.00    -0.510 OA
ATOM      7  C4    U A  1       -0.108   1.214  -0.007  0.00  0.00    +0.550 A 
ATOM      8  C5    U A  1        1.058   1.892   0.423  0.00  0.00    -0.120 A 
ATOM      9  C6    U A  1        1.068   3.242   0.430  0.00  0.00    +0.350 A 
ATOM     10  N1    U A  1       -0.043   3.930   0.025  0.00  0.00    -0.530 N 
ATOM     11  C2    U A  1       -1.145   3.275  -0.382  0.00  0.00    +0.710 A 
ATOM     12  O2    U A  1       -2.121   3.906  -0.739  0.00  0.00    -0.540 OA
ATOM     13  N3    U A  1       -1.180   1.929  -0.404  0.00  0.00    -0.660 N 
ATOM     14  H3    U A  1       -1.983   1.472  -0.701  0.00  0.00    +0.430 HD
ENDBRANCH   1  10
BRANCH   4  15
ATOM     15  O3*   U A  1        2.357   7.540   1.268  0.00  0.00    -0.540 OA
ATOM     16  H3*   U A  1        3.273   7.756   1.045  0.00  0.00    +0.390 HD
ENDBRANCH   4  15
BRANCH   5  17
ATOM     17  O2*   U A  1        0.359   4.946   2.406  0.00  0.00    -0.540 OA
ATOM     18  H2*   U A  1        0.746   5.202   3.255  0.00  0.00    +0.400 HD
ENDBRANCH   5  17
BRANCH   3  19
ATOM     19  C5*   U A  1        3.190   6.681  -1.092  0.00  0.00    +0.210 C 
BRANCH  19  20
ATOM     20  O5*   U A  1        3.365   6.256  -2.445  0.00  0.00    -0.560 OA
ATOM     21  H5*   U A  1        3.984   6.801  -2.951  0.00  0.00    +0.390 HD
ENDBRANCH  19  20
ENDBRANCH   3  19
TORSDOF 5
ENDMDL
MODEL       41
REMARK  Name = ZINC000000315929
REMARK                            x       y       z     vdW  Elec       q    Type
REMARK                         _______ _______ _______ _____ _____    ______ ____
ROOT
ATOM      1  O   LIG    1        0.002  -0.004   0.002  0.00  0.00    -0.500 OA
ATOM      2  C   LIG    1       -0.015   1.217   0.009  0.00  0.00    +0.530 A 
ATOM      3  C   LIG    1       -1.249   1.913   0.030  0.00  0.00    -0.100 A 
ATOM      4  C   LIG    1       -1.226   3.263   0.034  0.00  0.00    +0.340 A 
ATOM      5  N   LIG    1       -0.025   3.916   0.016  0.00  0.00    -0.540 N 
ATOM      6  C   LIG    1        1.143   3.232   0.001  0.00  0.00    +0.580 A 
ATOM      7  O   LIG    1        2.222   4.044  -0.007  0.00  0.00    -0.250 OA
ATOM      8  C   LIG    1        1.803   5.433   0.023  0.00  0.00    +0.220 C 
ATOM      9  C   LIG    1        2.178   6.116  -1.313  0.00  0.00    +0.170 C 
ATOM     10  C   LIG    1        0.862   6.843  -1.687  0.00  0.00    +0.160 C 
ATOM     11  O   LIG    1       -0.164   5.920  -1.266  0.00  0.00    -0.350 OA
ATOM     12  C   LIG    1        0.258   5.362   0.008  0.00  0.00    +0.410 C 
ATOM     13  N   LIG    1        1.132   1.905   0.002  0.00  0.00    -0.580 NA
ENDROOT
BRANCH   9  14
ATOM     14  O   LIG    1        3.244   7.049  -1.125  0.00  0.00    -0.540 OA
ATOM     15  H   LIG    1        3.516   7.504  -1.934  0.00  0.00    +0.400 HD
ENDBRANCH   9  14
BRANCH  10  16
ATOM     16  C   LIG    1        0.789   7.082  -3.197  0.00  0.00    +0.210 C 
BRANCH  16  17
ATOM     17  O   LIG    1       -0.374   7.854  -3.501  0.00  0.00    -0.560 OA
ATOM     18  H   LIG    1       -0.485   8.044  -4.443  0.00  0.00    +0.390 HD
ENDBRANCH  16  17
ENDBRANCH  10  16
TORSDOF 3
ENDMDL
MODEL       42
REMARK  Name = ZINC000005273941
REMARK                            x       y       z     vdW  Elec       q    Type
REMARK                         _______ _______ _______ _____ _____    ______ ____
ROOT
ATOM      1  C   THR A  1        0.739  -2.004  -1.265  0.00  0.00    +0.510 C 
ATOM      2  N   GLN A  2       -0.353  -2.691  -1.658  0.00  0.00    -0.660 N 
ATOM      3  H   GLN A  2       -1.151  -2.215  -1.935  0.00  0.00    +0.400 HD
ATOM      4  O   THR A  1        1.737  -2.599  -0.918  0.00  0.00    -0.530 OA
ENDROOT
BRANCH   1   5
ATOM      5  CA  THR A  1        0.718  -0.497  -1.257  0.00  0.00    +0.140 C 
BRANCH   5   6
ATOM      6  N   THR A  1        2.096   0.011  -1.267  0.00  0.00    -0.620 N 
ATOM      7  H1  THR A  1        2.584  -0.323  -0.450  0.00  0.00    +0.430 HD
ATOM      8  H2  THR A  1        2.083   1.020  -1.262  0.00  0.00    +0.430 HD
ATOM      9  H3  THR A  1        2.569  -0.314  -2.097  0.00  0.00    +0.450 HD
ENDBRANCH   5   6
BRANCH   5  11
ATOM     10  CG2 THR A  1       -0.019   1.526   0.010  0.00  0.00    +0.050 C 
ATOM     11  CB  THR A  1        0.002  -0.004   0.002  0.00  0.00    +0.240 C 
BRANCH  11  12
ATOM     12  OG1 THR A  1        0.693  -0.477   1.160  0.00  0.00    -0.530 OA
ATOM     13  HG1 THR A  1        1.611  -0.180   1.219  0.00  0.00    +0.370 HD
ENDBRANCH  11  12
ENDBRANCH   5  11
ENDBRANCH   1   5
BRANCH   2  14
ATOM     14  CA  GLN A  2       -0.333  -4.156  -1.666  0.00  0.00    +0.160 C 
BRANCH  14  15
ATOM     15  C   GLN A  2        0.262  -4.643  -2.962  0.00  0.00    +0.490 C 
ATOM     16  OXT GLN A  2        0.371  -5.839  -3.171  0.00  0.00    -0.670 OA
ATOM     17  O   GLN A  2        0.635  -3.841  -3.801  0.00  0.00    -0.690 OA
ENDBRANCH  14  15
BRANCH  14  18
ATOM     18  CB  GLN A  2       -1.762  -4.686  -1.529  0.00  0.00    +0.070 C 
BRANCH  18  19
ATOM     19  CG  GLN A  2       -2.321  -4.296  -0.160  0.00  0.00    +0.040 C 
BRANCH  19  20
ATOM     20  CD  GLN A  2       -3.729  -4.819  -0.025  0.00  0.00    +0.510 C 
ATOM     21  OE1 GLN A  2       -4.234  -5.441  -0.935  0.00  0.00    -0.530 OA
ATOM     22  NE2 GLN A  2       -4.426  -4.594   1.106  0.00  0.00    -0.860 N 
ATOM     23 HE21 GLN A  2       -5.331  -4.930   1.193  0.00  0.00    +0.400 HD
ATOM     24 HE22 GLN A  2       -4.021  -4.096   1.834  0.00  0.00    +0.400 HD
ENDBRANCH  19  20
ENDBRANCH  18  19
ENDBRANCH  14  18
ENDBRANCH   2  14
TORSDOF 9
ENDMDL
MODEL       43
REMARK  Name = ZINC000213418383
REMARK                            x       y       z     vdW  Elec       q    Type
REMARK                         _______ _______ _______ _____ _____    ______ ____
ROOT
ATOM      1  C   LIG    1        1.120  -4.237  -1.899  0.00  0.00    +0.230 C 
ENDROOT
BRANCH   1   2
ATOM      2  N   LIG    1        1.745  -5.058  -2.945  0.00  0.00    -0.540 NA
ATOM      3  C   LIG    1        1.475  -4.508  -4.275  0.00  0.00    +0.230 C 
ATOM      4  C   LIG    1        2.454  -5.101  -5.293  0.00  0.00    -0.320 C 
ATOM      5  S   LIG    1        2.186  -6.898  -5.380  0.00  0.00    +2.410 S 
ATOM      6  C   LIG    1        2.297  -7.351  -3.622  0.00  0.00    -0.320 C 
ATOM      7  O   LIG    1        3.276  -7.488  -6.075  0.00  0.00    -0.940 OA
ATOM      8  O   LIG    1        0.860  -7.140  -5.830  0.00  0.00    -0.940 OA
ATOM      9  C   LIG    1        1.339  -6.460  -2.825  0.00  0.00    +0.220 C 
ENDBRANCH   1   2
BRANCH   1  10
ATOM     10  C   LIG    1       -0.394  -4.201  -2.116  0.00  0.00    +0.240 C 
BRANCH  10  15
ATOM     11  C   LIG    1       -4.406  -2.489   0.053  0.00  0.00    +0.300 C 
ATOM     12  N   LIG    1       -2.952  -2.660   0.029  0.00  0.00    -0.750 N 
ATOM     13  H   LIG    1       -2.409  -2.296   0.746  0.00  0.00    +0.400 HD
ATOM     14  C   LIG    1       -2.367  -3.323  -0.988  0.00  0.00    +0.700 C 
ATOM     15  N   LIG    1       -1.029  -3.481  -1.010  0.00  0.00    -0.740 N 
ATOM     16  H   LIG    1       -0.486  -3.117  -0.293  0.00  0.00    +0.400 HD
ATOM     17  O   LIG    1       -3.048  -3.779  -1.887  0.00  0.00    -0.590 OA
ENDBRANCH  10  15
ENDBRANCH   1  10
TORSDOF 3
ENDMDL
MODEL       44
REMARK  Name = ZINC000004228257
REMARK                            x       y       z     vdW  Elec       q    Type
REMARK                         _______ _______ _______ _____ _____    ______ ____
ROOT
ATOM      1  C   LIG    1        0.655  -2.037   1.299  0.00  0.00    +0.220 C 
ATOM      2  C   LIG    1        1.412  -2.555   2.531  0.00  0.00    +0.290 C 
ATOM      3  N   LIG    1        2.834  -2.219   2.371  0.00  0.00    -0.730 N 
ATOM      4  H   LIG    1        3.336  -1.840   3.110  0.00  0.00    +0.400 HD
ATOM      5  C   LIG    1        3.447  -2.448   1.155  0.00  0.00    +0.340 A 
ATOM      6  C   LIG    1        2.698  -2.643   0.030  0.00  0.00    -0.050 A 
ATOM      7  C   LIG    1        3.351  -2.870  -1.198  0.00  0.00    +0.540 A 
ATOM      8  N   LIG    1        4.693  -2.893  -1.236  0.00  0.00    -0.630 NA
ATOM      9  C   LIG    1        5.406  -2.707  -0.146  0.00  0.00    +0.660 A 
ATOM     10  O   LIG    1        2.701  -3.045  -2.219  0.00  0.00    -0.530 OA
ATOM     11  N   LIG    1        4.814  -2.483   1.059  0.00  0.00    -0.640 N 
ATOM     12  H   LIG    1        5.360  -2.349   1.850  0.00  0.00    +0.410 HD
ATOM     13  N   LIG    1        1.287  -2.617   0.102  0.00  0.00    -0.720 N 
ATOM     14  H   LIG    1        0.747  -2.973  -0.621  0.00  0.00    +0.410 HD
ENDROOT
BRANCH   9  15
ATOM     15  N   LIG    1        6.775  -2.739  -0.226  0.00  0.00    -0.820 N 
ATOM     16  H   LIG    1        7.310  -2.603   0.572  0.00  0.00    +0.410 HD
ATOM     17  H   LIG    1        7.207  -2.897  -1.079  0.00  0.00    +0.430 HD
ENDBRANCH   9  15
BRANCH   1  18
ATOM     18  C   LIG    1        0.742  -0.511   1.242  0.00  0.00    +0.210 C 
BRANCH  18  20
ATOM     19  C   LIG    1       -0.019   1.526   0.010  0.00  0.00    +0.010 C 
ATOM     20  C   LIG    1        0.002  -0.004   0.002  0.00  0.00    +0.140 C 
BRANCH  20  21
ATOM     21  O   LIG    1       -1.339  -0.499   0.012  0.00  0.00    -0.570 OA
ATOM     22  H   LIG    1       -1.868  -0.216  -0.746  0.00  0.00    +0.380 HD
ENDBRANCH  20  21
ENDBRANCH  18  20
BRANCH  18  23
ATOM     23  O   LIG    1        0.143   0.044   2.414  0.00  0.00    -0.560 OA
ATOM     24  H   LIG    1       -0.790  -0.184   2.525  0.00  0.00    +0.380 HD
ENDBRANCH  18  23
ENDBRANCH   1  18
TORSDOF 5
ENDMDL
MODEL       45
REMARK  Name = ZINC000004686985
REMARK                            x       y       z     vdW  Elec       q    Type
REMARK                         _______ _______ _______ _____ _____    ______ ____
ROOT
ATOM      1  C1* LIG    1       -0.047   5.392   0.031  0.00  0.00    +0.490 C 
ATOM      2  O4* LIG    1       -0.452   5.889  -1.255  0.00  0.00    -0.340 OA
ATOM      3  C4* LIG    1       -1.879   6.105  -1.194  0.00  0.00    +0.180 C 
ATOM      4  C3* LIG    1       -2.093   6.703   0.220  0.00  0.00    +0.140 C 
ATOM      5  C2* LIG    1       -1.060   5.915   1.068  0.00  0.00    +0.130 C 
ENDROOT
BRANCH   1  10
ATOM      6  O   LIG    1        0.002  -0.004   0.002  0.00  0.00    -0.480 OA
ATOM      7  C   LIG    1       -0.014   1.213   0.009  0.00  0.00    +0.520 A 
ATOM      8  C   LIG    1       -1.288   1.938   0.031  0.00  0.00    +0.250 A 
ATOM      9  N   LIG    1       -1.275   3.242   0.038  0.00  0.00    -0.120 NA
ATOM     10  N   LIG    1       -0.054   3.927   0.024  0.00  0.00    -0.440 N 
ATOM     11  C   LIG    1        1.112   3.258   0.004  0.00  0.00    +0.690 A 
ATOM     12  O   LIG    1        2.158   3.878  -0.007  0.00  0.00    -0.540 OA
ATOM     13  N   LIG    1        1.140   1.912   0.001  0.00  0.00    -0.660 N 
ATOM     14  H   LIG    1        1.989   1.444  -0.013  0.00  0.00    +0.430 HD
ENDBRANCH   1  10
BRANCH   4  15
ATOM     15  O3* LIG    1       -3.424   6.459   0.680  0.00  0.00    -0.540 OA
ATOM     16  H3* LIG    1       -3.607   6.814   1.560  0.00  0.00    +0.380 HD
ENDBRANCH   4  15
BRANCH   5  17
ATOM     17  O2* LIG    1       -1.694   4.828   1.745  0.00  0.00    -0.520 OA
ATOM     18  H2* LIG    1       -2.384   5.099   2.366  0.00  0.00    +0.380 HD
ENDBRANCH   5  17
BRANCH   3  19
ATOM     19  C5* LIG    1       -2.321   7.094  -2.274  0.00  0.00    +0.220 C 
BRANCH  19  20
ATOM     20  O5* LIG    1       -2.124   6.511  -3.563  0.00  0.00    -0.570 OA
ATOM     21  H5* LIG    1       -2.384   7.083  -4.298  0.00  0.00    +0.380 HD
ENDBRANCH  19  20
ENDBRANCH   3  19
TORSDOF 5
ENDMDL
MODEL       46
REMARK  Name = ZINC000013543796
REMARK                            x       y       z     vdW  Elec       q    Type
REMARK                         _______ _______ _______ _____ _____    ______ ____
ROOT
ATOM      1  C1* LIG    1       -0.047   5.392   0.031  0.00  0.00    +0.480 C 
ATOM      2  O4* LIG    1       -0.457   5.895   1.321  0.00  0.00    -0.350 OA
ATOM      3  C4* LIG    1       -0.912   7.244   1.119  0.00  0.00    +0.190 C 
ATOM      4  C3* LIG    1       -1.402   7.349  -0.338  0.00  0.00    +0.140 C 
ATOM      5  C2* LIG    1       -1.123   5.947  -0.936  0.00  0.00    +0.130 C 
ENDROOT
BRANCH   1  10
ATOM      6  O   LIG    1        0.002  -0.004   0.002  0.00  0.00    -0.480 OA
ATOM      7  C   LIG    1       -0.014   1.213   0.009  0.00  0.00    +0.520 A 
ATOM      8  C   LIG    1       -1.288   1.938   0.031  0.00  0.00    +0.250 A 
ATOM      9  N   LIG    1       -1.275   3.242   0.038  0.00  0.00    -0.110 NA
ATOM     10  N   LIG    1       -0.054   3.927   0.024  0.00  0.00    -0.440 N 
ATOM     11  C   LIG    1        1.112   3.258   0.004  0.00  0.00    +0.690 A 
ATOM     12  O   LIG    1        2.158   3.878  -0.007  0.00  0.00    -0.530 OA
ATOM     13  N   LIG    1        1.140   1.912   0.001  0.00  0.00    -0.660 N 
ATOM     14  H   LIG    1        1.989   1.444  -0.013  0.00  0.00    +0.440 HD
ENDBRANCH   1  10
BRANCH   4  15
ATOM     15  O3* LIG    1       -0.664   8.350  -1.042  0.00  0.00    -0.550 OA
ATOM     16  H3* LIG    1       -0.932   8.458  -1.965  0.00  0.00    +0.390 HD
ENDBRANCH   4  15
BRANCH   5  17
ATOM     17  O2* LIG    1       -2.299   5.137  -0.907  0.00  0.00    -0.520 OA
ATOM     18  H2* LIG    1       -3.035   5.492  -1.425  0.00  0.00    +0.380 HD
ENDBRANCH   5  17
BRANCH   3  19
ATOM     19  C5* LIG    1       -2.060   7.555   2.082  0.00  0.00    +0.200 C 
BRANCH  19  20
ATOM     20  O5* LIG    1       -1.569   7.554   3.424  0.00  0.00    -0.560 OA
ATOM     21  H5* LIG    1       -2.245   7.744   4.090  0.00  0.00    +0.380 HD
ENDBRANCH  19  20
ENDBRANCH   3  19
TORSDOF 5
ENDMDL
MODEL       47
REMARK  Name = ZINC000004342821
REMARK                            x       y       z     vdW  Elec       q    Type
REMARK                         _______ _______ _______ _____ _____    ______ ____
ROOT
ATOM      1  C1* LIG    1       -0.047   5.392   0.031  0.00  0.00    +0.470 C 
ATOM      2  O4* LIG    1       -0.481   5.903  -1.248  0.00  0.00    -0.350 OA
ATOM      3  C4* LIG    1       -0.908   7.258  -0.991  0.00  0.00    +0.190 C 
ATOM      4  C3* LIG    1       -1.663   7.185   0.355  0.00  0.00    +0.140 C 
ATOM      5  C2* LIG    1       -1.082   5.929   1.045  0.00  0.00    +0.130 C 
ENDROOT
BRANCH   1  10
ATOM      6  O   LIG    1        0.002  -0.004   0.002  0.00  0.00    -0.480 OA
ATOM      7  C   LIG    1       -0.014   1.213   0.009  0.00  0.00    +0.520 A 
ATOM      8  C   LIG    1       -1.288   1.938   0.031  0.00  0.00    +0.250 A 
ATOM      9  N   LIG    1       -1.275   3.242   0.038  0.00  0.00    -0.100 NA
ATOM     10  N   LIG    1       -0.054   3.927   0.024  0.00  0.00    -0.430 N 
ATOM     11  C   LIG    1        1.112   3.258   0.004  0.00  0.00    +0.690 A 
ATOM     12  O   LIG    1        2.158   3.878  -0.007  0.00  0.00    -0.530 OA
ATOM     13  N   LIG    1        1.140   1.912   0.001  0.00  0.00    -0.660 N 
ATOM     14  H   LIG    1        1.989   1.444  -0.013  0.00  0.00    +0.430 HD
ENDBRANCH   1  10
BRANCH   4  15
ATOM     15  O3* LIG    1       -3.067   7.036   0.134  0.00  0.00    -0.530 OA
ATOM     16  H3* LIG    1       -3.590   6.985   0.946  0.00  0.00    +0.380 HD
ENDBRANCH   4  15
BRANCH   5  17
ATOM     17  O2* LIG    1       -2.109   4.962   1.274  0.00  0.00    -0.510 OA
ATOM     18  H2* LIG    1       -2.817   5.271   1.855  0.00  0.00    +0.370 HD
ENDBRANCH   5  17
BRANCH   3  19
ATOM     19  C5* LIG    1       -1.842   7.742  -2.102  0.00  0.00    +0.220 C 
BRANCH  19  20
ATOM     20  O5* LIG    1       -1.112   7.844  -3.327  0.00  0.00    -0.570 OA
ATOM     21  H5* LIG    1       -1.643   8.146  -4.077  0.00  0.00    +0.380 HD
ENDBRANCH  19  20
ENDBRANCH   3  19
TORSDOF 5
ENDMDL
MODEL       48
REMARK  Name = ZINC000102829196
REMARK                            x       y       z     vdW  Elec       q    Type
REMARK                         _______ _______ _______ _____ _____    ______ ____
ROOT
ATOM      1  C   LIG    1       -0.047   5.392   0.031  0.00  0.00    +0.480 C 
ATOM      2  O   LIG    1       -0.376   5.863   1.340  0.00  0.00    -0.370 OA
ATOM      3  C   LIG    1       -0.372   7.286   1.465  0.00  0.00    +0.220 C 
ATOM      4  C   LIG    1       -1.418   7.883   0.520  0.00  0.00    +0.110 C 
ATOM      5  C   LIG    1       -1.110   7.443  -0.914  0.00  0.00    +0.160 C 
ATOM      6  C   LIG    1       -1.081   5.912  -0.971  0.00  0.00    +0.160 C 
ENDROOT
BRANCH   1  11
ATOM      7  O   LIG    1        0.002  -0.004   0.002  0.00  0.00    -0.480 OA
ATOM      8  C   LIG    1       -0.014   1.213   0.009  0.00  0.00    +0.520 A 
ATOM      9  C   LIG    1       -1.288   1.938   0.031  0.00  0.00    +0.260 A 
ATOM     10  N   LIG    1       -1.275   3.242   0.038  0.00  0.00    -0.110 NA
ATOM     11  N   LIG    1       -0.054   3.927   0.024  0.00  0.00    -0.440 N 
ATOM     12  C   LIG    1        1.112   3.258   0.004  0.00  0.00    +0.690 A 
ATOM     13  O   LIG    1        2.158   3.878  -0.007  0.00  0.00    -0.530 OA
ATOM     14  N   LIG    1        1.140   1.912   0.001  0.00  0.00    -0.660 N 
ATOM     15  H   LIG    1        1.989   1.444  -0.013  0.00  0.00    +0.440 HD
ENDBRANCH   1  11
BRANCH   5  16
ATOM     16  O   LIG    1       -2.122   7.936  -1.794  0.00  0.00    -0.550 OA
ATOM     17  H   LIG    1       -2.200   8.900  -1.802  0.00  0.00    +0.390 HD
ENDBRANCH   5  16
BRANCH   4  18
ATOM     18  O   LIG    1       -2.718   7.421   0.894  0.00  0.00    -0.530 OA
ATOM     19  H   LIG    1       -2.977   7.662   1.794  0.00  0.00    +0.380 HD
ENDBRANCH   4  18
BRANCH   6  20
ATOM     20  O   LIG    1       -2.371   5.397  -0.639  0.00  0.00    -0.510 OA
ATOM     21  H   LIG    1       -3.077   5.691  -1.232  0.00  0.00    +0.380 HD
ENDBRANCH   6  20
TORSDOF 4
ENDMDL
MODEL       49
REMARK  Name = ZINC000001078595
REMARK                            x       y       z     vdW  Elec       q    Type
REMARK                         _______ _______ _______ _____ _____    ______ ____
ROOT
ATOM      1  C1* LIG    1       -0.047   5.392   0.031  0.00  0.00    +0.480 C 
ATOM      2  O4* LIG    1       -0.457   5.895   1.321  0.00  0.00    -0.350 OA
ATOM      3  C4* LIG    1       -0.912   7.244   1.119  0.00  0.00    +0.190 C 
ATOM      4  C3* LIG    1       -1.402   7.349  -0.338  0.00  0.00    +0.140 C 
ATOM      5  C2* LIG    1       -1.123   5.947  -0.936  0.00  0.00    +0.140 C 
ENDROOT
BRANCH   1  10
ATOM      6  O   LIG    1        0.002  -0.004   0.002  0.00  0.00    -0.480 OA
ATOM      7  C   LIG    1       -0.014   1.213   0.009  0.00  0.00    +0.520 A 
ATOM      8  C   LIG    1       -1.288   1.938   0.031  0.00  0.00    +0.290 A 
ATOM      9  N   LIG    1       -1.275   3.242   0.038  0.00  0.00    -0.170 NA
ATOM     10  N   LIG    1       -0.054   3.927   0.024  0.00  0.00    -0.430 N 
ATOM     11  C   LIG    1        1.112   3.258   0.004  0.00  0.00    +0.690 A 
ATOM     12  O   LIG    1        2.158   3.878  -0.007  0.00  0.00    -0.520 OA
ATOM     13  N   LIG    1        1.140   1.912   0.001  0.00  0.00    -0.660 N 
ATOM     14  H   LIG    1        1.989   1.444  -0.013  0.00  0.00    +0.440 HD
ENDBRANCH   1  10
BRANCH   4  15
ATOM     15  O3* LIG    1       -0.664   8.350  -1.042  0.00  0.00    -0.540 OA
ATOM     16  H3* LIG    1       -0.932   8.458  -1.965  0.00  0.00    +0.390 HD
ENDBRANCH   4  15
BRANCH   5  17
ATOM     17  O2* LIG    1       -0.614   6.054  -2.268  0.00  0.00    -0.540 OA
ATOM     18  H2* LIG    1       -1.221   6.479  -2.888  0.00  0.00    +0.390 HD
ENDBRANCH   5  17
BRANCH   3  19
ATOM     19  C5* LIG    1       -2.060   7.555   2.082  0.00  0.00    +0.210 C 
BRANCH  19  20
ATOM     20  O5* LIG    1       -1.569   7.554   3.424  0.00  0.00    -0.560 OA
ATOM     21  H5* LIG    1       -2.245   7.744   4.090  0.00  0.00    +0.390 HD
ENDBRANCH  19  20
ENDBRANCH   3  19
TORSDOF 5
ENDMDL
MODEL       50
REMARK  Name = ZINC000001422321
REMARK                            x       y       z     vdW  Elec       q    Type
REMARK                         _______ _______ _______ _____ _____    ______ ____
ROOT
ATOM      1  C1* LIG    1       -0.047   5.392   0.031  0.00  0.00    +0.470 C 
ATOM      2  O4* LIG    1       -0.444   5.889   1.328  0.00  0.00    -0.350 OA
ATOM      3  C4* LIG    1       -0.878   7.247   1.097  0.00  0.00    +0.190 C 
ATOM      4  C3* LIG    1       -1.672   7.188  -0.227  0.00  0.00    +0.140 C 
ATOM      5  C2* LIG    1       -1.110   5.939  -0.947  0.00  0.00    +0.130 C 
ENDROOT
BRANCH   1  10
ATOM      6  O   LIG    1        0.002  -0.004   0.002  0.00  0.00    -0.480 OA
ATOM      7  C   LIG    1       -0.014   1.213   0.009  0.00  0.00    +0.520 A 
ATOM      8  C   LIG    1       -1.288   1.938   0.031  0.00  0.00    +0.250 A 
ATOM      9  N   LIG    1       -1.275   3.242   0.038  0.00  0.00    -0.100 NA
ATOM     10  N   LIG    1       -0.054   3.927   0.024  0.00  0.00    -0.430 N 
ATOM     11  C   LIG    1        1.112   3.258   0.004  0.00  0.00    +0.690 A 
ATOM     12  O   LIG    1        2.158   3.878  -0.007  0.00  0.00    -0.530 OA
ATOM     13  N   LIG    1        1.140   1.912   0.001  0.00  0.00    -0.660 N 
ATOM     14  H   LIG    1        1.989   1.444  -0.013  0.00  0.00    +0.430 HD
ENDBRANCH   1  10
BRANCH   4  15
ATOM     15  O3* LIG    1       -3.069   7.037   0.033  0.00  0.00    -0.530 OA
ATOM     16  H3* LIG    1       -3.615   6.994  -0.765  0.00  0.00    +0.380 HD
ENDBRANCH   4  15
BRANCH   5  17
ATOM     17  O2* LIG    1       -2.144   4.975  -1.156  0.00  0.00    -0.510 OA
ATOM     18  H2* LIG    1       -2.869   5.290  -1.714  0.00  0.00    +0.370 HD
ENDBRANCH   5  17
BRANCH   3  19
ATOM     19  C5* LIG    1       -1.780   7.719   2.240  0.00  0.00    +0.220 C 
BRANCH  19  20
ATOM     20  O5* LIG    1       -1.015   7.808   3.444  0.00  0.00    -0.570 OA
ATOM     21  H5* LIG    1       -1.523   8.102   4.212  0.00  0.00    +0.380 HD
ENDBRANCH  19  20
ENDBRANCH   3  19
TORSDOF 5
ENDMDL
MODEL       51
REMARK  Name = ZINC000011691713
REMARK                            x       y       z     vdW  Elec       q    Type
REMARK                         _______ _______ _______ _____ _____    ______ ____
ROOT
ATOM      1  C   LIG    1       -0.047   5.392   0.031  0.00  0.00    +0.510 C 
ATOM      2  O   LIG    1       -0.488   5.864   1.306  0.00  0.00    -0.350 OA
ATOM      3  C   LIG    1       -1.799   5.426   1.669  0.00  0.00    +0.210 C 
ATOM      4  C   LIG    1       -2.811   5.948   0.646  0.00  0.00    +0.120 C 
ATOM      5  C   LIG    1       -2.417   5.452  -0.749  0.00  0.00    +0.180 C 
ATOM      6  C   LIG    1       -0.989   5.912  -1.058  0.00  0.00    +0.180 C 
ENDROOT
BRANCH   1  11
ATOM      7  O   LIG    1        0.002  -0.004   0.006  0.00  0.00    -0.480 OA
ATOM      8  C   LIG    1       -0.015   1.213   0.012  0.00  0.00    +0.520 A 
ATOM      9  C   LIG    1       -1.287   1.938  -0.038  0.00  0.00    +0.280 A 
ATOM     10  N   LIG    1       -1.274   3.242  -0.031  0.00  0.00    -0.170 NA
ATOM     11  N   LIG    1       -0.054   3.927   0.024  0.00  0.00    -0.450 N 
ATOM     12  C   LIG    1        1.111   3.257   0.069  0.00  0.00    +0.690 A 
ATOM     13  O   LIG    1        2.156   3.877   0.117  0.00  0.00    -0.520 OA
ATOM     14  N   LIG    1        1.138   1.911   0.069  0.00  0.00    -0.660 N 
ATOM     15  H   LIG    1        1.987   1.444   0.103  0.00  0.00    +0.440 HD
ENDBRANCH   1  11
BRANCH   5  16
ATOM     16  O   LIG    1       -3.316   5.994  -1.720  0.00  0.00    -0.560 OA
ATOM     17  H   LIG    1       -4.240   5.747  -1.581  0.00  0.00    +0.390 HD
ENDBRANCH   5  16
BRANCH   4  18
ATOM     18  O   LIG    1       -4.115   5.465   0.975  0.00  0.00    -0.560 OA
ATOM     19  H   LIG    1       -4.427   5.738   1.849  0.00  0.00    +0.390 HD
ENDBRANCH   4  18
BRANCH   6  20
ATOM     20  O   LIG    1       -0.585   5.396  -2.328  0.00  0.00    -0.550 OA
ATOM     21  H   LIG    1       -1.142   5.682  -3.064  0.00  0.00    +0.400 HD
ENDBRANCH   6  20
TORSDOF 4
ENDMDL
MODEL       52
REMARK  Name = ZINC000003117816
REMARK                            x       y       z     vdW  Elec       q    Type
REMARK                         _______ _______ _______ _____ _____    ______ ____
ROOT
ATOM      1  C1* LIG    1       -0.047   5.392   0.031  0.00  0.00    +0.490 C 
ATOM      2  O4* LIG    1       -0.444   5.889   1.328  0.00  0.00    -0.330 OA
ATOM      3  C4* LIG    1       -1.882   5.764   1.360  0.00  0.00    +0.180 C 
ATOM      4  C3* LIG    1       -2.347   6.190  -0.050  0.00  0.00    +0.140 C 
ATOM      5  C2* LIG    1       -1.110   5.939  -0.947  0.00  0.00    +0.140 C 
ENDROOT
BRANCH   1  10
ATOM      6  O   LIG    1        0.002  -0.004   0.002  0.00  0.00    -0.470 OA
ATOM      7  C   LIG    1       -0.014   1.213   0.009  0.00  0.00    +0.520 A 
ATOM      8  C   LIG    1       -1.288   1.938   0.031  0.00  0.00    +0.290 A 
ATOM      9  N   LIG    1       -1.275   3.242   0.038  0.00  0.00    -0.180 NA
ATOM     10  N   LIG    1       -0.054   3.927   0.024  0.00  0.00    -0.450 N 
ATOM     11  C   LIG    1        1.112   3.258   0.004  0.00  0.00    +0.690 A 
ATOM     12  O   LIG    1        2.158   3.878  -0.007  0.00  0.00    -0.520 OA
ATOM     13  N   LIG    1        1.140   1.912   0.001  0.00  0.00    -0.660 N 
ATOM     14  H   LIG    1        1.989   1.444  -0.013  0.00  0.00    +0.440 HD
ENDBRANCH   1  10
BRANCH   4  15
ATOM     15  O3* LIG    1       -2.705   7.574  -0.063  0.00  0.00    -0.540 OA
ATOM     16  H3* LIG    1       -3.005   7.894  -0.924  0.00  0.00    +0.380 HD
ENDBRANCH   4  15
BRANCH   5  17
ATOM     17  O2* LIG    1       -0.668   7.161  -1.542  0.00  0.00    -0.540 OA
ATOM     18  H2* LIG    1       -1.323   7.578  -2.118  0.00  0.00    +0.390 HD
ENDBRANCH   5  17
BRANCH   3  19
ATOM     19  C5* LIG    1       -2.474   6.693   2.422  0.00  0.00    +0.220 C 
BRANCH  19  20
ATOM     20  O5* LIG    1       -2.067   6.254   3.719  0.00  0.00    -0.570 OA
ATOM     21  H5* LIG    1       -2.406   6.798   4.443  0.00  0.00    +0.380 HD
ENDBRANCH  19  20
ENDBRANCH   3  19
TORSDOF 5
ENDMDL
MODEL       53
REMARK  Name = ZINC000026835919
REMARK                            x       y       z     vdW  Elec       q    Type
REMARK                         _______ _______ _______ _____ _____    ______ ____
ROOT
ATOM      1  C   LIG    1       -2.551  -4.195   0.004  0.00  0.00    +0.380 C 
ATOM      2  O   LIG    1       -2.675  -4.666  -1.340  0.00  0.00    -0.370 OA
ATOM      3  C   LIG    1       -2.641  -6.089  -1.464  0.00  0.00    +0.210 C 
ATOM      4  C   LIG    1       -3.813  -6.696  -0.688  0.00  0.00    +0.170 C 
ATOM      5  C   LIG    1       -3.727  -6.256   0.777  0.00  0.00    +0.160 C 
ATOM      6  C   LIG    1       -3.719  -4.726   0.840  0.00  0.00    +0.120 C 
ENDROOT
BRANCH   1   8
ATOM      7  C   LIG    1       -1.413  -2.041   0.005  0.00  0.00    +0.520 C 
ATOM      8  N   LIG    1       -2.571  -2.730   0.012  0.00  0.00    -0.720 N 
ATOM      9  H   LIG    1       -3.417  -2.257   0.023  0.00  0.00    +0.400 HD
ATOM     10  O   LIG    1       -0.354  -2.632  -0.009  0.00  0.00    -0.520 OA
BRANCH   7  11
ATOM     11  C   LIG    1       -1.433  -0.534   0.013  0.00  0.00    +0.060 C 
BRANCH  11  13
ATOM     12  C   LIG    1       -0.019   1.526   0.010  0.00  0.00    +0.020 C 
ATOM     13  C   LIG    1        0.002  -0.004   0.002  0.00  0.00    +0.030 C 
ENDBRANCH  11  13
ENDBRANCH   7  11
ENDBRANCH   1   8
BRANCH   5  14
ATOM     14  O   LIG    1       -2.526  -6.767   1.359  0.00  0.00    -0.550 OA
ATOM     15  H   LIG    1       -2.406  -6.526   2.288  0.00  0.00    +0.390 HD
ENDBRANCH   5  14
BRANCH   4  16
ATOM     16  O   LIG    1       -5.045  -6.244  -1.252  0.00  0.00    -0.530 OA
ATOM     17  H   LIG    1       -5.831  -6.590  -0.808  0.00  0.00    +0.380 HD
ENDBRANCH   4  16
BRANCH   6  18
ATOM     18  O   LIG    1       -4.949  -4.220   0.318  0.00  0.00    -0.530 OA
ATOM     19  H   LIG    1       -5.013  -3.255   0.327  0.00  0.00    +0.370 HD
ENDBRANCH   6  18
BRANCH   3  20
ATOM     20  C   LIG    1       -2.753  -6.474  -2.941  0.00  0.00    +0.210 C 
BRANCH  20  21
ATOM     21  O   LIG    1       -1.601  -6.006  -3.644  0.00  0.00    -0.570 OA
ATOM     22  H   LIG    1       -1.604  -6.215  -4.588  0.00  0.00    +0.380 HD
ENDBRANCH  20  21
ENDBRANCH   3  20
TORSDOF 8
ENDMDL
MODEL       54
REMARK  Name = ZINC000102829198
REMARK                            x       y       z     vdW  Elec       q    Type
REMARK                         _______ _______ _______ _____ _____    ______ ____
ROOT
ATOM      1  C   LIG    1       -0.047   5.392   0.031  0.00  0.00    +0.480 C 
ATOM      2  O   LIG    1       -0.376   5.863   1.340  0.00  0.00    -0.370 OA
ATOM      3  C   LIG    1       -0.372   7.286   1.465  0.00  0.00    +0.230 C 
ATOM      4  C   LIG    1       -1.418   7.883   0.520  0.00  0.00    +0.120 C 
ATOM      5  C   LIG    1       -1.110   7.443  -0.914  0.00  0.00    +0.160 C 
ATOM      6  C   LIG    1       -1.081   5.912  -0.971  0.00  0.00    +0.190 C 
ENDROOT
BRANCH   1  11
ATOM      7  O   LIG    1        0.002  -0.004   0.002  0.00  0.00    -0.480 OA
ATOM      8  C   LIG    1       -0.014   1.213   0.009  0.00  0.00    +0.520 A 
ATOM      9  C   LIG    1       -1.288   1.938   0.031  0.00  0.00    +0.280 A 
ATOM     10  N   LIG    1       -1.275   3.242   0.038  0.00  0.00    -0.150 NA
ATOM     11  N   LIG    1       -0.054   3.927   0.024  0.00  0.00    -0.430 N 
ATOM     12  C   LIG    1        1.112   3.258   0.004  0.00  0.00    +0.690 A 
ATOM     13  O   LIG    1        2.158   3.878  -0.007  0.00  0.00    -0.530 OA
ATOM     14  N   LIG    1        1.140   1.912   0.001  0.00  0.00    -0.660 N 
ATOM     15  H   LIG    1        1.989   1.444  -0.013  0.00  0.00    +0.440 HD
ENDBRANCH   1  11
BRANCH   5  16
ATOM     16  O   LIG    1       -2.122   7.936  -1.794  0.00  0.00    -0.550 OA
ATOM     17  H   LIG    1       -2.200   8.900  -1.802  0.00  0.00    +0.390 HD
ENDBRANCH   5  16
BRANCH   4  18
ATOM     18  O   LIG    1       -2.718   7.421   0.894  0.00  0.00    -0.540 OA
ATOM     19  H   LIG    1       -2.977   7.662   1.794  0.00  0.00    +0.380 HD
ENDBRANCH   4  18
BRANCH   6  20
ATOM     20  O   LIG    1       -0.724   5.491  -2.289  0.00  0.00    -0.560 OA
ATOM     21  H   LIG    1       -1.335   5.790  -2.977  0.00  0.00    +0.390 HD
ENDBRANCH   6  20
TORSDOF 4
ENDMDL
MODEL       55
REMARK  Name = ZINC000003985094
REMARK                            x       y       z     vdW  Elec       q    Type
REMARK                         _______ _______ _______ _____ _____    ______ ____
ROOT
ATOM      1  C   LIG    1       -0.047   5.392   0.031  0.00  0.00    +0.490 C 
ATOM      2  O   LIG    1       -0.413   5.877  -1.262  0.00  0.00    -0.410 OA
ATOM      3  C   LIG    1       -0.413   7.301  -1.373  0.00  0.00    +0.320 C 
ATOM      4  C   LIG    1       -1.431   7.888  -0.392  0.00  0.00    +0.170 C 
ATOM      5  C   LIG    1       -1.082   7.432   1.028  0.00  0.00    +0.050 C 
ATOM      6  C   LIG    1       -1.051   5.902   1.069  0.00  0.00    +0.180 C 
ENDROOT
BRANCH   1  11
ATOM      7  O   LIG    1        0.002  -0.004   0.002  0.00  0.00    -0.480 OA
ATOM      8  C   LIG    1       -0.014   1.213   0.009  0.00  0.00    +0.520 A 
ATOM      9  C   LIG    1       -1.288   1.938   0.031  0.00  0.00    +0.280 A 
ATOM     10  N   LIG    1       -1.275   3.242   0.038  0.00  0.00    -0.150 NA
ATOM     11  N   LIG    1       -0.054   3.927   0.024  0.00  0.00    -0.430 N 
ATOM     12  C   LIG    1        1.112   3.258   0.004  0.00  0.00    +0.690 A 
ATOM     13  O   LIG    1        2.158   3.878  -0.007  0.00  0.00    -0.530 OA
ATOM     14  N   LIG    1        1.140   1.912   0.001  0.00  0.00    -0.660 N 
ATOM     15  H   LIG    1        1.989   1.444  -0.013  0.00  0.00    +0.440 HD
ENDBRANCH   1  11
BRANCH   4  16
ATOM     16  O   LIG    1       -2.741   7.430  -0.733  0.00  0.00    -0.550 OA
ATOM     17  H   LIG    1       -3.026   7.680  -1.623  0.00  0.00    +0.390 HD
ENDBRANCH   4  16
BRANCH   3  18
ATOM     18  O   LIG    1       -0.764   7.676  -2.706  0.00  0.00    -0.540 OA
ATOM     19  H   LIG    1       -0.161   7.338  -3.382  0.00  0.00    +0.400 HD
ENDBRANCH   3  18
BRANCH   6  20
ATOM     20  O   LIG    1       -0.657   5.466   2.371  0.00  0.00    -0.560 OA
ATOM     21  H   LIG    1       -1.247   5.758   3.079  0.00  0.00    +0.390 HD
ENDBRANCH   6  20
TORSDOF 4
ENDMDL
MODEL       56
REMARK  Name = ZINC000000528570
REMARK                            x       y       z     vdW  Elec       q    Type
REMARK                         _______ _______ _______ _____ _____    ______ ____
ROOT
ATOM      1  O   LIG    1        0.002  -0.004   0.002  0.00  0.00    -0.520 OA
ATOM      2  C   LIG    1       -0.015   1.215   0.009  0.00  0.00    +0.680 A 
ATOM      3  N   LIG    1       -1.177   1.869   0.029  0.00  0.00    -0.640 NA
ATOM      4  C   LIG    1       -1.188   3.196   0.037  0.00  0.00    +0.660 A 
ATOM      5  N   LIG    1       -0.049   3.889   0.024  0.00  0.00    -0.610 NA
ATOM      6  C   LIG    1        1.125   3.267   0.004  0.00  0.00    +0.620 A 
ATOM      7  O   LIG    1        2.360   3.803  -0.010  0.00  0.00    -0.260 OA
ATOM      8  C   LIG    1        3.360   2.749  -0.030  0.00  0.00    +0.300 C 
ATOM      9  C   LIG    1        2.539   1.447  -0.026  0.00  0.00    +0.300 C 
ATOM     10  N   LIG    1        1.143   1.909   0.001  0.00  0.00    -0.590 N 
ENDROOT
BRANCH   4  11
ATOM     11  N   LIG    1       -2.388   3.865   0.058  0.00  0.00    -0.560 N 
ATOM     12  C   LIG    1       -2.436   5.335   0.061  0.00  0.00    +0.270 C 
ATOM     13  C   LIG    1       -3.394   5.790  -1.046  0.00  0.00    +0.220 C 
ATOM     14  O   LIG    1       -4.645   5.114  -0.893  0.00  0.00    -0.380 OA
ATOM     15  C   LIG    1       -4.562   3.693  -1.030  0.00  0.00    +0.220 C 
ATOM     16  C   LIG    1       -3.664   3.131   0.072  0.00  0.00    +0.290 C 
ENDBRANCH   4  11
TORSDOF 1
ENDMDL
MODEL       57
REMARK  Name = ZINC000011903593
REMARK                            x       y       z     vdW  Elec       q    Type
REMARK                         _______ _______ _______ _____ _____    ______ ____
ROOT
ATOM      1  N   LIG    1        2.251   4.009  -0.009  0.00  0.00    -0.690 N 
ATOM      2  H   LIG    1        2.204   4.978  -0.003  0.00  0.00    +0.430 HD
ENDROOT
BRANCH   1   8
ATOM      3  O   LIG    1        0.002  -0.004   0.002  0.00  0.00    -0.520 OA
ATOM      4  C   LIG    1       -0.015   1.215   0.009  0.00  0.00    +0.590 A 
ATOM      5  N   LIG    1       -1.183   1.865   0.029  0.00  0.00    -0.340 NA
ATOM      6  N   LIG    1       -1.242   3.149   0.037  0.00  0.00    -0.070 NA
ATOM      7  C   LIG    1       -0.146   3.887   0.025  0.00  0.00    +0.020 A 
ATOM      8  C   LIG    1        1.099   3.268   0.004  0.00  0.00    +0.490 A 
ATOM      9  N   LIG    1        1.147   1.903   0.001  0.00  0.00    -0.630 N 
ATOM     10  H   LIG    1        1.997   1.437  -0.013  0.00  0.00    +0.420 HD
ENDBRANCH   1   8
BRANCH   1  11
ATOM     11  C   LIG    1        3.554   3.339  -0.031  0.00  0.00    +0.250 C 
BRANCH  11  12
ATOM     12  C   LIG    1        4.667   4.388  -0.042  0.00  0.00    +0.190 C 
BRANCH  12  13
ATOM     13  N   LIG    1        5.973   3.716  -0.064  0.00  0.00    -0.530 NA
ATOM     14  C   LIG    1        6.022   2.628   0.923  0.00  0.00    +0.150 C 
ATOM     15  C   LIG    1        7.375   1.918   0.825  0.00  0.00    +0.220 C 
ATOM     16  O   LIG    1        8.423   2.872   1.018  0.00  0.00    -0.380 OA
ATOM     17  C   LIG    1        8.406   3.945   0.073  0.00  0.00    +0.220 C 
ATOM     18  C   LIG    1        7.063   4.676   0.164  0.00  0.00    +0.160 C 
ENDBRANCH  12  13
ENDBRANCH  11  12
ENDBRANCH   1  11
TORSDOF 4
ENDMDL
MODEL       58
REMARK  Name = ZINC000003683855
REMARK                            x       y       z     vdW  Elec       q    Type
REMARK                         _______ _______ _______ _____ _____    ______ ____
ROOT
ATOM      1  O   LIG    1        0.248  -0.011  -0.797  0.00  0.00    -0.530 OA
ATOM      2  C   LIG    1        0.202   1.145  -0.410  0.00  0.00    +0.640 A 
ATOM      3  N   LIG    1       -0.954   1.643   0.024  0.00  0.00    -0.560 NA
ATOM      4  C   LIG    1       -1.046   2.892   0.451  0.00  0.00    +0.440 A 
ATOM      5  C   LIG    1        0.076   3.709   0.452  0.00  0.00    -0.160 A 
ATOM      6  C   LIG    1        1.282   3.190  -0.001  0.00  0.00    +0.470 A 
ATOM      7  F   LIG    1       -0.003   4.986   0.886  0.00  0.00    -0.120 F 
ATOM      8  N   LIG    1        1.321   1.892  -0.426  0.00  0.00    -0.630 N 
ATOM      9  H   LIG    1        2.154   1.511  -0.746  0.00  0.00    +0.420 HD
ENDROOT
BRANCH   6  10
ATOM     10  N   LIG    1        2.414   3.965  -0.017  0.00  0.00    -0.580 N 
BRANCH  10  11
ATOM     11  C   LIG    1        2.303   5.422  -0.113  0.00  0.00    +0.330 C 
BRANCH  11  12
ATOM     12  C   LIG    1        2.378   6.033   1.288  0.00  0.00    +0.170 C 
BRANCH  12  13
ATOM     13  O   LIG    1        3.680   5.812   1.835  0.00  0.00    -0.580 OA
ATOM     14  H   LIG    1        3.800   6.174   2.724  0.00  0.00    +0.380 HD
ENDBRANCH  12  13
ENDBRANCH  11  12
ENDBRANCH  10  11
BRANCH  10  15
ATOM     15  C   LIG    1        3.734   3.334   0.063  0.00  0.00    +0.310 C 
BRANCH  15  16
ATOM     16  C   LIG    1        4.237   3.023  -1.348  0.00  0.00    +0.160 C 
BRANCH  16  17
ATOM     17  O   LIG    1        4.444   4.245  -2.060  0.00  0.00    -0.570 OA
ATOM     18  H   LIG    1        4.763   4.124  -2.965  0.00  0.00    +0.390 HD
ENDBRANCH  16  17
ENDBRANCH  15  16
ENDBRANCH  10  15
ENDBRANCH   6  10
TORSDOF 7
ENDMDL
MODEL       59
REMARK  Name = ZINC000167294652
REMARK                            x       y       z     vdW  Elec       q    Type
REMARK                         _______ _______ _______ _____ _____    ______ ____
ROOT
ATOM      1  N   LIG    1        1.408  -0.251   2.989  0.00  0.00    -0.530 N 
ATOM      2  C   LIG    1        2.060  -1.324   3.532  0.00  0.00    +0.370 A 
ATOM      3  C   LIG    1        3.334  -1.187   3.958  0.00  0.00    -0.110 A 
ATOM      4  C   LIG    1        3.970   0.072   3.832  0.00  0.00    +0.550 A 
ATOM      5  N   LIG    1        3.293   1.105   3.291  0.00  0.00    -0.660 N 
ATOM      6  H   LIG    1        3.723   1.970   3.201  0.00  0.00    +0.430 HD
ATOM      7  O   LIG    1        5.119   0.220   4.209  0.00  0.00    -0.510 OA
ATOM      8  C   LIG    1        2.026   0.938   2.870  0.00  0.00    +0.700 A 
ATOM      9  O   LIG    1        1.428   1.878   2.383  0.00  0.00    -0.540 OA
ENDROOT
BRANCH   1  10
ATOM     10  C   LIG    1        0.026  -0.400   2.526  0.00  0.00    +0.460 C 
BRANCH  10  16
ATOM     11  C   LIG    1       -0.018   1.461   0.010  0.00  0.00    +0.350 C 
ATOM     12  N   LIG    1        0.002  -0.004   0.002  0.00  0.00    -0.460 N 
ATOM     13  C   LIG    1        0.009  -0.813  -1.085  0.00  0.00    +0.380 A 
ATOM     14  N   LIG    1        0.027  -2.044  -0.652  0.00  0.00    -0.290 NA
ATOM     15  N   LIG    1        0.032  -2.051   0.634  0.00  0.00    -0.270 NA
ATOM     16  C   LIG    1        0.024  -0.825   1.080  0.00  0.00    +0.130 A 
ENDBRANCH  10  16
ENDBRANCH   1  10
TORSDOF 2
ENDMDL
MODEL       60
REMARK  Name = ZINC000003098764
REMARK                            x       y       z     vdW  Elec       q    Type
REMARK                         _______ _______ _______ _____ _____    ______ ____
ROOT
ATOM      1  O   LIG    1        0.002  -0.004   0.002  0.00  0.00    -0.370 OA
ATOM      2  C   LIG    1       -0.014   1.210   0.009  0.00  0.00    +0.550 A 
ATOM      3  O   LIG    1       -1.119   1.981   0.029  0.00  0.00    -0.270 OA
ATOM      4  C   LIG    1       -0.795   3.288   0.031  0.00  0.00    +0.550 A 
ATOM      5  C   LIG    1        0.685   3.409   0.010  0.00  0.00    +0.110 A 
ATOM      6  N   LIG    1        1.514   4.437   0.004  0.00  0.00    -0.350 NA
ATOM      7  C   LIG    1        2.824   4.268  -0.016  0.00  0.00    +0.110 A 
ATOM      8  C   LIG    1        3.385   2.976  -0.031  0.00  0.00    -0.200 A 
ATOM      9  C   LIG    1        4.850   3.163  -0.052  0.00  0.00    +0.550 A 
ATOM     10  O   LIG    1        5.114   4.484  -0.049  0.00  0.00    -0.270 OA
ATOM     11  O   LIG    1        5.677   2.275  -0.070  0.00  0.00    -0.370 OA
ATOM     12  C   LIG    1        2.547   1.864  -0.024  0.00  0.00    +0.290 A 
ATOM     13  C   LIG    1        3.976   5.205  -0.028  0.00  0.00    +0.550 A 
ATOM     14  O   LIG    1        3.905   6.416  -0.022  0.00  0.00    -0.350 OA
ATOM     15  O   LIG    1       -1.581   4.213   0.049  0.00  0.00    -0.350 OA
ATOM     16  C   LIG    1        1.173   2.088   0.002  0.00  0.00    -0.200 A 
ENDROOT
TORSDOF 0
ENDMDL
MODEL       61
REMARK  Name = ZINC000022067498
REMARK                            x       y       z     vdW  Elec       q    Type
REMARK                         _______ _______ _______ _____ _____    ______ ____
ROOT
ATOM      1  C1* LIG    1        2.419   1.167  -0.021  0.00  0.00    +0.420 C 
ATOM      2  O4* LIG    1        2.425   0.225  -1.106  0.00  0.00    -0.340 OA
ATOM      3  C4* LIG    1        3.181  -0.923  -0.664  0.00  0.00    +0.150 C 
ATOM      4  C3* LIG    1        2.737  -1.102   0.810  0.00  0.00    +0.130 C 
ATOM      5  C2* LIG    1        2.588   0.367   1.285  0.00  0.00    +0.170 C 
ENDROOT
BRANCH   1  12
ATOM      6  O   LIG    1        0.002  -0.004   0.002  0.00  0.00    -0.480 OA
ATOM      7  C   LIG    1       -0.015   1.215   0.009  0.00  0.00    +0.620 A 
ATOM      8  N   LIG    1       -1.185   1.857   0.029  0.00  0.00    -0.540 NA
ATOM      9  C   LIG    1       -1.233   3.174   0.037  0.00  0.00    +0.430 A 
ATOM     10  C   LIG    1       -0.046   3.913   0.024  0.00  0.00    -0.130 A 
ATOM     11  C   LIG    1        1.144   3.253   0.004  0.00  0.00    +0.360 A 
ATOM     12  N   LIG    1        1.148   1.895   0.001  0.00  0.00    -0.520 N 
ENDBRANCH   1  12
BRANCH   4  13
ATOM     13  O3* LIG    1        1.489  -1.794   0.886  0.00  0.00    -0.520 OA
ATOM     14  H3* LIG    1        1.512  -2.688   0.517  0.00  0.00    +0.380 HD
ENDBRANCH   4  13
BRANCH   5  15
ATOM     15  O2* LIG    1        3.759   0.786   1.989  0.00  0.00    -0.550 OA
ATOM     16  H2* LIG    1        3.942   0.274   2.788  0.00  0.00    +0.390 HD
ENDBRANCH   5  15
BRANCH   3  17
ATOM     17  C5* LIG    1        2.820  -2.157  -1.493  0.00  0.00    +0.210 C 
BRANCH  17  18
ATOM     18  O5* LIG    1        3.253  -1.969  -2.842  0.00  0.00    -0.560 OA
ATOM     19  H5* LIG    1        3.056  -2.714  -3.426  0.00  0.00    +0.380 HD
ENDBRANCH  17  18
ENDBRANCH   3  17
TORSDOF 5
ENDMDL
MODEL       62
REMARK  Name = ZINC000390834920
REMARK                            x       y       z     vdW  Elec       q    Type
REMARK                         _______ _______ _______ _____ _____    ______ ____
ROOT
ATOM      1  O   GLY A  1        0.002  -0.004   0.002  0.00  0.00    -0.510 OA
ATOM      2  C   GLY A  1       -0.014   1.209   0.009  0.00  0.00    +0.520 C 
ATOM      3  CA  GLY A  1       -1.335   1.928   0.031  0.00  0.00    +0.330 C 
ATOM      4  N   GLY A  1       -1.225   3.159   0.812  0.00  0.00    -0.720 N 
ATOM      5  H   GLY A  1       -2.012   3.514   1.253  0.00  0.00    +0.420 HD
ATOM      6  C   UNK A  2       -0.055   3.806   0.929  0.00  0.00    +0.530 C 
ATOM      7  C   UNK A  2        1.203   3.313   0.293  0.00  0.00    +0.280 C 
ATOM      8  C   UNK A  2        1.526   4.075  -0.993  0.00  0.00    -0.320 C 
ATOM      9  S   UNK A  2        3.136   3.499  -1.611  0.00  0.00    +2.430 S 
ATOM     10  C   UNK A  2        2.876   1.704  -1.704  0.00  0.00    -0.330 C 
ATOM     11  C   UNK A  2        2.399   1.189  -0.339  0.00  0.00    +0.360 C 
ATOM     12  O   UNK A  2        4.123   3.763  -0.623  0.00  0.00    -0.920 OA
ATOM     13  O   UNK A  2        3.321   3.999  -2.928  0.00  0.00    -0.920 OA
ATOM     14  O   UNK A  2       -0.018   4.830   1.577  0.00  0.00    -0.510 OA
ATOM     15  N   UNK A  2        1.145   1.882   0.001  0.00  0.00    -0.630 N 
ENDROOT
TORSDOF 0
ENDMDL
MODEL       63
REMARK  Name = ZINC000002082582
REMARK                            x       y       z     vdW  Elec       q    Type
REMARK                         _______ _______ _______ _____ _____    ______ ____
ROOT
ATOM      1  CA  LIG    1       -1.330   1.951   0.019  0.00  0.00    +0.110 C 
ENDROOT
BRANCH   1   3
ATOM      2  O   LIG    1        0.002  -0.004   0.002  0.00  0.00    -0.630 OA
ATOM      3  C   LIG    1       -0.015   1.215   0.009  0.00  0.00    +0.490 C 
ATOM      4  OXT LIG    1        1.033   1.839   0.002  0.00  0.00    -0.670 OA
ENDBRANCH   1   3
BRANCH   1   5
ATOM      5  N   LIG    1       -1.092   3.381  -0.215  0.00  0.00    -0.480 N 
ATOM      6  H1  LIG    1       -0.432   3.728   0.465  0.00  0.00    +0.420 HD
ATOM      7  H2  LIG    1       -1.962   3.885  -0.127  0.00  0.00    +0.410 HD
BRANCH   5   8
ATOM      8  C   LIG    1       -0.550   3.573  -1.567  0.00  0.00    +0.270 C 
BRANCH   8   9
ATOM      9  C   LIG    1       -0.303   5.063  -1.810  0.00  0.00    +0.030 C 
BRANCH   9  10
ATOM     10  C   LIG    1        0.262   5.263  -3.218  0.00  0.00    +0.190 C 
BRANCH  10  11
ATOM     11  O   LIG    1        0.493   6.655  -3.446  0.00  0.00    -0.570 OA
ATOM     12  H   LIG    1        0.852   6.856  -4.321  0.00  0.00    +0.390 HD
ENDBRANCH  10  11
ENDBRANCH   9  10
ENDBRANCH   8   9
ENDBRANCH   5   8
ENDBRANCH   1   5
BRANCH   1  13
ATOM     13  C   LIG    1       -2.009   1.762   1.377  0.00  0.00    +0.100 C 
BRANCH  13  14
ATOM     14  C   LIG    1       -3.377   2.393   1.346  0.00  0.00    +0.510 C 
ATOM     15  N   LIG    1       -4.164   2.350   2.439  0.00  0.00    -0.720 N 
ATOM     16  H   LIG    1       -3.850   1.912   3.246  0.00  0.00    +0.410 HD
ATOM     17  O   LIG    1       -3.770   2.940   0.337  0.00  0.00    -0.560 OA
BRANCH  15  18
ATOM     18  C   LIG    1       -5.494   2.963   2.409  0.00  0.00    +0.270 C 
BRANCH  18  19
ATOM     19  C   LIG    1       -6.174   2.774   3.767  0.00  0.00    +0.020 C 
BRANCH  19  20
ATOM     20  C   LIG    1       -7.562   3.415   3.736  0.00  0.00    +0.180 C 
BRANCH  20  21
ATOM     21  O   LIG    1       -8.197   3.239   5.004  0.00  0.00    -0.570 OA
ATOM     22  H   LIG    1       -9.084   3.621   5.057  0.00  0.00    +0.390 HD
ENDBRANCH  20  21
ENDBRANCH  19  20
ENDBRANCH  18  19
ENDBRANCH  15  18
ENDBRANCH  13  14
ENDBRANCH   1  13
TORSDOF 12
ENDMDL
MODEL       64
REMARK  Name = ZINC000390834919
REMARK                            x       y       z     vdW  Elec       q    Type
REMARK                         _______ _______ _______ _____ _____    ______ ____
ROOT
ATOM      1  O   GLY A  1        0.002  -0.004   0.002  0.00  0.00    -0.510 OA
ATOM      2  C   GLY A  1       -0.014   1.209   0.009  0.00  0.00    +0.520 C 
ATOM      3  CA  GLY A  1       -1.335   1.928   0.031  0.00  0.00    +0.330 C 
ATOM      4  N   GLY A  1       -1.246   3.167  -0.738  0.00  0.00    -0.720 N 
ATOM      5  H   GLY A  1       -2.046   3.528  -1.153  0.00  0.00    +0.420 HD
ATOM      6  C   UNK A  2       -0.080   3.816  -0.881  0.00  0.00    +0.530 C 
ATOM      7  C   UNK A  2        1.195   3.316  -0.287  0.00  0.00    +0.280 C 
ATOM      8  C   UNK A  2        1.555   4.064   0.998  0.00  0.00    -0.320 C 
ATOM      9  S   UNK A  2        3.182   3.480   1.564  0.00  0.00    +2.430 S 
ATOM     10  C   UNK A  2        2.923   1.685   1.644  0.00  0.00    -0.340 C 
ATOM     11  C   UNK A  2        2.408   1.185   0.287  0.00  0.00    +0.360 C 
ATOM     12  O   UNK A  2        3.405   3.966   2.880  0.00  0.00    -0.920 OA
ATOM     13  O   UNK A  2        4.140   3.755   0.551  0.00  0.00    -0.920 OA
ATOM     14  O   UNK A  2       -0.061   4.848  -1.518  0.00  0.00    -0.510 OA
ATOM     15  N   UNK A  2        1.145   1.882   0.001  0.00  0.00    -0.630 N 
ENDROOT
TORSDOF 0
ENDMDL
MODEL       65
REMARK  Name = ZINC000006119090
REMARK                            x       y       z     vdW  Elec       q    Type
REMARK                         _______ _______ _______ _____ _____    ______ ____
ROOT
ATOM      1  C1* LIG    1        2.419   1.167  -0.021  0.00  0.00    +0.410 C 
ATOM      2  O4* LIG    1        2.425   0.185  -1.079  0.00  0.00    -0.340 OA
ATOM      3  C4* LIG    1        3.422  -0.793  -0.739  0.00  0.00    +0.150 C 
ATOM      4  C3* LIG    1        3.559  -0.791   0.796  0.00  0.00    +0.140 C 
ATOM      5  C2* LIG    1        2.585   0.319   1.266  0.00  0.00    +0.180 C 
ENDROOT
BRANCH   1  12
ATOM      6  O   LIG    1        0.002  -0.004   0.002  0.00  0.00    -0.520 OA
ATOM      7  C   LIG    1       -0.015   1.215   0.009  0.00  0.00    +0.630 A 
ATOM      8  N   LIG    1       -1.185   1.857   0.029  0.00  0.00    -0.550 NA
ATOM      9  C   LIG    1       -1.233   3.174   0.037  0.00  0.00    +0.430 A 
ATOM     10  C   LIG    1       -0.046   3.913   0.024  0.00  0.00    -0.130 A 
ATOM     11  C   LIG    1        1.144   3.253   0.004  0.00  0.00    +0.370 A 
ATOM     12  N   LIG    1        1.148   1.895   0.001  0.00  0.00    -0.510 N 
ENDBRANCH   1  12
BRANCH   4  13
ATOM     13  O3* LIG    1        4.899  -0.474   1.178  0.00  0.00    -0.540 OA
ATOM     14  H3* LIG    1        5.559  -1.107   0.861  0.00  0.00    +0.390 HD
ENDBRANCH   4  13
BRANCH   5  15
ATOM     15  O2* LIG    1        3.162   1.090   2.322  0.00  0.00    -0.540 OA
ATOM     16  H2* LIG    1        3.366   0.578   3.116  0.00  0.00    +0.390 HD
ENDBRANCH   5  15
BRANCH   3  17
ATOM     17  C5* LIG    1        2.981  -2.175  -1.223  0.00  0.00    +0.200 C 
BRANCH  17  18
ATOM     18  O5* LIG    1        2.955  -2.193  -2.652  0.00  0.00    -0.560 OA
ATOM     19  H5* LIG    1        2.684  -3.041  -3.030  0.00  0.00    +0.380 HD
ENDBRANCH  17  18
ENDBRANCH   3  17
TORSDOF 5
ENDMDL
MODEL       66
REMARK  Name = ZINC000013813289
REMARK                            x       y       z     vdW  Elec       q    Type
REMARK                         _______ _______ _______ _____ _____    ______ ____
ROOT
ATOM      1  C1* LIG    1        2.419   1.167  -0.021  0.00  0.00    +0.410 C 
ATOM      2  O4* LIG    1        2.425   0.197  -1.090  0.00  0.00    -0.340 OA
ATOM      3  C4* LIG    1        3.444  -0.761  -0.730  0.00  0.00    +0.140 C 
ATOM      4  C3* LIG    1        3.274  -0.964   0.792  0.00  0.00    +0.130 C 
ATOM      5  C2* LIG    1        2.586   0.336   1.271  0.00  0.00    +0.170 C 
ENDROOT
BRANCH   1  12
ATOM      6  O   LIG    1        0.002  -0.004   0.002  0.00  0.00    -0.470 OA
ATOM      7  C   LIG    1       -0.015   1.215   0.009  0.00  0.00    +0.630 A 
ATOM      8  N   LIG    1       -1.185   1.857   0.029  0.00  0.00    -0.540 NA
ATOM      9  C   LIG    1       -1.233   3.174   0.037  0.00  0.00    +0.410 A 
ATOM     10  C   LIG    1       -0.046   3.913   0.024  0.00  0.00    -0.140 A 
ATOM     11  C   LIG    1        1.144   3.253   0.004  0.00  0.00    +0.350 A 
ATOM     12  N   LIG    1        1.148   1.895   0.001  0.00  0.00    -0.510 N 
ENDBRANCH   1  12
BRANCH   4  13
ATOM     13  O3* LIG    1        2.449  -2.099   1.057  0.00  0.00    -0.530 OA
ATOM     14  H3* LIG    1        2.808  -2.933   0.724  0.00  0.00    +0.380 HD
ENDBRANCH   4  13
BRANCH   5  15
ATOM     15  O2* LIG    1        1.312   0.045   1.847  0.00  0.00    -0.510 OA
ATOM     16  H2* LIG    1        1.354  -0.526   2.627  0.00  0.00    +0.380 HD
ENDBRANCH   5  15
BRANCH   3  17
ATOM     17  C5* LIG    1        3.223  -2.079  -1.474  0.00  0.00    +0.210 C 
BRANCH  17  18
ATOM     18  O5* LIG    1        3.428  -1.877  -2.873  0.00  0.00    -0.560 OA
ATOM     19  H5* LIG    1        3.305  -2.673  -3.408  0.00  0.00    +0.380 HD
ENDBRANCH  17  18
ENDBRANCH   3  17
TORSDOF 5
ENDMDL
MODEL       67
REMARK  Name = ZINC000001762925
REMARK                            x       y       z     vdW  Elec       q    Type
REMARK                         _______ _______ _______ _____ _____    ______ ____
ROOT
ATOM      1  C   LIG    1        0.597  -0.616  -1.067  0.00  0.00    -0.010 C 
ATOM      2  C   LIG    1        1.091   0.021  -2.147  0.00  0.00    -0.010 C 
ATOM      3  C   LIG    1        1.405  -1.045  -3.170  0.00  0.00    +0.190 C 
ATOM      4  O   LIG    1        1.049  -2.295  -2.571  0.00  0.00    -0.290 OA
ATOM      5  C   LIG    1        0.580  -2.049  -1.333  0.00  0.00    +0.530 C 
ATOM      6  O   LIG    1        0.190  -2.899  -0.553  0.00  0.00    -0.420 OA
ENDROOT
BRANCH   1   8
ATOM      7  C   LIG    1        0.181   1.411   0.111  0.00  0.00    +0.260 C 
ATOM      8  O   LIG    1        0.187  -0.018   0.087  0.00  0.00    -0.280 OA
ENDBRANCH   1   8
BRANCH   2   9
ATOM      9  O   LIG    1        1.269   1.353  -2.287  0.00  0.00    -0.290 OA
ATOM     10  C   LIG    1        2.614   1.817  -2.423  0.00  0.00    +0.250 C 
ENDBRANCH   2   9
BRANCH   3  11
ATOM     11  C   LIG    1        0.581  -0.815  -4.438  0.00  0.00    +0.240 C 
BRANCH  11  12
ATOM     12  O   LIG    1       -0.806  -0.752  -4.100  0.00  0.00    -0.540 OA
ATOM     13  H   LIG    1       -1.145  -1.555  -3.681  0.00  0.00    +0.380 HD
ENDBRANCH  11  12
BRANCH  11  14
ATOM     14  C   LIG    1        0.816  -1.969  -5.415  0.00  0.00    +0.160 C 
BRANCH  14  15
ATOM     15  O   LIG    1        0.139  -1.698  -6.644  0.00  0.00    -0.560 OA
ATOM     16  H   LIG    1        0.245  -2.390  -7.312  0.00  0.00    +0.390 HD
ENDBRANCH  14  15
ENDBRANCH  11  14
ENDBRANCH   3  11
TORSDOF 6
ENDMDL
MODEL       68
REMARK  Name = ZINC000001762930
REMARK                            x       y       z     vdW  Elec       q    Type
REMARK                         _______ _______ _______ _____ _____    ______ ____
ROOT
ATOM      1  C   LIG    1        0.604  -0.616  -1.064  0.00  0.00    -0.010 C 
ATOM      2  C   LIG    1        1.090   0.022  -2.147  0.00  0.00    -0.010 C 
ATOM      3  C   LIG    1        1.394  -1.044  -3.174  0.00  0.00    +0.190 C 
ATOM      4  O   LIG    1        1.041  -2.294  -2.574  0.00  0.00    -0.290 OA
ATOM      5  C   LIG    1        0.582  -2.050  -1.331  0.00  0.00    +0.530 C 
ATOM      6  O   LIG    1        0.197  -2.899  -0.550  0.00  0.00    -0.420 OA
ENDROOT
BRANCH   1   8
ATOM      7  C   LIG    1        0.204   1.409   0.121  0.00  0.00    +0.260 C 
ATOM      8  O   LIG    1        0.204  -0.019   0.094  0.00  0.00    -0.280 OA
ENDBRANCH   1   8
BRANCH   2   9
ATOM      9  O   LIG    1        1.269   1.353  -2.287  0.00  0.00    -0.280 OA
ATOM     10  C   LIG    1        0.480   2.013  -3.278  0.00  0.00    +0.250 C 
ENDBRANCH   2   9
BRANCH   3  11
ATOM     11  C   LIG    1        2.884  -1.029  -3.522  0.00  0.00    +0.240 C 
BRANCH  11  12
ATOM     12  O   LIG    1        3.653  -1.165  -2.325  0.00  0.00    -0.540 OA
ATOM     13  H   LIG    1        3.482  -1.983  -1.839  0.00  0.00    +0.380 HD
ENDBRANCH  11  12
BRANCH  11  14
ATOM     14  C   LIG    1        3.199  -2.190  -4.466  0.00  0.00    +0.160 C 
BRANCH  14  15
ATOM     15  O   LIG    1        4.564  -2.108  -4.883  0.00  0.00    -0.560 OA
ATOM     16  H   LIG    1        4.834  -2.815  -5.485  0.00  0.00    +0.390 HD
ENDBRANCH  14  15
ENDBRANCH  11  14
ENDBRANCH   3  11
TORSDOF 6
ENDMDL
MODEL       69
REMARK  Name = ZINC000001762928
REMARK                            x       y       z     vdW  Elec       q    Type
REMARK                         _______ _______ _______ _____ _____    ______ ____
ROOT
ATOM      1  C   LIG    1        0.620  -0.692  -0.999  0.00  0.00    -0.150 C 
ATOM      2  C   LIG    1        1.299  -0.141  -2.025  0.00  0.00    +0.120 C 
ATOM      3  C   LIG    1        1.817  -1.287  -2.863  0.00  0.00    +0.230 C 
ATOM      4  O   LIG    1        1.373  -2.487  -2.221  0.00  0.00    -0.300 OA
ATOM      5  C   LIG    1        0.675  -2.144  -1.122  0.00  0.00    +0.500 C 
ATOM      6  O   LIG    1        0.158  -2.930  -0.350  0.00  0.00    -0.440 OA
ENDROOT
BRANCH   1   8
ATOM      7  C   LIG    1       -1.433  -0.111   0.057  0.00  0.00    +0.230 C 
ATOM      8  O   LIG    1       -0.009  -0.004  -0.005  0.00  0.00    -0.290 OA
ENDBRANCH   1   8
BRANCH   2   9
ATOM      9  O   LIG    1        1.481   1.177  -2.258  0.00  0.00    -0.260 OA
ATOM     10  C   LIG    1        0.997   2.084  -1.265  0.00  0.00    +0.270 C 
ENDBRANCH   2   9
BRANCH   3  11
ATOM     11  C   LIG    1        1.243  -1.204  -4.279  0.00  0.00    +0.230 C 
BRANCH  11  12
ATOM     12  O   LIG    1        1.636   0.032  -4.879  0.00  0.00    -0.530 OA
ATOM     13  H   LIG    1        2.593   0.148  -4.952  0.00  0.00    +0.380 HD
ENDBRANCH  11  12
BRANCH  11  14
ATOM     14  C   LIG    1        1.776  -2.369  -5.114  0.00  0.00    +0.180 C 
BRANCH  14  15
ATOM     15  O   LIG    1        1.152  -2.358  -6.400  0.00  0.00    -0.560 OA
ATOM     16  H   LIG    1        1.443  -3.071  -6.984  0.00  0.00    +0.390 HD
ENDBRANCH  14  15
ENDBRANCH  11  14
ENDBRANCH   3  11
TORSDOF 6
ENDMDL
MODEL       70
REMARK  Name = ZINC000001762927
REMARK                            x       y       z     vdW  Elec       q    Type
REMARK                         _______ _______ _______ _____ _____    ______ ____
ROOT
ATOM      1  C   LIG    1        0.620  -0.692  -0.999  0.00  0.00    -0.150 C 
ATOM      2  C   LIG    1        1.299  -0.141  -2.025  0.00  0.00    +0.120 C 
ATOM      3  C   LIG    1        1.817  -1.287  -2.863  0.00  0.00    +0.230 C 
ATOM      4  O   LIG    1        1.373  -2.487  -2.221  0.00  0.00    -0.300 OA
ATOM      5  C   LIG    1        0.675  -2.144  -1.122  0.00  0.00    +0.500 C 
ATOM      6  O   LIG    1        0.158  -2.930  -0.350  0.00  0.00    -0.440 OA
ENDROOT
BRANCH   1   8
ATOM      7  C   LIG    1       -1.433  -0.111   0.057  0.00  0.00    +0.230 C 
ATOM      8  O   LIG    1       -0.009  -0.004  -0.005  0.00  0.00    -0.290 OA
ENDBRANCH   1   8
BRANCH   2   9
ATOM      9  O   LIG    1        1.481   1.177  -2.258  0.00  0.00    -0.260 OA
ATOM     10  C   LIG    1        0.997   2.084  -1.265  0.00  0.00    +0.270 C 
ENDBRANCH   2   9
BRANCH   3  11
ATOM     11  C   LIG    1        3.346  -1.252  -2.914  0.00  0.00    +0.230 C 
BRANCH  11  12
ATOM     12  O   LIG    1        3.774  -0.017  -3.491  0.00  0.00    -0.530 OA
ATOM     13  H   LIG    1        3.455   0.128  -4.392  0.00  0.00    +0.380 HD
ENDBRANCH  11  12
BRANCH  11  14
ATOM     14  C   LIG    1        3.855  -2.416  -3.765  0.00  0.00    +0.180 C 
BRANCH  14  15
ATOM     15  O   LIG    1        5.282  -2.453  -3.718  0.00  0.00    -0.560 OA
ATOM     16  H   LIG    1        5.675  -3.168  -4.237  0.00  0.00    +0.390 HD
ENDBRANCH  14  15
ENDBRANCH  11  14
ENDBRANCH   3  11
TORSDOF 6
ENDMDL
MODEL       71
REMARK  Name = ZINC000005273940
REMARK                            x       y       z     vdW  Elec       q    Type
REMARK                         _______ _______ _______ _____ _____    ______ ____
ROOT
ATOM      1  C   THR A  1        0.739  -2.004  -1.265  0.00  0.00    +0.500 C 
ATOM      2  N   GLN A  2        1.649  -2.670  -0.527  0.00  0.00    -0.650 N 
ATOM      3  H   GLN A  2        2.291  -2.179   0.009  0.00  0.00    +0.400 HD
ATOM      4  O   THR A  1       -0.064  -2.618  -1.936  0.00  0.00    -0.540 OA
ENDROOT
BRANCH   1   5
ATOM      5  CA  THR A  1        0.718  -0.497  -1.257  0.00  0.00    +0.130 C 
BRANCH   5   6
ATOM      6  N   THR A  1        0.008  -0.011  -2.447  0.00  0.00    -0.610 N 
ATOM      7  H1  THR A  1       -0.939  -0.360  -2.440  0.00  0.00    +0.440 HD
ATOM      8  H2  THR A  1        0.480  -0.336  -3.277  0.00  0.00    +0.440 HD
ATOM      9  H3  THR A  1       -0.006   0.998  -2.441  0.00  0.00    +0.430 HD
ENDBRANCH   5   6
BRANCH   5  11
ATOM     10  CG2 THR A  1       -0.019   1.526   0.010  0.00  0.00    +0.040 C 
ATOM     11  CB  THR A  1        0.002  -0.004   0.002  0.00  0.00    +0.230 C 
BRANCH  11  12
ATOM     12  OG1 THR A  1        0.693  -0.477   1.160  0.00  0.00    -0.500 OA
ATOM     13  HG1 THR A  1        1.611  -0.180   1.219  0.00  0.00    +0.380 HD
ENDBRANCH  11  12
ENDBRANCH   5  11
ENDBRANCH   1   5
BRANCH   2  14
ATOM     14  CA  GLN A  2        1.669  -4.135  -0.535  0.00  0.00    +0.160 C 
BRANCH  14  15
ATOM     15  C   GLN A  2        0.681  -4.656   0.476  0.00  0.00    +0.490 C 
ATOM     16  OXT GLN A  2        0.541  -5.858   0.629  0.00  0.00    -0.680 OA
ATOM     17  O   GLN A  2        0.021  -3.876   1.142  0.00  0.00    -0.680 OA
ENDBRANCH  14  15
BRANCH  14  18
ATOM     18  CB  GLN A  2        3.072  -4.628  -0.178  0.00  0.00    +0.070 C 
BRANCH  18  19
ATOM     19  CG  GLN A  2        4.056  -4.204  -1.271  0.00  0.00    +0.030 C 
BRANCH  19  20
ATOM     20  CD  GLN A  2        5.438  -4.689  -0.919  0.00  0.00    +0.510 C 
ATOM     21  OE1 GLN A  2        5.619  -5.313   0.105  0.00  0.00    -0.530 OA
ATOM     22  NE2 GLN A  2        6.473  -4.430  -1.742  0.00  0.00    -0.860 N 
ATOM     23 HE21 GLN A  2        7.363  -4.743  -1.516  0.00  0.00    +0.400 HD
ATOM     24 HE22 GLN A  2        6.328  -3.931  -2.561  0.00  0.00    +0.400 HD
ENDBRANCH  19  20
ENDBRANCH  18  19
ENDBRANCH  14  18
ENDBRANCH   2  14
TORSDOF 9
ENDMDL
MODEL       72
REMARK  Name = ZINC000018181336
REMARK                            x       y       z     vdW  Elec       q    Type
REMARK                         _______ _______ _______ _____ _____    ______ ____
ROOT
ATOM      1  C   LIG    1        0.739  -2.004  -1.265  0.00  0.00    +0.020 C 
ATOM      2  N   LIG    1        0.190  -2.647  -0.293  0.00  0.00    -0.340 NA
ATOM      3  C   LIG    1        0.207  -4.008  -0.231  0.00  0.00    -0.220 A 
ATOM      4  C   LIG    1        1.056  -4.737  -1.076  0.00  0.00    +0.470 A 
ATOM      5  N   LIG    1        1.875  -4.038  -1.943  0.00  0.00    -0.700 N 
ATOM      6  H   LIG    1        2.729  -4.397  -2.231  0.00  0.00    +0.420 HD
ATOM      7  N   LIG    1        1.065  -6.067  -1.025  0.00  0.00    -0.610 NA
ATOM      8  C   LIG    1        0.298  -6.717  -0.172  0.00  0.00    +0.680 A 
ATOM      9  N   LIG    1       -0.530  -6.064   0.689  0.00  0.00    -0.660 N 
ATOM     10  H   LIG    1       -1.078  -6.571   1.308  0.00  0.00    +0.420 HD
ATOM     11  C   LIG    1       -0.595  -4.715   0.686  0.00  0.00    +0.580 A 
ATOM     12  O   LIG    1       -1.331  -4.123   1.458  0.00  0.00    -0.510 OA
ATOM     13  C   LIG    1        1.395  -2.726  -2.414  0.00  0.00    +0.310 C 
ENDROOT
BRANCH   8  14
ATOM     14  N   LIG    1        0.335  -8.085  -0.151  0.00  0.00    -0.810 N 
ATOM     15  H   LIG    1       -0.224  -8.576   0.471  0.00  0.00    +0.420 HD
ATOM     16  H   LIG    1        0.921  -8.563  -0.758  0.00  0.00    +0.430 HD
ENDBRANCH   8  14
BRANCH   1  17
ATOM     17  C   LIG    1        0.718  -0.497  -1.257  0.00  0.00    +0.250 C 
BRANCH  17  19
ATOM     18  C   LIG    1       -0.019   1.526   0.010  0.00  0.00    +0.010 C 
ATOM     19  C   LIG    1        0.002  -0.004   0.002  0.00  0.00    +0.190 C 
BRANCH  19  20
ATOM     20  O   LIG    1        0.693  -0.477   1.160  0.00  0.00    -0.530 OA
ATOM     21  H   LIG    1        1.611  -0.180   1.219  0.00  0.00    +0.360 HD
ENDBRANCH  19  20
ENDBRANCH  17  19
BRANCH  17  22
ATOM     22  O   LIG    1        0.027  -0.024  -2.414  0.00  0.00    -0.550 OA
ATOM     23  H   LIG    1       -0.891  -0.322  -2.473  0.00  0.00    +0.380 HD
ENDBRANCH  17  22
ENDBRANCH   1  17
TORSDOF 5
ENDMDL
MODEL       73
REMARK  Name = ZINC000018275062
REMARK                            x       y       z     vdW  Elec       q    Type
REMARK                         _______ _______ _______ _____ _____    ______ ____
ROOT
ATOM      1  C   LIG    1        0.739  -2.004  -1.265  0.00  0.00    +0.000 A 
ATOM      2  C   LIG    1        0.232  -2.695  -2.361  0.00  0.00    +0.330 A 
ATOM      3  N   LIG    1        0.241  -4.013  -2.389  0.00  0.00    -0.440 NA
ATOM      4  C   LIG    1        0.740  -4.691  -1.355  0.00  0.00    +0.360 A 
ATOM      5  N   LIG    1        0.767  -6.037  -1.344  0.00  0.00    -0.580 NA
ATOM      6  C   LIG    1        1.257  -6.708  -0.331  0.00  0.00    +0.670 A 
ATOM      7  N   LIG    1        1.772  -6.110   0.781  0.00  0.00    -0.670 N 
ATOM      8  H   LIG    1        2.122  -6.654   1.503  0.00  0.00    +0.420 HD
ATOM      9  C   LIG    1        1.798  -4.761   0.883  0.00  0.00    +0.580 A 
ATOM     10  O   LIG    1        2.253  -4.210   1.868  0.00  0.00    -0.470 OA
ATOM     11  C   LIG    1        1.253  -3.983  -0.244  0.00  0.00    -0.070 A 
ATOM     12  N   LIG    1        1.241  -2.657  -0.236  0.00  0.00    -0.310 NA
ENDROOT
BRANCH   6  13
ATOM     13  N   LIG    1        1.251  -8.078  -0.392  0.00  0.00    -0.810 N 
ATOM     14  H   LIG    1        1.608  -8.597   0.346  0.00  0.00    +0.420 HD
ATOM     15  H   LIG    1        0.890  -8.527  -1.172  0.00  0.00    +0.430 HD
ENDBRANCH   6  13
BRANCH   1  16
ATOM     16  C   LIG    1        0.718  -0.497  -1.257  0.00  0.00    +0.310 C 
BRANCH  16  18
ATOM     17  C   LIG    1       -0.019   1.526   0.010  0.00  0.00    +0.020 C 
ATOM     18  C   LIG    1        0.002  -0.004   0.002  0.00  0.00    +0.130 C 
BRANCH  18  19
ATOM     19  O   LIG    1        0.693  -0.477   1.160  0.00  0.00    -0.540 OA
ATOM     20  H   LIG    1        0.294  -0.202   1.996  0.00  0.00    +0.380 HD
ENDBRANCH  18  19
ENDBRANCH  16  18
BRANCH  16  21
ATOM     21  O   LIG    1        0.027  -0.024  -2.414  0.00  0.00    -0.540 OA
ATOM     22  H   LIG    1       -0.891  -0.322  -2.473  0.00  0.00    +0.380 HD
ENDBRANCH  16  21
ENDBRANCH   1  16
TORSDOF 5
ENDMDL
MODEL       74
REMARK  Name = ZINC000013585233
REMARK                            x       y       z     vdW  Elec       q    Type
REMARK                         _______ _______ _______ _____ _____    ______ ____
ROOT
ATOM      1  C   LIG    1        0.763  -2.041   1.233  0.00  0.00    +0.200 C 
ATOM      2  C   LIG    1        1.488  -2.558   2.485  0.00  0.00    +0.300 C 
ATOM      3  N   LIG    1        0.712  -2.152   3.665  0.00  0.00    -0.730 N 
ATOM      4  H   LIG    1        1.156  -1.773   4.439  0.00  0.00    +0.400 HD
ATOM      5  C   LIG    1       -0.659  -2.320   3.659  0.00  0.00    +0.320 A 
ATOM      6  C   LIG    1       -1.324  -2.517   2.483  0.00  0.00    -0.030 A 
ATOM      7  C   LIG    1       -2.724  -2.680   2.507  0.00  0.00    +0.540 A 
ATOM      8  N   LIG    1       -3.373  -2.641   3.683  0.00  0.00    -0.630 NA
ATOM      9  C   LIG    1       -2.721  -2.453   4.810  0.00  0.00    +0.650 A 
ATOM     10  O   LIG    1       -3.343  -2.855   1.466  0.00  0.00    -0.530 OA
ATOM     11  N   LIG    1       -1.370  -2.290   4.830  0.00  0.00    -0.640 N 
ATOM     12  H   LIG    1       -0.911  -2.153   5.674  0.00  0.00    +0.410 HD
ATOM     13  N   LIG    1       -0.615  -2.558   1.262  0.00  0.00    -0.700 N 
ATOM     14  H   LIG    1       -1.027  -2.918   0.461  0.00  0.00    +0.410 HD
ENDROOT
BRANCH   9  15
ATOM     15  N   LIG    1       -3.419  -2.420   5.990  0.00  0.00    -0.830 N 
ATOM     16  H   LIG    1       -2.949  -2.282   6.828  0.00  0.00    +0.410 HD
ATOM     17  H   LIG    1       -4.382  -2.535   5.988  0.00  0.00    +0.430 HD
ENDBRANCH   9  15
BRANCH   1  18
ATOM     18  C   LIG    1        0.742  -0.511   1.242  0.00  0.00    +0.200 C 
BRANCH  18  20
ATOM     19  C   LIG    1       -0.019   1.526   0.010  0.00  0.00    +0.010 C 
ATOM     20  C   LIG    1        0.002  -0.004   0.002  0.00  0.00    +0.120 C 
BRANCH  20  21
ATOM     21  O   LIG    1       -1.339  -0.499   0.012  0.00  0.00    -0.540 OA
ATOM     22  H   LIG    1       -1.868  -0.216  -0.746  0.00  0.00    +0.370 HD
ENDBRANCH  20  21
ENDBRANCH  18  20
BRANCH  18  23
ATOM     23  O   LIG    1        2.083  -0.016   1.231  0.00  0.00    -0.550 OA
ATOM     24  H   LIG    1        2.597  -0.290   0.460  0.00  0.00    +0.370 HD
ENDBRANCH  18  23
ENDBRANCH   1  18
TORSDOF 5
ENDMDL
MODEL       75
REMARK  Name = ZINC000002539827
REMARK                            x       y       z     vdW  Elec       q    Type
REMARK                         _______ _______ _______ _____ _____    ______ ____
ROOT
ATOM      1  C   LIG    1        0.763  -2.041   1.233  0.00  0.00    +0.220 C 
ATOM      2  C   LIG    1        1.521  -2.557   2.466  0.00  0.00    +0.290 C 
ATOM      3  N   LIG    1        2.919  -2.115   2.363  0.00  0.00    -0.710 N 
ATOM      4  H   LIG    1        3.372  -1.735   3.131  0.00  0.00    +0.400 HD
ATOM      5  C   LIG    1        3.580  -2.249   1.158  0.00  0.00    +0.360 A 
ATOM      6  C   LIG    1        2.877  -2.447   0.004  0.00  0.00    -0.080 A 
ATOM      7  C   LIG    1        3.578  -2.574  -1.212  0.00  0.00    +0.540 A 
ATOM      8  N   LIG    1        4.919  -2.502  -1.211  0.00  0.00    -0.630 NA
ATOM      9  C   LIG    1        5.587  -2.313  -0.093  0.00  0.00    +0.660 A 
ATOM     10  O   LIG    1        2.971  -2.750  -2.260  0.00  0.00    -0.530 OA
ATOM     11  N   LIG    1        4.948  -2.184   1.102  0.00  0.00    -0.640 N 
ATOM     12  H   LIG    1        5.461  -2.045   1.914  0.00  0.00    +0.410 HD
ATOM     13  N   LIG    1        1.466  -2.523   0.033  0.00  0.00    -0.730 N 
ATOM     14  H   LIG    1        0.973  -2.884  -0.720  0.00  0.00    +0.410 HD
ENDROOT
BRANCH   9  15
ATOM     15  N   LIG    1        6.956  -2.246  -0.132  0.00  0.00    -0.820 N 
ATOM     16  H   LIG    1        7.458  -2.107   0.686  0.00  0.00    +0.410 HD
ATOM     17  H   LIG    1        7.422  -2.337  -0.978  0.00  0.00    +0.430 HD
ENDBRANCH   9  15
BRANCH   1  18
ATOM     18  C   LIG    1        0.742  -0.511   1.242  0.00  0.00    +0.220 C 
BRANCH  18  20
ATOM     19  C   LIG    1       -0.019   1.526   0.010  0.00  0.00    +0.010 C 
ATOM     20  C   LIG    1        0.002  -0.004   0.002  0.00  0.00    +0.130 C 
BRANCH  20  21
ATOM     21  O   LIG    1       -1.339  -0.499   0.012  0.00  0.00    -0.570 OA
ATOM     22  H   LIG    1       -1.868  -0.216  -0.746  0.00  0.00    +0.380 HD
ENDBRANCH  20  21
ENDBRANCH  18  20
BRANCH  18  23
ATOM     23  O   LIG    1        2.083  -0.016   1.231  0.00  0.00    -0.550 OA
ATOM     24  H   LIG    1        2.597  -0.290   0.460  0.00  0.00    +0.370 HD
ENDBRANCH  18  23
ENDBRANCH   1  18
TORSDOF 5
ENDMDL
MODEL       76
REMARK  Name = ZINC000065492924
REMARK                            x       y       z     vdW  Elec       q    Type
REMARK                         _______ _______ _______ _____ _____    ______ ____
ROOT
ATOM      1  N   LIG    1        0.634  -1.958  -1.325  0.00  0.00    -0.740 N 
ATOM      2  H   LIG    1        0.172  -2.451  -0.629  0.00  0.00    +0.400 HD
ATOM      3  C   LIG    1        1.198  -2.618  -2.356  0.00  0.00    +0.710 C 
ATOM      4  N   LIG    1        1.121  -3.962  -2.420  0.00  0.00    -0.660 N 
ATOM      5  H   LIG    1        0.659  -4.455  -1.723  0.00  0.00    +0.410 HD
ATOM      6  O   LIG    1        1.778  -2.001  -3.229  0.00  0.00    -0.580 OA
ENDROOT
BRANCH   4   7
ATOM      7  C   LIG    1        1.711  -4.652  -3.497  0.00  0.00    +0.030 A 
ATOM      8  C   LIG    1        1.703  -5.996  -3.686  0.00  0.00    +0.190 A 
ATOM      9  N   LIG    1        2.377  -6.252  -4.838  0.00  0.00    -0.370 N 
ATOM     10  N   LIG    1        2.807  -5.028  -5.365  0.00  0.00    -0.250 NA
ATOM     11  C   LIG    1        2.406  -4.071  -4.568  0.00  0.00    +0.260 A 
BRANCH   9  12
ATOM     12  C   LIG    1        2.611  -7.574  -5.424  0.00  0.00    +0.370 C 
BRANCH  12  13
ATOM     13  C   LIG    1        2.103  -7.590  -6.843  0.00  0.00    +0.500 C 
ATOM     14  O   LIG    1        1.596  -6.596  -7.318  0.00  0.00    -0.510 OA
ATOM     15  N   LIG    1        2.213  -8.710  -7.585  0.00  0.00    -0.850 N 
ATOM     16  H   LIG    1        1.886  -8.721  -8.498  0.00  0.00    +0.410 HD
ATOM     17  H   LIG    1        2.619  -9.506  -7.205  0.00  0.00    +0.400 HD
ENDBRANCH  12  13
ENDBRANCH   9  12
ENDBRANCH   4   7
BRANCH   1  18
ATOM     18  C   LIG    1        0.718  -0.497  -1.257  0.00  0.00    +0.260 C 
BRANCH  18  20
ATOM     19  C   LIG    1       -0.019   1.526   0.010  0.00  0.00    +0.020 C 
ATOM     20  C   LIG    1        0.002  -0.004   0.002  0.00  0.00    +0.200 C 
BRANCH  20  21
ATOM     21  O   LIG    1        0.693  -0.477   1.160  0.00  0.00    -0.560 OA
ATOM     22  H   LIG    1        1.611  -0.180   1.219  0.00  0.00    +0.380 HD
ENDBRANCH  20  21
ENDBRANCH  18  20
ENDBRANCH   1  18
TORSDOF 6
ENDMDL
MODEL       77
REMARK  Name = ZINC000065492927
REMARK                            x       y       z     vdW  Elec       q    Type
REMARK                         _______ _______ _______ _____ _____    ______ ____
ROOT
ATOM      1  N   LIG    1       -1.413  -1.998   0.005  0.00  0.00    -0.740 N 
ATOM      2  H   LIG    1       -0.567  -2.472  -0.006  0.00  0.00    +0.400 HD
ATOM      3  C   LIG    1       -2.571  -2.688   0.012  0.00  0.00    +0.710 C 
ATOM      4  N   LIG    1       -2.553  -4.036   0.005  0.00  0.00    -0.660 N 
ATOM      5  H   LIG    1       -1.707  -4.509  -0.006  0.00  0.00    +0.410 HD
ATOM      6  O   LIG    1       -3.632  -2.095   0.025  0.00  0.00    -0.580 OA
ENDROOT
BRANCH   4   7
ATOM      7  C   LIG    1       -3.763  -4.757   0.012  0.00  0.00    +0.030 A 
ATOM      8  C   LIG    1       -3.888  -6.108   0.012  0.00  0.00    +0.190 A 
ATOM      9  N   LIG    1       -5.216  -6.397   0.022  0.00  0.00    -0.370 N 
ATOM     10  N   LIG    1       -5.919  -5.186   0.028  0.00  0.00    -0.250 NA
ATOM     11  C   LIG    1       -5.053  -4.205   0.028  0.00  0.00    +0.260 A 
BRANCH   9  12
ATOM     12  C   LIG    1       -5.807  -7.737   0.025  0.00  0.00    +0.370 C 
BRANCH  12  13
ATOM     13  C   LIG    1       -6.746  -7.869   1.196  0.00  0.00    +0.500 C 
ATOM     14  O   LIG    1       -6.907  -6.935   1.953  0.00  0.00    -0.510 OA
ATOM     15  N   LIG    1       -7.409  -9.025   1.402  0.00  0.00    -0.850 N 
ATOM     16  H   LIG    1       -8.013  -9.110   2.155  0.00  0.00    +0.410 HD
ATOM     17  H   LIG    1       -7.280  -9.771   0.796  0.00  0.00    +0.400 HD
ENDBRANCH  12  13
ENDBRANCH   9  12
ENDBRANCH   4   7
BRANCH   1  18
ATOM     18  C   LIG    1       -1.433  -0.534   0.013  0.00  0.00    +0.260 C 
BRANCH  18  20
ATOM     19  C   LIG    1       -0.019   1.526   0.010  0.00  0.00    +0.020 C 
ATOM     20  C   LIG    1        0.002  -0.004   0.002  0.00  0.00    +0.200 C 
BRANCH  20  21
ATOM     21  O   LIG    1        0.693  -0.477   1.160  0.00  0.00    -0.560 OA
ATOM     22  H   LIG    1        0.294  -0.202   1.996  0.00  0.00    +0.380 HD
ENDBRANCH  20  21
ENDBRANCH  18  20
ENDBRANCH   1  18
TORSDOF 6
ENDMDL
MODEL       78
REMARK  Name = ZINC000050395609
REMARK                            x       y       z     vdW  Elec       q    Type
REMARK                         _______ _______ _______ _____ _____    ______ ____
ROOT
ATOM      1  N   LIG    1       -1.117   4.220   1.248  0.00  0.00    -0.650 NA
ATOM      2  H   LIG    1       -1.149   4.069   2.245  0.00  0.00    +0.360 HD
ENDROOT
BRANCH   1   6
ATOM      3  O   LIG    1       -2.751   0.031   0.589  0.00  0.00    -0.480 OA
ATOM      4  C   LIG    1       -2.514   1.201   0.376  0.00  0.00    +0.540 C 
ATOM      5  C   LIG    1       -2.712   2.329   1.365  0.00  0.00    +0.100 C 
ATOM      6  C   LIG    1       -2.260   3.579   0.583  0.00  0.00    +0.160 C 
ATOM      7  C   LIG    1       -1.853   3.026  -0.765  0.00  0.00    +0.540 C 
ATOM      8  O   LIG    1       -1.429   3.680  -1.694  0.00  0.00    -0.470 OA
ATOM      9  N   LIG    1       -2.029   1.698  -0.768  0.00  0.00    -0.680 N 
ATOM     10  H   LIG    1       -1.829   1.144  -1.538  0.00  0.00    +0.420 HD
ENDBRANCH   1   6
BRANCH   1  11
ATOM     11  C   LIG    1       -1.062   5.654   0.935  0.00  0.00    +0.200 C 
ATOM     12  C   LIG    1       -1.953   6.423   1.913  0.00  0.00    +0.000 C 
ATOM     13  C   LIG    1       -1.670   7.921   1.750  0.00  0.00    +0.040 C 
ATOM     14  C   LIG    1       -0.250   8.208   2.239  0.00  0.00    +0.260 C 
ATOM     15  N   LIG    1        0.698   7.291   1.618  0.00  0.00    -0.720 N 
ATOM     16  H   LIG    1        1.636   7.538   1.618  0.00  0.00    +0.400 HD
ATOM     17  C   LIG    1        0.356   6.135   1.050  0.00  0.00    +0.520 C 
ATOM     18  O   LIG    1        1.237   5.434   0.601  0.00  0.00    -0.520 OA
ENDBRANCH   1  11
TORSDOF 2
ENDMDL
MODEL       79
REMARK  Name = ZINC000050395610
REMARK                            x       y       z     vdW  Elec       q    Type
REMARK                         _______ _______ _______ _____ _____    ______ ____
ROOT
ATOM      1  N   LIG    1       -1.117   4.220   1.248  0.00  0.00    -0.640 NA
ATOM      2  H   LIG    1       -2.015   3.892   1.573  0.00  0.00    +0.360 HD
ENDROOT
BRANCH   1   6
ATOM      3  O   LIG    1        0.002  -0.004   0.002  0.00  0.00    -0.480 OA
ATOM      4  C   LIG    1       -0.014   1.208   0.009  0.00  0.00    +0.540 C 
ATOM      5  C   LIG    1       -1.260   2.068   0.032  0.00  0.00    +0.100 C 
ATOM      6  C   LIG    1       -0.705   3.507   0.032  0.00  0.00    +0.170 C 
ATOM      7  C   LIG    1        0.795   3.309   0.009  0.00  0.00    +0.540 C 
ATOM      8  O   LIG    1        1.620   4.197   0.002  0.00  0.00    -0.470 OA
ATOM      9  N   LIG    1        1.066   1.998   0.003  0.00  0.00    -0.680 N 
ATOM     10  H   LIG    1        1.971   1.650  -0.012  0.00  0.00    +0.420 HD
ENDBRANCH   1   6
BRANCH   1  11
ATOM     11  C   LIG    1       -1.135   5.672   1.027  0.00  0.00    +0.190 C 
ATOM     12  C   LIG    1       -0.941   6.392   2.364  0.00  0.00    +0.060 C 
ATOM     13  C   LIG    1       -1.236   7.883   2.158  0.00  0.00    +0.030 C 
ATOM     14  C   LIG    1       -2.727   8.050   1.860  0.00  0.00    +0.260 C 
ATOM     15  N   LIG    1       -3.138   7.148   0.791  0.00  0.00    -0.710 N 
ATOM     16  H   LIG    1       -3.963   7.346   0.322  0.00  0.00    +0.400 HD
ATOM     17  C   LIG    1       -2.451   6.068   0.421  0.00  0.00    +0.490 C 
ATOM     18  O   LIG    1       -2.912   5.367  -0.455  0.00  0.00    -0.560 OA
ENDBRANCH   1  11
TORSDOF 2
ENDMDL
MODEL       80
REMARK  Name = ZINC000019319770
REMARK                            x       y       z     vdW  Elec       q    Type
REMARK                         _______ _______ _______ _____ _____    ______ ____
ROOT
ATOM      1  N   LIG    1       -1.237   1.898   0.018  0.00  0.00    -0.560 N 
ATOM      2  C   LIG    1       -1.281   3.368   0.020  0.00  0.00    +0.510 C 
ATOM      3  N   LIG    1       -2.177   3.806   1.102  0.00  0.00    -0.530 NA
ATOM      4  C   LIG    1       -3.493   3.162   0.987  0.00  0.00    +0.440 C 
ATOM      5  N   LIG    1       -3.352   1.704   1.109  0.00  0.00    -0.530 NA
ATOM      6  C   LIG    1       -2.807   1.338   2.425  0.00  0.00    +0.510 C 
ATOM      7  N   LIG    1       -1.559   2.087   2.638  0.00  0.00    -0.560 N 
ATOM      8  C   LIG    1       -1.576   3.541   2.419  0.00  0.00    +0.510 C 
ATOM      9  C   LIG    1       -2.513   1.166   0.020  0.00  0.00    +0.510 C 
ENDROOT
BRANCH   1  11
ATOM     10  O   LIG    1        0.002  -0.004   0.002  0.00  0.00    -0.190 OA
ATOM     11  N   LIG    1       -0.014   1.214   0.009  0.00  0.00    +0.210 N 
ATOM     12  O   LIG    1        1.032   1.837   0.002  0.00  0.00    -0.190 OA
ENDBRANCH   1  11
BRANCH   7  13
ATOM     13  N   LIG    1       -0.386   1.433   3.038  0.00  0.00    +0.210 N 
ATOM     14  O   LIG    1        0.638   2.070   3.209  0.00  0.00    -0.190 OA
ATOM     15  O   LIG    1       -0.391   0.228   3.214  0.00  0.00    -0.190 OA
ENDBRANCH   7  13
TORSDOF 2
ENDMDL
MODEL       81
REMARK  Name = ZINC000257355273
REMARK                            x       y       z     vdW  Elec       q    Type
REMARK                         _______ _______ _______ _____ _____    ______ ____
ROOT
ATOM      1  C   LIG    1       -2.571  -2.688   0.012  0.00  0.00    +0.180 C 
ATOM      2  O   LIG    1       -3.240  -2.228   1.188  0.00  0.00    -0.390 OA
ATOM      3  C   LIG    1       -4.603  -2.646   1.286  0.00  0.00    +0.300 C 
ATOM      4  C   LIG    1       -4.664  -4.175   1.329  0.00  0.00    +0.140 C 
ATOM      5  C   LIG    1       -3.989  -4.742   0.076  0.00  0.00    +0.160 C 
ATOM      6  C   LIG    1       -2.551  -4.219   0.004  0.00  0.00    +0.180 C 
ENDROOT
BRANCH   5   7
ATOM      7  O   LIG    1       -3.978  -6.169   0.143  0.00  0.00    -0.550 OA
ATOM      8  H   LIG    1       -4.858  -6.567   0.197  0.00  0.00    +0.390 HD
ENDBRANCH   5   7
BRANCH   4   9
ATOM      9  O   LIG    1       -3.985  -4.647   2.494  0.00  0.00    -0.540 OA
ATOM     10  H   LIG    1       -4.358  -4.324   3.325  0.00  0.00    +0.390 HD
ENDBRANCH   4   9
BRANCH   3  11
ATOM     11  O   LIG    1       -5.182  -2.112   2.478  0.00  0.00    -0.540 OA
ATOM     12  H   LIG    1       -5.176  -1.146   2.519  0.00  0.00    +0.400 HD
ENDBRANCH   3  11
BRANCH   6  13
ATOM     13  O   LIG    1       -1.933  -4.684  -1.198  0.00  0.00    -0.560 OA
ATOM     14  H   LIG    1       -1.891  -5.647  -1.271  0.00  0.00    +0.390 HD
ENDBRANCH   6  13
BRANCH   1  15
ATOM     15  C   LIG    1       -1.136  -2.159   0.001  0.00  0.00    +0.310 C 
BRANCH  15  18
ATOM     16  C   LIG    1       -0.018   1.503   0.010  0.00  0.00    +0.100 C 
ATOM     17  C   LIG    1        0.002  -0.004   0.002  0.00  0.00    +0.510 C 
ATOM     18  N   LIG    1       -1.156  -0.694   0.009  0.00  0.00    -0.730 N 
ATOM     19  H   LIG    1       -2.002  -0.220   0.020  0.00  0.00    +0.400 HD
ATOM     20  O   LIG    1        1.060  -0.596  -0.011  0.00  0.00    -0.540 OA
ENDBRANCH  15  18
ENDBRANCH   1  15
TORSDOF 6
ENDMDL
MODEL       82
REMARK  Name = ZINC000026840776
REMARK                            x       y       z     vdW  Elec       q    Type
REMARK                         _______ _______ _______ _____ _____    ______ ____
ROOT
ATOM      1  C   LIG    1       -3.014  -2.361   0.018  0.00  0.00    +0.380 C 
ATOM      2  O   LIG    1       -3.408  -2.644   1.363  0.00  0.00    -0.370 OA
ATOM      3  C   LIG    1       -4.748  -3.123   1.490  0.00  0.00    +0.210 C 
ATOM      4  C   LIG    1       -4.896  -4.435   0.716  0.00  0.00    +0.170 C 
ATOM      5  C   LIG    1       -4.518  -4.199  -0.750  0.00  0.00    +0.160 C 
ATOM      6  C   LIG    1       -3.092  -3.643  -0.815  0.00  0.00    +0.120 C 
ENDROOT
BRANCH   1   8
ATOM      7  C   LIG    1       -1.412  -0.526   0.013  0.00  0.00    +0.520 C 
ATOM      8  N   LIG    1       -1.640  -1.854   0.008  0.00  0.00    -0.720 N 
ATOM      9  H   LIG    1       -0.894  -2.474  -0.003  0.00  0.00    +0.400 HD
ATOM     10  O   LIG    1       -2.344   0.250   0.026  0.00  0.00    -0.520 OA
BRANCH   7  12
ATOM     11  C   LIG    1       -0.019   1.526   0.010  0.00  0.00    +0.040 C 
ATOM     12  C   LIG    1        0.002  -0.004   0.002  0.00  0.00    +0.060 C 
ENDBRANCH   7  12
ENDBRANCH   1   8
BRANCH   5  13
ATOM     13  O   LIG    1       -5.425  -3.263  -1.333  0.00  0.00    -0.550 OA
ATOM     14  H   LIG    1       -5.245  -3.066  -2.263  0.00  0.00    +0.390 HD
ENDBRANCH   5  13
BRANCH   4  15
ATOM     15  O   LIG    1       -4.030  -5.422   1.280  0.00  0.00    -0.530 OA
ATOM     16  H   LIG    1       -4.072  -6.281   0.838  0.00  0.00    +0.380 HD
ENDBRANCH   4  15
BRANCH   6  17
ATOM     17  O   LIG    1       -2.178  -4.609  -0.293  0.00  0.00    -0.530 OA
ATOM     18  H   LIG    1       -1.254  -4.322  -0.304  0.00  0.00    +0.370 HD
ENDBRANCH   6  17
BRANCH   3  19
ATOM     19  C   LIG    1       -5.066  -3.363   2.967  0.00  0.00    +0.210 C 
BRANCH  19  20
ATOM     20  O   LIG    1       -5.042  -2.118   3.668  0.00  0.00    -0.570 OA
ATOM     21  H   LIG    1       -5.235  -2.195   4.612  0.00  0.00    +0.380 HD
ENDBRANCH  19  20
ENDBRANCH   3  19
TORSDOF 7
ENDMDL
MODEL       83
REMARK  Name = ZINC000001897529
REMARK                            x       y       z     vdW  Elec       q    Type
REMARK                         _______ _______ _______ _____ _____    ______ ____
ROOT
ATOM      1  C   LIG    1       -0.018   1.461   0.010  0.00  0.00    +0.340 C 
ATOM      2  N   LIG    1        0.002  -0.004   0.002  0.00  0.00    -0.450 N 
ATOM      3  C   LIG    1        0.009  -0.809  -1.093  0.00  0.00    +0.560 A 
ATOM      4  N   LIG    1        0.027  -2.070  -0.710  0.00  0.00    -0.540 NA
ATOM      5  C   LIG    1        0.034  -2.140   0.622  0.00  0.00    +0.360 A 
ATOM      6  N   LIG    1        0.051  -3.192   1.524  0.00  0.00    -0.510 N 
ATOM      7  C   LIG    1        0.062  -4.574   1.037  0.00  0.00    +0.350 C 
ATOM      8  C   LIG    1        0.050  -2.946   2.848  0.00  0.00    +0.710 A 
ATOM      9  O   LIG    1        0.061  -3.881   3.625  0.00  0.00    -0.540 OA
ATOM     10  N   LIG    1        0.040  -1.691   3.331  0.00  0.00    -0.650 N 
ATOM     11  H   LIG    1        0.042  -1.549   4.291  0.00  0.00    +0.440 HD
ATOM     12  C   LIG    1        0.027  -0.627   2.502  0.00  0.00    +0.600 A 
ATOM     13  O   LIG    1        0.019   0.505   2.953  0.00  0.00    -0.520 OA
ATOM     14  C   LIG    1        0.024  -0.838   1.112  0.00  0.00    -0.180 A 
ENDROOT
BRANCH   3  15
ATOM     15  N   LIG    1       -0.003  -0.375  -2.399  0.00  0.00    -0.690 N 
ATOM     16  H   LIG    1       -0.016   0.575  -2.594  0.00  0.00    +0.420 HD
BRANCH  15  17
ATOM     17  C   LIG    1        0.006  -1.348  -3.494  0.00  0.00    +0.310 C 
BRANCH  17  18
ATOM     18  C   LIG    1       -0.009  -0.609  -4.833  0.00  0.00    +0.190 C 
BRANCH  18  19
ATOM     19  O   LIG    1        1.201   0.136  -4.980  0.00  0.00    -0.570 OA
ATOM     20  H   LIG    1        1.260   0.631  -5.809  0.00  0.00    +0.390 HD
ENDBRANCH  18  19
ENDBRANCH  17  18
ENDBRANCH  15  17
ENDBRANCH   3  15
TORSDOF 4
ENDMDL
MODEL       84
REMARK  Name = ZINC000002082581
REMARK                            x       y       z     vdW  Elec       q    Type
REMARK                         _______ _______ _______ _____ _____    ______ ____
ROOT
ATOM      1  CA  LIG    1       -1.330   1.951   0.019  0.00  0.00    +0.110 C 
ENDROOT
BRANCH   1   3
ATOM      2  O   LIG    1        0.002  -0.004   0.002  0.00  0.00    -0.660 OA
ATOM      3  C   LIG    1       -0.015   1.215   0.009  0.00  0.00    +0.490 C 
ATOM      4  OXT LIG    1        1.033   1.839   0.002  0.00  0.00    -0.630 OA
ENDBRANCH   1   3
BRANCH   1   5
ATOM      5  N   LIG    1       -2.346   1.147  -0.673  0.00  0.00    -0.480 N 
ATOM      6  H1  LIG    1       -3.244   1.600  -0.595  0.00  0.00    +0.420 HD
ATOM      7  H2  LIG    1       -2.394   0.231  -0.253  0.00  0.00    +0.420 HD
BRANCH   5   8
ATOM      8  C   LIG    1       -1.985   1.016  -2.091  0.00  0.00    +0.260 C 
BRANCH   8   9
ATOM      9  C   LIG    1       -3.043   0.179  -2.812  0.00  0.00    +0.030 C 
BRANCH   9  10
ATOM     10  C   LIG    1       -2.667   0.043  -4.289  0.00  0.00    +0.200 C 
BRANCH  10  11
ATOM     11  O   LIG    1       -3.655  -0.740  -4.962  0.00  0.00    -0.570 OA
ATOM     12  H   LIG    1       -3.481  -0.867  -5.904  0.00  0.00    +0.390 HD
ENDBRANCH  10  11
ENDBRANCH   9  10
ENDBRANCH   8   9
ENDBRANCH   5   8
ENDBRANCH   1   5
BRANCH   1  13
ATOM     13  C   LIG    1       -1.768   2.192   1.465  0.00  0.00    +0.110 C 
BRANCH  13  14
ATOM     14  C   LIG    1       -3.018   3.033   1.477  0.00  0.00    +0.510 C 
ATOM     15  N   LIG    1       -3.590   3.374   2.649  0.00  0.00    -0.720 N 
ATOM     16  H   LIG    1       -3.196   3.078   3.485  0.00  0.00    +0.410 HD
ATOM     17  O   LIG    1       -3.510   3.403   0.432  0.00  0.00    -0.560 OA
BRANCH  15  18
ATOM     18  C   LIG    1       -4.805   4.192   2.661  0.00  0.00    +0.270 C 
BRANCH  18  19
ATOM     19  C   LIG    1       -5.243   4.433   4.107  0.00  0.00    +0.020 C 
BRANCH  19  20
ATOM     20  C   LIG    1       -6.513   5.287   4.120  0.00  0.00    +0.180 C 
BRANCH  20  21
ATOM     21  O   LIG    1       -6.922   5.512   5.470  0.00  0.00    -0.570 OA
ATOM     22  H   LIG    1       -7.722   6.048   5.554  0.00  0.00    +0.390 HD
ENDBRANCH  20  21
ENDBRANCH  19  20
ENDBRANCH  18  19
ENDBRANCH  15  18
ENDBRANCH  13  14
ENDBRANCH   1  13
TORSDOF 12
ENDMDL
MODEL       85
REMARK  Name = ZINC000002572653
REMARK                            x       y       z     vdW  Elec       q    Type
REMARK                         _______ _______ _______ _____ _____    ______ ____
ROOT
ATOM      1  C5M   T A  1       -0.018   1.503   0.010  0.00  0.00    +0.140 C 
ATOM      2  C5    T A  1        0.002  -0.004   0.002  0.00  0.00    -0.260 A 
ATOM      3  C6    T A  1       -1.153  -0.704   0.004  0.00  0.00    +0.350 A 
ATOM      4  N1    T A  1       -1.116  -2.072  -0.004  0.00  0.00    -0.540 N 
ATOM      5  C2    T A  1        0.060  -2.726  -0.013  0.00  0.00    +0.700 A 
ATOM      6  N3    T A  1        1.226  -2.053  -0.016  0.00  0.00    -0.660 N 
ATOM      7  H3    T A  1        2.064  -2.540  -0.023  0.00  0.00    +0.430 HD
ATOM      8  O2    T A  1        0.069  -3.942  -0.020  0.00  0.00    -0.540 OA
ATOM      9  C4    T A  1        1.232  -0.705  -0.013  0.00  0.00    +0.550 A 
ATOM     10  O4    T A  1        2.287  -0.095  -0.016  0.00  0.00    -0.510 OA
ENDROOT
BRANCH   4  11
ATOM     11  C1*   T A  1       -2.369  -2.831  -0.002  0.00  0.00    +0.430 C 
ATOM     12  C2*   T A  1       -2.448  -3.713  -1.266  0.00  0.00    +0.010 C 
ATOM     13  C3*   T A  1       -3.947  -3.595  -1.657  0.00  0.00    +0.170 C 
ATOM     14  C4*   T A  1       -4.247  -2.136  -1.230  0.00  0.00    +0.190 C 
ATOM     15  O4*   T A  1       -3.483  -1.931  -0.029  0.00  0.00    -0.350 OA
BRANCH  13  16
ATOM     16  O3*   T A  1       -4.746  -4.523  -0.922  0.00  0.00    -0.550 OA
ATOM     17  H3*   T A  1       -4.517  -5.450  -1.079  0.00  0.00    +0.390 HD
ENDBRANCH  13  16
BRANCH  14  18
ATOM     18  C5*   T A  1       -5.741  -1.964  -0.946  0.00  0.00    +0.220 C 
BRANCH  18  19
ATOM     19  O5*   T A  1       -6.017  -0.589  -0.667  0.00  0.00    -0.570 OA
ATOM     20  H5*   T A  1       -6.947  -0.406  -0.477  0.00  0.00    +0.390 HD
ENDBRANCH  18  19
ENDBRANCH  14  18
ENDBRANCH   4  11
TORSDOF 4
ENDMDL
MODEL       86
REMARK  Name = ZINC000005045716
REMARK                            x       y       z     vdW  Elec       q    Type
REMARK                         _______ _______ _______ _____ _____    ______ ____
ROOT
ATOM      1  N   LIG    1       -0.016   1.315   0.009  0.00  0.00    -0.690 NA
ATOM      2  H   LIG    1        0.818   1.812   0.004  0.00  0.00    +0.340 HD
ATOM      3  C   LIG    1        0.002  -0.004   0.002  0.00  0.00    +0.390 A 
ATOM      4  C   LIG    1       -1.252  -0.770   0.004  0.00  0.00    -0.020 A 
ATOM      5  C   LIG    1       -1.174  -2.113  -0.038  0.00  0.00    +0.310 A 
ATOM      6  N   LIG    1        0.045  -2.729  -0.084  0.00  0.00    -0.540 N 
ATOM      7  C   LIG    1        1.209  -1.985  -0.034  0.00  0.00    +0.570 A 
ATOM      8  O   LIG    1        2.314  -2.813   0.004  0.00  0.00    -0.250 OA
ATOM      9  C   LIG    1        1.829  -3.980   0.634  0.00  0.00    +0.130 C 
ATOM     10  C   LIG    1        2.383  -5.368   0.370  0.00  0.00    +0.210 C 
ATOM     11  C   LIG    1        1.056  -6.216   0.237  0.00  0.00    +0.170 C 
ATOM     12  O   LIG    1       -0.055  -5.268   0.303  0.00  0.00    -0.320 OA
ATOM     13  C   LIG    1        0.484  -4.086  -0.191  0.00  0.00    +0.360 C 
ATOM     14  N   LIG    1        1.171  -0.675  -0.013  0.00  0.00    -0.550 NA
ENDROOT
BRANCH  10  15
ATOM     15  O   LIG    1        3.178  -5.837   1.461  0.00  0.00    -0.540 OA
ATOM     16  H   LIG    1        3.470  -6.754   1.369  0.00  0.00    +0.390 HD
ENDBRANCH  10  15
BRANCH  11  17
ATOM     17  C   LIG    1        0.961  -7.216   1.391  0.00  0.00    +0.220 C 
BRANCH  17  18
ATOM     18  O   LIG    1       -0.198  -8.034   1.218  0.00  0.00    -0.560 OA
ATOM     19  H   LIG    1       -0.321  -8.693   1.915  0.00  0.00    +0.390 HD
ENDBRANCH  17  18
ENDBRANCH  11  17
TORSDOF 3
ENDMDL
MODEL       87
REMARK  Name = ZINC000019706824
REMARK                            x       y       z     vdW  Elec       q    Type
REMARK                         _______ _______ _______ _____ _____    ______ ____
ROOT
ATOM      1  N   LIG    1       -1.376  -0.512   0.012  0.00  0.00    -0.570 NA
ATOM      2  C   LIG    1       -2.194   0.205   0.998  0.00  0.00    +0.400 C 
ATOM      3  N   LIG    1       -3.586  -0.256   0.919  0.00  0.00    -0.490 NA
ATOM      4  C   LIG    1       -3.814  -1.486   0.556  0.00  0.00    +0.340 C 
ATOM      5  S   LIG    1       -5.383  -2.279   0.403  0.00  0.00    +0.070 S 
ATOM      6  C   LIG    1       -4.683  -3.882  -0.109  0.00  0.00    -0.090 C 
ATOM      7  C   LIG    1       -3.196  -3.632  -0.114  0.00  0.00    +0.540 C 
ATOM      8  O   LIG    1       -2.395  -4.495  -0.404  0.00  0.00    -0.480 OA
ATOM      9  N   LIG    1       -2.825  -2.398   0.221  0.00  0.00    -0.580 N 
ATOM     10  C   LIG    1       -1.400  -1.965   0.243  0.00  0.00    +0.460 C 
ENDROOT
BRANCH   1  12
ATOM     11  C   LIG    1       -0.019   1.526   0.010  0.00  0.00    +0.040 C 
ATOM     12  C   LIG    1        0.002  -0.004   0.002  0.00  0.00    +0.200 C 
ENDBRANCH   1  12
BRANCH   6  13
ATOM     13  C   LIG    1       -5.173  -4.263  -1.507  0.00  0.00    +0.240 C 
BRANCH  13  14
ATOM     14  O   LIG    1       -6.596  -4.394  -1.493  0.00  0.00    -0.540 OA
ATOM     15  H   LIG    1       -6.977  -4.635  -2.349  0.00  0.00    +0.390 HD
ENDBRANCH  13  14
ENDBRANCH   6  13
BRANCH   6  16
ATOM     16  C   LIG    1       -5.041  -4.974   0.902  0.00  0.00    +0.240 C 
BRANCH  16  17
ATOM     17  O   LIG    1       -6.462  -5.119   0.962  0.00  0.00    -0.540 OA
ATOM     18  H   LIG    1       -6.762  -5.796   1.584  0.00  0.00    +0.390 HD
ENDBRANCH  16  17
ENDBRANCH   6  16
TORSDOF 5
ENDMDL
MODEL       88
REMARK  Name = ZINC000334157672
REMARK                            x       y       z     vdW  Elec       q    Type
REMARK                         _______ _______ _______ _____ _____    ______ ____
ROOT
ATOM      1  C   LIG    1        0.206   1.455   0.005  0.00  0.00    +0.370 C 
ATOM      2  N   LIG    1        0.111  -0.007  -0.001  0.00  0.00    -0.550 N 
ATOM      3  C   LIG    1        0.017  -0.662  -1.179  0.00  0.00    +0.580 C 
ATOM      4  C   LIG    1       -0.078  -2.136  -1.151  0.00  0.00    +0.110 C 
ATOM      5  N   LIG    1       -0.173  -2.866  -2.255  0.00  0.00    -0.370 NA
ATOM      6  C   LIG    1       -0.253  -4.179  -2.145  0.00  0.00    +0.530 C 
ATOM      7  N   LIG    1       -0.240  -4.773  -0.964  0.00  0.00    -0.220 NA
ATOM      8  N   LIG    1       -0.149  -4.106   0.136  0.00  0.00    +0.070 NA
ATOM      9  O   LIG    1       -0.139  -4.782   1.380  0.00  0.00    -0.440 OA
ATOM     10  C   LIG    1       -0.065  -2.780   0.097  0.00  0.00    +0.280 C 
ATOM     11  N   LIG    1        0.034  -2.012   1.242  0.00  0.00    -0.510 N 
ATOM     12  C   LIG    1        0.049  -2.665   2.554  0.00  0.00    +0.380 C 
ATOM     13  O   LIG    1        0.010  -0.056  -2.232  0.00  0.00    -0.420 OA
ATOM     14  C   LIG    1        0.124  -0.673   1.165  0.00  0.00    +0.710 C 
ATOM     15  O   LIG    1        0.210  -0.036   2.197  0.00  0.00    -0.500 OA
ENDROOT
TORSDOF 0
ENDMDL
MODEL       89
REMARK  Name = ZINC000006091575
REMARK                            x       y       z     vdW  Elec       q    Type
REMARK                         _______ _______ _______ _____ _____    ______ ____
ROOT
ATOM      1  C1*   C A  1        0.001  -4.173  -0.023  0.00  0.00    +0.420 C 
ATOM      2  O4*   C A  1       -0.820  -4.641  -1.105  0.00  0.00    -0.340 OA
ATOM      3  C4*   C A  1       -1.464  -5.852  -0.653  0.00  0.00    +0.150 C 
ATOM      4  C3*   C A  1       -1.837  -5.536   0.818  0.00  0.00    +0.140 C 
ATOM      5  C2*   C A  1       -0.621  -4.694   1.287  0.00  0.00    +0.170 C 
ENDROOT
BRANCH   1   9
ATOM      6  C4    C A  1        0.002  -0.004   0.002  0.00  0.00    +0.500 A 
ATOM      7  N3    C A  1       -1.135  -0.687   0.004  0.00  0.00    -0.620 NA
ATOM      8  C2    C A  1       -1.129  -2.018  -0.004  0.00  0.00    +0.650 A 
ATOM      9  N1    C A  1        0.026  -2.708  -0.014  0.00  0.00    -0.540 N 
ATOM     10  C6    C A  1        1.220  -2.050  -0.016  0.00  0.00    +0.370 A 
ATOM     11  O2    C A  1       -2.189  -2.623  -0.003  0.00  0.00    -0.490 OA
ATOM     12  C5    C A  1        1.230  -0.697  -0.013  0.00  0.00    -0.150 A 
BRANCH   6  13
ATOM     13  N4    C A  1       -0.017   1.371   0.010  0.00  0.00    -0.820 N 
ATOM     14  H41   C A  1       -0.863   1.845   0.016  0.00  0.00    +0.410 HD
ATOM     15  H42   C A  1        0.817   1.868   0.004  0.00  0.00    +0.410 HD
ENDBRANCH   6  13
ENDBRANCH   1   9
BRANCH   4  16
ATOM     16  O3*   C A  1       -3.044  -4.774   0.885  0.00  0.00    -0.520 OA
ATOM     17  H3*   C A  1       -3.816  -5.228   0.519  0.00  0.00    +0.380 HD
ENDBRANCH   4  16
BRANCH   5  18
ATOM     18  O2*   C A  1        0.309  -5.512   2.000  0.00  0.00    -0.550 OA
ATOM     19  H2*   C A  1       -0.053  -5.912   2.802  0.00  0.00    +0.390 HD
ENDBRANCH   5  18
BRANCH   3  20
ATOM     20  C5*   C A  1       -2.718  -6.137  -1.481  0.00  0.00    +0.210 C 
BRANCH  20  21
ATOM     21  O5*   C A  1       -2.342  -6.438  -2.827  0.00  0.00    -0.560 OA
ATOM     22  H5*   C A  1       -3.090  -6.630  -3.410  0.00  0.00    +0.380 HD
ENDBRANCH  20  21
ENDBRANCH   3  20
TORSDOF 6
ENDMDL
MODEL       90
REMARK  Name = ZINC000003865777
REMARK                            x       y       z     vdW  Elec       q    Type
REMARK                         _______ _______ _______ _____ _____    ______ ____
ROOT
ATOM      1  C   LIG    1       -3.715   1.698   0.029  0.00  0.00    +0.200 C 
ATOM      2  C   LIG    1       -3.837   2.486   1.349  0.00  0.00    -0.290 C 
ATOM      3  S   LIG    1       -5.638   2.405   1.708  0.00  0.00    +2.410 S 
ATOM      4  C   LIG    1       -5.836   0.708   1.031  0.00  0.00    -0.300 C 
ATOM      5  O   LIG    1       -6.335   3.335   0.891  0.00  0.00    -0.900 OA
ATOM      6  O   LIG    1       -5.849   2.390   3.114  0.00  0.00    -0.910 OA
ATOM      7  C   LIG    1       -4.846   0.692  -0.148  0.00  0.00    +0.190 C 
ENDROOT
BRANCH   1   8
ATOM      8  N   LIG    1       -2.433   0.981   0.019  0.00  0.00    -0.480 N 
ATOM      9  H   LIG    1       -2.368   0.397   0.839  0.00  0.00    +0.430 HD
ATOM     10  H   LIG    1       -2.376   0.406  -0.808  0.00  0.00    +0.430 HD
BRANCH   8  11
ATOM     11  C   LIG    1       -1.330   1.951   0.019  0.00  0.00    +0.170 C 
BRANCH  11  13
ATOM     12  O   LIG    1        0.002  -0.004   0.002  0.00  0.00    -0.680 OA
ATOM     13  C   LIG    1       -0.015   1.215   0.009  0.00  0.00    +0.490 C 
ATOM     14  O   LIG    1        1.033   1.839   0.002  0.00  0.00    -0.630 OA
ENDBRANCH  11  13
ENDBRANCH   8  11
ENDBRANCH   1   8
BRANCH   7  15
ATOM     15  O   LIG    1       -5.552   1.004  -1.350  0.00  0.00    -0.550 OA
ATOM     16  H   LIG    1       -6.249   0.372  -1.572  0.00  0.00    +0.410 HD
ENDBRANCH   7  15
TORSDOF 4
ENDMDL
MODEL       91
REMARK  Name = ZINC000307328947
REMARK                            x       y       z     vdW  Elec       q    Type
REMARK                         _______ _______ _______ _____ _____    ______ ____
ROOT
ATOM      1  C   LIG    1       -1.244  -2.135   0.003  0.00  0.00    +0.070 C 
ATOM      2  C   LIG    1       -0.490  -2.641  -1.231  0.00  0.00    +0.210 C 
ATOM      3  N   LIG    1        0.118  -3.913  -0.872  0.00  0.00    -0.680 NA
ATOM      4  H   LIG    1        1.083  -3.948  -1.165  0.00  0.00    +0.370 HD
ATOM      5  C   LIG    1       -0.644  -5.031  -1.439  0.00  0.00    +0.220 C 
ATOM      6  C   LIG    1       -2.174  -4.923  -1.354  0.00  0.00    -0.350 C 
ATOM      7  S   LIG    1       -2.748  -4.364   0.259  0.00  0.00    +2.430 S 
ATOM      8  O   LIG    1       -1.812  -4.781   1.243  0.00  0.00    -0.910 OA
ATOM      9  O   LIG    1       -4.115  -4.726   0.404  0.00  0.00    -0.930 OA
ATOM     10  C   LIG    1       -2.641  -2.541   0.079  0.00  0.00    -0.300 C 
ENDROOT
BRANCH   1  11
ATOM     11  C   LIG    1       -1.185  -0.630   0.010  0.00  0.00    +0.470 C 
ATOM     12  O   LIG    1       -2.208   0.015   0.023  0.00  0.00    -0.500 OA
BRANCH  11  14
ATOM     13  C   LIG    1       -0.018   1.448   0.010  0.00  0.00    +0.260 C 
ATOM     14  O   LIG    1        0.002  -0.004   0.002  0.00  0.00    -0.350 OA
ENDBRANCH  11  14
ENDBRANCH   1  11
TORSDOF 2
ENDMDL
MODEL       92
REMARK  Name = ZINC000003860535
REMARK                            x       y       z     vdW  Elec       q    Type
REMARK                         _______ _______ _______ _____ _____    ______ ____
ROOT
ATOM      1  C   LIG    1       -0.019   1.526   0.010  0.00  0.00    +0.050 C 
ATOM      2  C   LIG    1        0.002  -0.004   0.002  0.00  0.00    +0.250 C 
ATOM      3  O   LIG    1        0.689  -0.472  -1.170  0.00  0.00    -0.360 OA
ATOM      4  C   LIG    1        2.053  -0.691  -0.744  0.00  0.00    +0.370 C 
ATOM      5  O   LIG    1        2.712   0.573  -0.614  0.00  0.00    -0.370 OA
ATOM      6  C   LIG    1        3.365   0.672   0.656  0.00  0.00    +0.120 C 
ATOM      7  C   LIG    1        3.106  -0.644   1.418  0.00  0.00    +0.170 C 
ATOM      8  C   LIG    1        1.843  -1.224   0.709  0.00  0.00    +0.170 C 
ATOM      9  C   LIG    1       -1.432  -0.538   0.002  0.00  0.00    +0.080 C 
ATOM     10  O   LIG    1        0.695  -0.483   1.162  0.00  0.00    -0.360 OA
ENDROOT
BRANCH   7  11
ATOM     11  O   LIG    1        4.210  -1.538   1.274  0.00  0.00    -0.540 OA
ATOM     12  H   LIG    1        5.042  -1.197   1.629  0.00  0.00    +0.390 HD
ENDBRANCH   7  11
BRANCH   6  13
ATOM     13  C   LIG    1        4.868   0.868   0.453  0.00  0.00    +0.220 C 
BRANCH  13  14
ATOM     14  O   LIG    1        5.416  -0.283  -0.193  0.00  0.00    -0.540 OA
ATOM     15  H   LIG    1        5.032  -0.466  -1.062  0.00  0.00    +0.380 HD
ENDBRANCH  13  14
BRANCH  13  16
ATOM     16  C   LIG    1        5.108   2.104  -0.417  0.00  0.00    +0.160 C 
BRANCH  16  17
ATOM     17  O   LIG    1        6.512   2.355  -0.510  0.00  0.00    -0.570 OA
ATOM     18  H   LIG    1        6.739   3.126  -1.048  0.00  0.00    +0.380 HD
ENDBRANCH  16  17
ENDBRANCH  13  16
ENDBRANCH   6  13
TORSDOF 5
ENDMDL
MODEL       93
REMARK  Name = ZINC000002712778
REMARK                            x       y       z     vdW  Elec       q    Type
REMARK                         _______ _______ _______ _____ _____    ______ ____
ROOT
ATOM      1  C   LIG    1        1.203   1.938   0.001  0.00  0.00    -0.110 C 
ATOM      2  C   LIG    1        2.377   1.284   0.088  0.00  0.00    +0.190 C 
ATOM      3  C   LIG    1        3.687   2.034   0.201  0.00  0.00    +0.170 C 
ATOM      4  C   LIG    1        4.709   1.310  -0.644  0.00  0.00    +0.530 C 
ATOM      5  N   LIG    1        4.584  -0.012  -0.857  0.00  0.00    -0.670 N 
ATOM      6  H   LIG    1        5.287  -0.479  -1.335  0.00  0.00    +0.430 HD
ATOM      7  C   LIG    1        3.518  -0.706  -0.429  0.00  0.00    +0.710 C 
ATOM      8  O   LIG    1        3.535  -1.918  -0.499  0.00  0.00    -0.530 OA
ATOM      9  O   LIG    1        5.639   1.919  -1.128  0.00  0.00    -0.480 OA
ATOM     10  N   LIG    1        2.430  -0.095   0.083  0.00  0.00    -0.640 N 
ATOM     11  H   LIG    1        1.693  -0.618   0.435  0.00  0.00    +0.450 HD
ENDROOT
BRANCH   1  13
ATOM     12  O   LIG    1        0.051   0.024  -0.471  0.00  0.00    -0.550 OA
ATOM     13  C   LIG    1        0.006   1.218  -0.239  0.00  0.00    +0.550 C 
ATOM     14  N   LIG    1       -1.180   1.856  -0.216  0.00  0.00    -0.720 N 
ATOM     15  H   LIG    1       -1.216   2.808  -0.031  0.00  0.00    +0.400 HD
BRANCH  14  16
ATOM     16  C   LIG    1       -2.417   1.112  -0.470  0.00  0.00    +0.260 C 
BRANCH  16  17
ATOM     17  C   LIG    1       -3.611   2.065  -0.385  0.00  0.00    +0.030 C 
BRANCH  17  18
ATOM     18  C   LIG    1       -4.903   1.288  -0.650  0.00  0.00    +0.180 C 
BRANCH  18  19
ATOM     19  O   LIG    1       -6.018   2.178  -0.571  0.00  0.00    -0.580 OA
ATOM     20  H   LIG    1       -6.872   1.752  -0.729  0.00  0.00    +0.380 HD
ENDBRANCH  18  19
ENDBRANCH  17  18
ENDBRANCH  16  17
ENDBRANCH  14  16
ENDBRANCH   1  13
TORSDOF 5
ENDMDL
MODEL       94
REMARK  Name = ZINC000002712777
REMARK                            x       y       z     vdW  Elec       q    Type
REMARK                         _______ _______ _______ _____ _____    ______ ____
ROOT
ATOM      1  C   LIG    1        1.203   1.938   0.001  0.00  0.00    -0.110 C 
ATOM      2  C   LIG    1        2.377   1.284   0.088  0.00  0.00    +0.190 C 
ATOM      3  C   LIG    1        3.687   2.034   0.201  0.00  0.00    +0.170 C 
ATOM      4  C   LIG    1        4.709   1.310  -0.644  0.00  0.00    +0.530 C 
ATOM      5  N   LIG    1        4.584  -0.012  -0.857  0.00  0.00    -0.670 N 
ATOM      6  H   LIG    1        5.287  -0.479  -1.335  0.00  0.00    +0.430 HD
ATOM      7  C   LIG    1        3.518  -0.706  -0.429  0.00  0.00    +0.710 C 
ATOM      8  O   LIG    1        3.535  -1.918  -0.499  0.00  0.00    -0.530 OA
ATOM      9  O   LIG    1        5.639   1.919  -1.128  0.00  0.00    -0.480 OA
ATOM     10  N   LIG    1        2.430  -0.095   0.083  0.00  0.00    -0.640 N 
ATOM     11  H   LIG    1        1.693  -0.618   0.435  0.00  0.00    +0.450 HD
ENDROOT
BRANCH   1  13
ATOM     12  O   LIG    1        0.051   0.024  -0.471  0.00  0.00    -0.550 OA
ATOM     13  C   LIG    1        0.006   1.218  -0.239  0.00  0.00    +0.550 C 
ATOM     14  N   LIG    1       -1.180   1.856  -0.216  0.00  0.00    -0.720 N 
ATOM     15  H   LIG    1       -1.216   2.808  -0.031  0.00  0.00    +0.410 HD
BRANCH  14  16
ATOM     16  C   LIG    1       -2.417   1.112  -0.470  0.00  0.00    +0.280 C 
BRANCH  16  17
ATOM     17  C   LIG    1       -3.611   2.065  -0.385  0.00  0.00    +0.180 C 
BRANCH  17  18
ATOM     18  O   LIG    1       -3.527   3.029  -1.436  0.00  0.00    -0.570 OA
ATOM     19  H   LIG    1       -4.254   3.667  -1.444  0.00  0.00    +0.380 HD
ENDBRANCH  17  18
ENDBRANCH  16  17
ENDBRANCH  14  16
ENDBRANCH   1  13
TORSDOF 4
ENDMDL
MODEL       95
REMARK  Name = ZINC000001730666
REMARK                            x       y       z     vdW  Elec       q    Type
REMARK                         _______ _______ _______ _____ _____    ______ ____
ROOT
ATOM      1  SG  CYS A  1        0.982   3.636   1.212  0.00  0.00    -0.330 S 
ENDROOT
BRANCH   1   2
ATOM      2  CB  CYS A  1       -0.720   3.008   1.225  0.00  0.00    +0.160 C 
BRANCH   2   3
ATOM      3  CA  CYS A  1       -0.699   1.479   1.216  0.00  0.00    +0.110 C 
BRANCH   3   4
ATOM      4  N   CYS A  1       -0.012   1.005   0.008  0.00  0.00    -0.610 N 
ATOM      5  H1  CYS A  1       -0.500   1.339  -0.810  0.00  0.00    +0.430 HD
ATOM      6  H2  CYS A  1        0.935   1.354   0.000  0.00  0.00    +0.420 HD
ATOM      7  H3  CYS A  1        0.002  -0.004   0.002  0.00  0.00    +0.440 HD
ENDBRANCH   3   4
BRANCH   3   8
ATOM      8  C   CYS A  1       -2.113   0.957   1.227  0.00  0.00    +0.490 C 
ATOM      9  OXT CYS A  1       -2.859   1.236   2.150  0.00  0.00    -0.630 OA
ATOM     10  O   CYS A  1       -2.511   0.256   0.312  0.00  0.00    -0.660 OA
ENDBRANCH   3   8
ENDBRANCH   2   3
ENDBRANCH   1   2
BRANCH   1  11
ATOM     11  CB  CYS A  1        0.753   5.436   1.224  0.00  0.00    +0.160 C 
BRANCH  11  12
ATOM     12  CA  CYS A  1        2.120   6.124   1.214  0.00  0.00    +0.110 C 
BRANCH  12  13
ATOM     13  N   CYS A  1        2.880   5.719   2.404  0.00  0.00    -0.610 N 
ATOM     14  H1  CYS A  1        3.781   6.173   2.398  0.00  0.00    +0.430 HD
ATOM     15  H2  CYS A  1        3.007   4.718   2.398  0.00  0.00    +0.420 HD
ATOM     16  H3  CYS A  1        2.373   5.988   3.235  0.00  0.00    +0.440 HD
ENDBRANCH  12  13
BRANCH  12  17
ATOM     17  C   CYS A  1        1.929   7.619   1.224  0.00  0.00    +0.490 C 
ATOM     18  OXT CYS A  1        1.842   8.229   0.172  0.00  0.00    -0.630 OA
ATOM     19  O   CYS A  1        1.863   8.218   2.284  0.00  0.00    -0.660 OA
ENDBRANCH  12  17
ENDBRANCH  11  12
ENDBRANCH   1  11
TORSDOF 8
ENDMDL
MODEL       96
REMARK  Name = ZINC000058486771
REMARK                            x       y       z     vdW  Elec       q    Type
REMARK                         _______ _______ _______ _____ _____    ______ ____
ROOT
ATOM      1  C   LIG    1       -3.014  -2.361   0.018  0.00  0.00    +0.380 C 
ATOM      2  O   LIG    1       -3.408  -2.644   1.363  0.00  0.00    -0.370 OA
ATOM      3  C   LIG    1       -4.748  -3.123   1.490  0.00  0.00    +0.200 C 
ATOM      4  C   LIG    1       -4.896  -4.435   0.716  0.00  0.00    +0.180 C 
ATOM      5  C   LIG    1       -4.518  -4.199  -0.750  0.00  0.00    +0.170 C 
ATOM      6  C   LIG    1       -3.092  -3.643  -0.815  0.00  0.00    +0.130 C 
ENDROOT
BRANCH   1   8
ATOM      7  C   LIG    1       -1.412  -0.526   0.013  0.00  0.00    +0.520 C 
ATOM      8  N   LIG    1       -1.640  -1.854   0.008  0.00  0.00    -0.720 N 
ATOM      9  H   LIG    1       -0.894  -2.474  -0.003  0.00  0.00    +0.400 HD
ATOM     10  O   LIG    1       -2.344   0.250   0.026  0.00  0.00    -0.520 OA
BRANCH   7  12
ATOM     11  C   LIG    1       -0.019   1.526   0.010  0.00  0.00    +0.040 C 
ATOM     12  C   LIG    1        0.002  -0.004   0.002  0.00  0.00    +0.060 C 
ENDBRANCH   7  12
ENDBRANCH   1   8
BRANCH   5  13
ATOM     13  O   LIG    1       -4.583  -5.435  -1.465  0.00  0.00    -0.560 OA
ATOM     14  H   LIG    1       -4.356  -5.360  -2.402  0.00  0.00    +0.390 HD
ENDBRANCH   5  13
BRANCH   4  15
ATOM     15  O   LIG    1       -4.030  -5.422   1.280  0.00  0.00    -0.550 OA
ATOM     16  H   LIG    1       -4.072  -6.281   0.838  0.00  0.00    +0.390 HD
ENDBRANCH   4  15
BRANCH   6  17
ATOM     17  O   LIG    1       -2.755  -3.352  -2.173  0.00  0.00    -0.560 OA
ATOM     18  H   LIG    1       -1.863  -2.995  -2.289  0.00  0.00    +0.390 HD
ENDBRANCH   6  17
BRANCH   3  19
ATOM     19  C   LIG    1       -5.066  -3.363   2.967  0.00  0.00    +0.220 C 
BRANCH  19  20
ATOM     20  O   LIG    1       -5.042  -2.118   3.668  0.00  0.00    -0.570 OA
ATOM     21  H   LIG    1       -5.235  -2.195   4.612  0.00  0.00    +0.380 HD
ENDBRANCH  19  20
ENDBRANCH   3  19
TORSDOF 7
ENDMDL
MODEL       97
REMARK  Name = ZINC000001867015
REMARK                            x       y       z     vdW  Elec       q    Type
REMARK                         _______ _______ _______ _____ _____    ______ ____
ROOT
ATOM      1  C   LIG    1       -1.341  -0.773   0.159  0.00  0.00    -0.080 C 
ATOM      2  C   LIG    1       -2.364  -0.994  -0.956  0.00  0.00    +0.040 C 
ATOM      3  C   LIG    1       -3.388  -2.039  -0.509  0.00  0.00    +0.000 C 
ATOM      4  C   LIG    1       -2.673  -3.357  -0.206  0.00  0.00    +0.050 C 
ATOM      5  C   LIG    1       -1.649  -3.136   0.910  0.00  0.00    -0.040 C 
ATOM      6  C   LIG    1       -0.625  -2.091   0.463  0.00  0.00    +0.200 C 
ENDROOT
BRANCH   6   7
ATOM      7  O   LIG    1        0.044  -2.552  -0.713  0.00  0.00    -0.560 OA
ATOM      8  H   LIG    1        0.709  -1.938  -1.053  0.00  0.00    +0.380 HD
ENDBRANCH   6   7
BRANCH   1   9
ATOM      9  C   LIG    1       -0.316   0.272  -0.287  0.00  0.00    +0.180 C 
BRANCH   9  10
ATOM     10  O   LIG    1       -0.985   1.503  -0.571  0.00  0.00    -0.540 OA
ATOM     11  H   LIG    1       -0.395   2.213  -0.861  0.00  0.00    +0.370 HD
ENDBRANCH   9  10
ENDBRANCH   1   9
BRANCH   5  12
ATOM     12  C   LIG    1       -0.934  -4.454   1.214  0.00  0.00    +0.200 C 
BRANCH  12  13
ATOM     13  O   LIG    1       -1.890  -5.430   1.631  0.00  0.00    -0.570 OA
ATOM     14  H   LIG    1       -1.506  -6.292   1.841  0.00  0.00    +0.380 HD
ENDBRANCH  12  13
ENDBRANCH   5  12
BRANCH   5  15
ATOM     15  C   LIG    1       -2.365  -2.642   2.169  0.00  0.00    +0.190 C 
BRANCH  15  16
ATOM     16  O   LIG    1       -1.398  -2.280   3.156  0.00  0.00    -0.560 OA
ATOM     17  H   LIG    1       -1.782  -1.957   3.983  0.00  0.00    +0.380 HD
ENDBRANCH  15  16
ENDBRANCH   5  15
BRANCH   1  18
ATOM     18  C   LIG    1       -2.057  -0.279   1.418  0.00  0.00    +0.180 C 
BRANCH  18  19
ATOM     19  O   LIG    1       -1.933   1.141   1.510  0.00  0.00    -0.550 OA
ATOM     20  H   LIG    1       -2.365   1.524   2.287  0.00  0.00    +0.370 HD
ENDBRANCH  18  19
ENDBRANCH   1  18
TORSDOF 9
ENDMDL
MODEL       98
REMARK  Name = ZINC000004100817
REMARK                            x       y       z     vdW  Elec       q    Type
REMARK                         _______ _______ _______ _____ _____    ______ ____
ROOT
ATOM      1  C   LIG    1        0.652  -0.570  -1.138  0.00  0.00    +0.200 C 
ATOM      2  C   LIG    1        2.140  -0.759  -0.835  0.00  0.00    +0.150 C 
ATOM      3  C   LIG    1        2.835  -1.365  -2.056  0.00  0.00    +0.160 C 
ATOM      4  C   LIG    1        2.205  -2.721  -2.381  0.00  0.00    +0.190 C 
ATOM      5  C   LIG    1        0.717  -2.532  -2.684  0.00  0.00    +0.130 C 
ATOM      6  C   LIG    1        0.021  -1.926  -1.463  0.00  0.00    +0.160 C 
ENDROOT
BRANCH   1   8
ATOM      7  C   LIG    1       -0.017   1.425   0.010  0.00  0.00    +0.210 C 
ATOM      8  O   LIG    1        0.002  -0.004   0.002  0.00  0.00    -0.370 OA
ENDBRANCH   1   8
BRANCH   5   9
ATOM      9  O   LIG    1        0.128  -3.798  -2.987  0.00  0.00    -0.560 OA
ATOM     10  H   LIG    1       -0.816  -3.754  -3.190  0.00  0.00    +0.380 HD
ENDBRANCH   5   9
BRANCH   4  11
ATOM     11  O   LIG    1        2.356  -3.597  -1.262  0.00  0.00    -0.360 OA
ATOM     12  C   LIG    1        2.451  -4.979  -1.615  0.00  0.00    +0.220 C 
ENDBRANCH   4  11
BRANCH   3  13
ATOM     13  O   LIG    1        2.684  -0.489  -3.174  0.00  0.00    -0.560 OA
ATOM     14  H   LIG    1        3.062   0.391  -3.038  0.00  0.00    +0.390 HD
ENDBRANCH   3  13
BRANCH   2  15
ATOM     15  O   LIG    1        2.728   0.507  -0.531  0.00  0.00    -0.560 OA
ATOM     16  H   LIG    1        3.673   0.463  -0.329  0.00  0.00    +0.380 HD
ENDBRANCH   2  15
BRANCH   6  17
ATOM     17  O   LIG    1        0.172  -2.802  -0.345  0.00  0.00    -0.530 OA
ATOM     18  H   LIG    1       -0.205  -3.682  -0.480  0.00  0.00    +0.380 HD
ENDBRANCH   6  17
TORSDOF 6
ENDMDL
MODEL       99
REMARK  Name = ZINC000001702547
REMARK                            x       y       z     vdW  Elec       q    Type
REMARK                         _______ _______ _______ _____ _____    ______ ____
ROOT
ATOM      1  C   LIG    1       -1.502  -0.698   0.038  0.00  0.00    -0.120 C 
ATOM      2  C   LIG    1       -2.524  -0.950  -1.073  0.00  0.00    +0.230 C 
ATOM      3  O   LIG    1       -3.426  -1.980  -0.664  0.00  0.00    -0.380 OA
ATOM      4  C   LIG    1       -2.798  -3.237  -0.407  0.00  0.00    +0.230 C 
ATOM      5  C   LIG    1       -1.787  -3.077   0.732  0.00  0.00    -0.070 C 
ATOM      6  C   LIG    1       -0.763  -2.004   0.348  0.00  0.00    +0.220 C 
ENDROOT
BRANCH   6   7
ATOM      7  O   LIG    1       -0.037  -2.427  -0.807  0.00  0.00    -0.570 OA
ATOM      8  H   LIG    1        0.630  -1.794  -1.107  0.00  0.00    +0.380 HD
ENDBRANCH   6   7
BRANCH   1   9
ATOM      9  C   LIG    1       -0.497   0.361  -0.422  0.00  0.00    +0.190 C 
BRANCH   9  10
ATOM     10  O   LIG    1       -1.187   1.579  -0.710  0.00  0.00    -0.570 OA
ATOM     11  H   LIG    1       -0.611   2.296  -1.008  0.00  0.00    +0.380 HD
ENDBRANCH   9  10
ENDBRANCH   1   9
BRANCH   5  12
ATOM     12  C   LIG    1       -1.069  -4.407   0.969  0.00  0.00    +0.200 C 
BRANCH  12  13
ATOM     13  O   LIG    1       -2.026  -5.409   1.320  0.00  0.00    -0.570 OA
ATOM     14  H   LIG    1       -1.641  -6.280   1.486  0.00  0.00    +0.380 HD
ENDBRANCH  12  13
ENDBRANCH   5  12
BRANCH   5  15
ATOM     15  C   LIG    1       -2.516  -2.655   2.008  0.00  0.00    +0.200 C 
BRANCH  15  16
ATOM     16  O   LIG    1       -1.567  -2.475   3.062  0.00  0.00    -0.540 OA
ATOM     17  H   LIG    1       -1.961  -2.206   3.903  0.00  0.00    +0.360 HD
ENDBRANCH  15  16
ENDBRANCH   5  15
BRANCH   1  18
ATOM     18  C   LIG    1       -2.222  -0.207   1.296  0.00  0.00    +0.180 C 
BRANCH  18  19
ATOM     19  O   LIG    1       -1.551  -0.706   2.454  0.00  0.00    -0.530 OA
ATOM     20  H   LIG    1       -1.954  -0.434   3.290  0.00  0.00    +0.360 HD
ENDBRANCH  18  19
ENDBRANCH   1  18
TORSDOF 9
ENDMDL
MODEL      100
REMARK  Name = ZINC000584889887
REMARK                            x       y       z     vdW  Elec       q    Type
REMARK                         _______ _______ _______ _____ _____    ______ ____
ROOT
ATOM      1  O   LIG    1       -0.006   0.018   0.261  0.00  0.00    -0.520 OA
ATOM      2  C   LIG    1       -0.015   1.211   0.042  0.00  0.00    +0.510 C 
ATOM      3  N   LIG    1       -1.184   1.849  -0.169  0.00  0.00    -0.730 N 
ATOM      4  H   LIG    1       -1.191   2.803  -0.344  0.00  0.00    +0.400 HD
ENDROOT
BRANCH   3   5
ATOM      5  C   LIG    1       -2.443   1.100  -0.135  0.00  0.00    +0.280 C 
BRANCH   5   6
ATOM      6  C   LIG    1       -3.610   2.053  -0.404  0.00  0.00    +0.150 C 
BRANCH   6   7
ATOM      7  C   LIG    1       -4.905   1.283  -0.368  0.00  0.00    +0.010 A 
ATOM      8  N   LIG    1       -5.211   0.215  -1.070  0.00  0.00    -0.280 NA
ATOM      9  N   LIG    1       -6.404  -0.152  -0.763  0.00  0.00    -0.250 N 
ATOM     10  H   LIG    1       -6.861  -0.917  -1.146  0.00  0.00    +0.470 HD
ATOM     11  N   LIG    1       -6.910   0.632   0.122  0.00  0.00    -0.280 NA
ATOM     12  C   LIG    1       -6.024   1.555   0.423  0.00  0.00    +0.190 A 
ENDBRANCH   6   7
ENDBRANCH   5   6
ENDBRANCH   3   5
BRANCH   2  13
ATOM     13  C   LIG    1        1.280   1.980   0.001  0.00  0.00    +0.220 C 
BRANCH  13  14
ATOM     14  N   LIG    1        2.408   1.044   0.105  0.00  0.00    -0.520 NA
ATOM     15  C   LIG    1        3.674   1.765   0.306  0.00  0.00    +0.160 C 
ATOM     16  C   LIG    1        4.811   0.753   0.470  0.00  0.00    +0.220 C 
ATOM     17  O   LIG    1        4.850  -0.101  -0.676  0.00  0.00    -0.390 OA
ATOM     18  C   LIG    1        3.634  -0.819  -0.902  0.00  0.00    +0.230 C 
ATOM     19  C   LIG    1        2.485   0.177  -1.079  0.00  0.00    +0.150 C 
ENDBRANCH  13  14
ENDBRANCH   2  13
TORSDOF 5
ENDMDL
MODEL      101
REMARK  Name = ZINC000001634325
REMARK                            x       y       z     vdW  Elec       q    Type
REMARK                         _______ _______ _______ _____ _____    ______ ____
ROOT
ATOM      1  C   LIG    1        2.457   1.002  -0.016  0.00  0.00    +0.040 C 
ENDROOT
BRANCH   1   2
ATOM      2  C   LIG    1        1.280   1.980   0.001  0.00  0.00    +0.050 C 
BRANCH   2   4
ATOM      3  O   LIG    1        0.002  -0.004   0.002  0.00  0.00    -0.540 OA
ATOM      4  C   LIG    1       -0.014   1.209   0.009  0.00  0.00    +0.510 C 
ATOM      5  N   LIG    1       -1.191   1.867   0.018  0.00  0.00    -0.730 N 
ATOM      6  H   LIG    1       -1.204   2.837   0.023  0.00  0.00    +0.400 HD
BRANCH   5   7
ATOM      7  C   LIG    1       -2.449   1.117   0.020  0.00  0.00    +0.280 C 
BRANCH   7   8
ATOM      8  C   LIG    1       -3.626   2.095   0.031  0.00  0.00    +0.170 C 
BRANCH   8   9
ATOM      9  O   LIG    1       -3.633   2.844  -1.186  0.00  0.00    -0.570 OA
ATOM     10  H   LIG    1       -4.354   3.486  -1.249  0.00  0.00    +0.380 HD
ENDBRANCH   8   9
ENDBRANCH   7   8
ENDBRANCH   5   7
ENDBRANCH   2   4
ENDBRANCH   1   2
BRANCH   1  11
ATOM     11  C   LIG    1        3.771   1.784  -0.024  0.00  0.00    +0.040 C 
BRANCH  11  12
ATOM     12  C   LIG    1        4.947   0.806  -0.041  0.00  0.00    +0.050 C 
BRANCH  12  13
ATOM     13  C   LIG    1        6.242   1.577  -0.049  0.00  0.00    +0.510 C 
ATOM     14  N   LIG    1        7.418   0.919  -0.064  0.00  0.00    -0.730 N 
ATOM     15  H   LIG    1        7.431  -0.051  -0.069  0.00  0.00    +0.400 HD
ATOM     16  O   LIG    1        6.226   2.790  -0.042  0.00  0.00    -0.540 OA
BRANCH  14  17
ATOM     17  C   LIG    1        8.677   1.669  -0.072  0.00  0.00    +0.280 C 
BRANCH  17  18
ATOM     18  C   LIG    1        9.853   0.691  -0.088  0.00  0.00    +0.170 C 
BRANCH  18  19
ATOM     19  O   LIG    1        9.844  -0.045  -1.313  0.00  0.00    -0.570 OA
ATOM     20  H   LIG    1       10.563  -0.686  -1.393  0.00  0.00    +0.380 HD
ENDBRANCH  18  19
ENDBRANCH  17  18
ENDBRANCH  14  17
ENDBRANCH  12  13
ENDBRANCH  11  12
ENDBRANCH   1  11
TORSDOF 11
ENDMDL
MODEL      102
REMARK  Name = ZINC000022063754
REMARK                            x       y       z     vdW  Elec       q    Type
REMARK                         _______ _______ _______ _____ _____    ______ ____
ROOT
ATOM      1  C   LIG    1        0.877  -0.392  -1.539  0.00  0.00    +0.160 C 
ATOM      2  O   LIG    1        0.099   0.051  -2.653  0.00  0.00    -0.340 OA
ATOM      3  C   LIG    1        0.711  -0.184  -3.923  0.00  0.00    +0.180 C 
ATOM      4  C   LIG    1        0.919  -1.688  -4.117  0.00  0.00    +0.160 C 
ATOM      5  C   LIG    1        1.776  -2.229  -2.969  0.00  0.00    +0.160 C 
ATOM      6  C   LIG    1        1.092  -1.904  -1.637  0.00  0.00    +0.140 C 
ENDROOT
BRANCH   1   8
ATOM      7  C   LIG    1       -0.022   1.810   0.012  0.00  0.00    +0.160 C 
ATOM      8  S   LIG    1        0.002  -0.004   0.002  0.00  0.00    -0.210 S 
ENDBRANCH   1   8
BRANCH   5   9
ATOM      9  O   LIG    1        1.916  -3.645  -3.103  0.00  0.00    -0.550 OA
ATOM     10  H   LIG    1        2.449  -4.055  -2.408  0.00  0.00    +0.390 HD
ENDBRANCH   5   9
BRANCH   4  11
ATOM     11  O   LIG    1       -0.348  -2.349  -4.121  0.00  0.00    -0.530 OA
ATOM     12  H   LIG    1       -0.291  -3.307  -4.240  0.00  0.00    +0.380 HD
ENDBRANCH   4  11
BRANCH   6  13
ATOM     13  O   LIG    1       -0.170  -2.572  -1.574  0.00  0.00    -0.520 OA
ATOM     14  H   LIG    1       -0.660  -2.411  -0.756  0.00  0.00    +0.380 HD
ENDBRANCH   6  13
BRANCH   3  15
ATOM     15  C   LIG    1       -0.194   0.354  -5.033  0.00  0.00    +0.220 C 
BRANCH  15  16
ATOM     16  O   LIG    1       -0.295   1.774  -4.919  0.00  0.00    -0.570 OA
ATOM     17  H   LIG    1       -0.856   2.184  -5.593  0.00  0.00    +0.380 HD
ENDBRANCH  15  16
ENDBRANCH   3  15
TORSDOF 6
ENDMDL
MODEL      103
REMARK  Name = ZINC000004114168
REMARK                            x       y       z     vdW  Elec       q    Type
REMARK                         _______ _______ _______ _____ _____    ______ ____
ROOT
ATOM      1  O   LIG    1        0.002  -0.004   0.002  0.00  0.00    -0.430 OA
ATOM      2  C   LIG    1       -0.014   1.204   0.009  0.00  0.00    +0.450 C 
ATOM      3  O   LIG    1       -1.121   1.960   0.029  0.00  0.00    -0.310 OA
ATOM      4  C   LIG    1       -0.802   3.296   0.519  0.00  0.00    +0.300 C 
ATOM      5  C   LIG    1        0.659   3.531   0.071  0.00  0.00    +0.310 C 
ATOM      6  C   LIG    1        1.212   2.091   0.002  0.00  0.00    +0.200 C 
ENDROOT
BRANCH   4   7
ATOM      7  C   LIG    1       -1.718   4.318  -0.104  0.00  0.00    -0.090 A 
ATOM      8  C   LIG    1       -2.173   4.141  -1.397  0.00  0.00    +0.050 A 
ATOM      9  C   LIG    1       -3.013   5.078  -1.968  0.00  0.00    +0.010 A 
ATOM     10  C   LIG    1       -3.398   6.192  -1.246  0.00  0.00    +0.020 A 
ATOM     11  C   LIG    1       -2.943   6.369   0.047  0.00  0.00    +0.010 A 
ATOM     12  C   LIG    1       -2.106   5.429   0.620  0.00  0.00    +0.040 A 
ENDBRANCH   4   7
BRANCH   5  13
ATOM     13  O   LIG    1        1.370   4.304   1.041  0.00  0.00    -0.530 OA
ATOM     14  H   LIG    1        2.291   4.478   0.805  0.00  0.00    +0.400 HD
ENDBRANCH   5  13
BRANCH   5  15
ATOM     15  O   LIG    1        0.703   4.162  -1.210  0.00  0.00    -0.520 OA
ATOM     16  H   LIG    1        1.598   4.331  -1.535  0.00  0.00    +0.390 HD
ENDBRANCH   5  15
BRANCH   6  17
ATOM     17  O   LIG    1        1.948   1.899  -1.208  0.00  0.00    -0.540 OA
ATOM     18  H   LIG    1        2.320   1.011  -1.305  0.00  0.00    +0.400 HD
ENDBRANCH   6  17
BRANCH   6  19
ATOM     19  O   LIG    1        2.037   1.820   1.136  0.00  0.00    -0.530 OA
ATOM     20  H   LIG    1        2.412   0.928   1.146  0.00  0.00    +0.400 HD
ENDBRANCH   6  19
TORSDOF 5
ENDMDL
MODEL      104
REMARK  Name = ZINC000004164422
REMARK                            x       y       z     vdW  Elec       q    Type
REMARK                         _______ _______ _______ _____ _____    ______ ____
ROOT
ATOM      1  C   LIG    1       -0.004   1.458   0.266  0.00  0.00    +0.080 C 
ATOM      2  C   LIG    1        0.028  -0.068   0.164  0.00  0.00    +0.110 C 
ATOM      3  O   LIG    1        0.708  -0.477  -1.043  0.00  0.00    -0.330 OA
ATOM      4  C   LIG    1        1.116  -1.842  -0.806  0.00  0.00    +0.470 C 
ATOM      5  C   LIG    1        1.602  -1.860   0.660  0.00  0.00    +0.180 C 
ATOM      6  C   LIG    1        0.868  -0.666   1.315  0.00  0.00    +0.130 C 
ENDROOT
BRANCH   4   7
ATOM      7  N   LIG    1       -0.020  -2.751  -0.980  0.00  0.00    -0.530 N 
ATOM      8  C   LIG    1       -1.249  -2.246  -1.316  0.00  0.00    +0.330 A 
ATOM      9  C   LIG    1       -2.295  -3.084  -1.477  0.00  0.00    -0.060 A 
ATOM     10  C   LIG    1       -2.097  -4.476  -1.294  0.00  0.00    +0.540 A 
ATOM     11  N   LIG    1       -0.872  -4.932  -0.963  0.00  0.00    -0.650 N 
ATOM     12  H   LIG    1       -0.730  -5.883  -0.835  0.00  0.00    +0.440 HD
ATOM     13  O   LIG    1       -3.025  -5.252  -1.433  0.00  0.00    -0.480 OA
ATOM     14  F   LIG    1       -3.514  -2.604  -1.809  0.00  0.00    -0.100 F 
ATOM     15  C   LIG    1        0.154  -4.075  -0.814  0.00  0.00    +0.700 A 
ATOM     16  O   LIG    1        1.253  -4.502  -0.516  0.00  0.00    -0.520 OA
ENDBRANCH   4   7
BRANCH   5  17
ATOM     17  O   LIG    1        3.018  -1.677   0.721  0.00  0.00    -0.540 OA
ATOM     18  H   LIG    1        3.377  -1.679   1.618  0.00  0.00    +0.390 HD
ENDBRANCH   5  17
BRANCH   6  19
ATOM     19  O   LIG    1        0.024  -1.118   2.376  0.00  0.00    -0.550 OA
ATOM     20  H   LIG    1       -0.461  -0.410   2.822  0.00  0.00    +0.390 HD
ENDBRANCH   6  19
TORSDOF 3
ENDMDL
MODEL      105
REMARK  Name = ZINC000004114169
REMARK                            x       y       z     vdW  Elec       q    Type
REMARK                         _______ _______ _______ _____ _____    ______ ____
ROOT
ATOM      1  O   LIG    1        0.002  -0.004   0.002  0.00  0.00    -0.420 OA
ATOM      2  C   LIG    1       -0.014   1.204   0.009  0.00  0.00    +0.450 C 
ATOM      3  O   LIG    1       -1.114   1.979   0.029  0.00  0.00    -0.320 OA
ATOM      4  C   LIG    1       -0.836   3.194  -0.730  0.00  0.00    +0.290 C 
ATOM      5  C   LIG    1        0.667   3.469  -0.510  0.00  0.00    +0.310 C 
ATOM      6  C   LIG    1        1.200   2.110   0.002  0.00  0.00    +0.200 C 
ENDROOT
BRANCH   4   7
ATOM      7  C   LIG    1       -1.662   4.340  -0.204  0.00  0.00    -0.090 A 
ATOM      8  C   LIG    1       -1.871   4.475   1.155  0.00  0.00    +0.050 A 
ATOM      9  C   LIG    1       -2.629   5.526   1.637  0.00  0.00    +0.010 A 
ATOM     10  C   LIG    1       -3.177   6.442   0.759  0.00  0.00    +0.010 A 
ATOM     11  C   LIG    1       -2.967   6.308  -0.600  0.00  0.00    +0.010 A 
ATOM     12  C   LIG    1       -2.205   5.259  -1.082  0.00  0.00    +0.040 A 
ENDBRANCH   4   7
BRANCH   5  13
ATOM     13  O   LIG    1        0.856   4.487   0.474  0.00  0.00    -0.520 OA
ATOM     14  H   LIG    1        1.783   4.698   0.650  0.00  0.00    +0.390 HD
ENDBRANCH   5  13
BRANCH   5  15
ATOM     15  O   LIG    1        1.299   3.834  -1.739  0.00  0.00    -0.530 OA
ATOM     16  H   LIG    1        2.245   4.017  -1.656  0.00  0.00    +0.400 HD
ENDBRANCH   5  15
BRANCH   6  17
ATOM     17  O   LIG    1        2.193   1.597  -0.889  0.00  0.00    -0.540 OA
ATOM     18  H   LIG    1        2.562   0.745  -0.617  0.00  0.00    +0.400 HD
ENDBRANCH   6  17
BRANCH   6  19
ATOM     19  O   LIG    1        1.735   2.249   1.319  0.00  0.00    -0.530 OA
ATOM     20  H   LIG    1        2.084   1.427   1.691  0.00  0.00    +0.400 HD
ENDBRANCH   6  19
TORSDOF 5
ENDMDL
MODEL      106
REMARK  Name = ZINC000004110794
REMARK                            x       y       z     vdW  Elec       q    Type
REMARK                         _______ _______ _______ _____ _____    ______ ____
ROOT
ATOM      1  C   LIG    1       -2.205  -0.437  -1.571  0.00  0.00    -0.440 C 
ATOM      2  C   LIG    1       -1.302  -0.893  -2.731  0.00  0.00    +0.120 C 
ATOM      3  C   LIG    1       -2.162  -0.816  -4.019  0.00  0.00    -0.290 C 
ATOM      4  S   LIG    1       -3.767  -1.509  -3.469  0.00  0.00    +2.400 S 
ATOM      5  O   LIG    1       -3.771  -2.914  -3.682  0.00  0.00    -0.920 OA
ATOM      6  O   LIG    1       -4.825  -0.712  -3.983  0.00  0.00    -0.930 OA
ATOM      7  C   LIG    1       -3.558  -1.166  -1.686  0.00  0.00    -0.290 C 
ENDROOT
BRANCH   1   8
ATOM      8  S   LIG    1       -1.421  -0.852   0.011  0.00  0.00    +2.620 S 
ATOM      9  O   LIG    1       -2.154  -0.293   1.092  0.00  0.00    -0.940 OA
ATOM     10  O   LIG    1       -1.017  -2.214   0.026  0.00  0.00    -0.940 OA
BRANCH   8  12
ATOM     11  C   LIG    1       -0.018   1.461   0.010  0.00  0.00    +0.300 C 
ATOM     12  N   LIG    1        0.002  -0.004   0.002  0.00  0.00    -1.120 NA
ATOM     13  H   LIG    1        0.849  -0.478  -0.009  0.00  0.00    +0.420 HD
ENDBRANCH   8  12
ENDBRANCH   1   8
TORSDOF 2
ENDMDL
MODEL      107
REMARK  Name = ZINC000253495598
REMARK                            x       y       z     vdW  Elec       q    Type
REMARK                         _______ _______ _______ _____ _____    ______ ____
ROOT
ATOM      1  C   LIG    1        0.633  -2.085   1.012  0.00  0.00    +0.520 C 
ATOM      2  N   LIG    1        1.208  -2.846   1.964  0.00  0.00    -0.610 N 
ATOM      3  C   LIG    1        1.872  -2.225   3.120  0.00  0.00    +0.280 C 
ATOM      4  C   LIG    1        3.273  -2.834   3.251  0.00  0.00    +0.190 C 
ATOM      5  N   LIG    1        3.154  -4.295   3.336  0.00  0.00    -0.690 NA
ATOM      6  H   LIG    1        4.042  -4.718   3.559  0.00  0.00    +0.360 HD
ATOM      7  C   LIG    1        2.593  -4.868   2.106  0.00  0.00    +0.170 C 
ATOM      8  C   LIG    1        2.432  -6.397   2.314  0.00  0.00    -0.290 C 
ATOM      9  S   LIG    1        0.951  -6.500   3.388  0.00  0.00    +2.410 S 
ATOM     10  C   LIG    1        0.228  -4.884   2.928  0.00  0.00    -0.310 C 
ATOM     11  O   LIG    1        1.353  -6.468   4.751  0.00  0.00    -0.920 OA
ATOM     12  O   LIG    1        0.104  -7.543   2.925  0.00  0.00    -0.940 OA
ATOM     13  C   LIG    1        1.177  -4.308   1.869  0.00  0.00    +0.280 C 
ATOM     14  O   LIG    1        0.084  -2.609   0.067  0.00  0.00    -0.510 OA
ENDROOT
BRANCH   1  15
ATOM     15  C   LIG    1        0.673  -0.582   1.123  0.00  0.00    +0.200 C 
BRANCH  15  17
ATOM     16  C   LIG    1       -0.017   1.425   0.010  0.00  0.00    +0.220 C 
ATOM     17  O   LIG    1        0.002  -0.004   0.002  0.00  0.00    -0.370 OA
ENDBRANCH  15  17
ENDBRANCH   1  15
TORSDOF 2
ENDMDL
MODEL      108
REMARK  Name = ZINC000047996663
REMARK                            x       y       z     vdW  Elec       q    Type
REMARK                         _______ _______ _______ _____ _____    ______ ____
ROOT
ATOM      1  C   LIG    1        0.633  -2.085   1.012  0.00  0.00    +0.520 C 
ATOM      2  N   LIG    1        1.208  -2.846   1.964  0.00  0.00    -0.620 N 
ATOM      3  C   LIG    1        1.874  -2.232   3.123  0.00  0.00    +0.280 C 
ATOM      4  C   LIG    1        1.324  -2.876   4.399  0.00  0.00    +0.190 C 
ATOM      5  N   LIG    1        1.462  -4.336   4.306  0.00  0.00    -0.530 NA
ATOM      6  C   LIG    1        0.662  -4.877   3.199  0.00  0.00    +0.170 C 
ATOM      7  C   LIG    1        1.180  -4.314   1.876  0.00  0.00    +0.300 C 
ATOM      8  O   LIG    1        0.084  -2.609   0.067  0.00  0.00    -0.520 OA
ENDROOT
BRANCH   1   9
ATOM      9  C   LIG    1        0.673  -0.582   1.123  0.00  0.00    +0.200 C 
BRANCH   9  11
ATOM     10  C   LIG    1       -0.017   1.425   0.010  0.00  0.00    +0.210 C 
ATOM     11  O   LIG    1        0.002  -0.004   0.002  0.00  0.00    -0.370 OA
ENDBRANCH   9  11
ENDBRANCH   1   9
BRANCH   5  12
ATOM     12  C   LIG    1        1.106  -4.981   5.577  0.00  0.00    +0.260 C 
BRANCH  12  13
ATOM     13  C   LIG    1        1.490  -6.437   5.526  0.00  0.00    +0.460 C 
ATOM     14  O   LIG    1        2.007  -6.891   4.533  0.00  0.00    -0.490 OA
BRANCH  13  15
ATOM     15  O   LIG    1        1.257  -7.230   6.583  0.00  0.00    -0.360 OA
ATOM     16  C   LIG    1        1.653  -8.622   6.464  0.00  0.00    +0.260 C 
ENDBRANCH  13  15
ENDBRANCH  12  13
ENDBRANCH   5  12
TORSDOF 5
ENDMDL
MODEL      109
REMARK  Name = ZINC000072314091
REMARK                            x       y       z     vdW  Elec       q    Type
REMARK                         _______ _______ _______ _____ _____    ______ ____
ROOT
ATOM      1  C   LIG    1       -3.014  -2.361   0.018  0.00  0.00    -0.030 C 
ATOM      2  C   LIG    1       -3.666  -2.414  -1.376  0.00  0.00    +0.330 C 
ATOM      3  N   LIG    1       -4.203  -3.726  -0.964  0.00  0.00    -0.620 N 
ATOM      4  C   LIG    1       -5.266  -4.469  -1.331  0.00  0.00    +0.530 C 
ATOM      5  O   LIG    1       -6.023  -4.063  -2.188  0.00  0.00    -0.520 OA
ATOM      6  C   LIG    1       -3.108  -3.898   0.011  0.00  0.00    +0.340 C 
ENDROOT
BRANCH   1   9
ATOM      7  N   LIG    1       -1.372  -0.511   0.012  0.00  0.00    -0.730 N 
ATOM      8  H   LIG    1       -2.118   0.109   0.023  0.00  0.00    +0.400 HD
ATOM      9  C   LIG    1       -1.601  -1.839   0.007  0.00  0.00    +0.520 C 
ATOM     10  O   LIG    1       -0.668  -2.615  -0.006  0.00  0.00    -0.530 OA
BRANCH   7  12
ATOM     11  C   LIG    1       -0.019   1.526   0.010  0.00  0.00    +0.030 C 
ATOM     12  C   LIG    1        0.002  -0.004   0.002  0.00  0.00    +0.250 C 
ENDBRANCH   7  12
ENDBRANCH   1   9
BRANCH   4  13
ATOM     13  C   LIG    1       -5.513  -5.792  -0.682  0.00  0.00    +0.520 C 
ATOM     14  N   LIG    1       -6.575  -6.535  -1.049  0.00  0.00    -0.670 N 
ATOM     15  H   LIG    1       -7.181  -6.211  -1.734  0.00  0.00    +0.410 HD
ATOM     16  O   LIG    1       -4.755  -6.198   0.175  0.00  0.00    -0.510 OA
BRANCH  14  17
ATOM     17  C   LIG    1       -6.817  -7.833  -0.413  0.00  0.00    +0.210 C 
ATOM     18  C   LIG    1       -8.254  -8.162  -0.005  0.00  0.00    +0.020 C 
ATOM     19  C   LIG    1       -7.619  -8.868  -1.204  0.00  0.00    +0.030 C 
ENDBRANCH  14  17
ENDBRANCH   4  13
TORSDOF 4
ENDMDL
MODEL      110
REMARK  Name = ZINC000257183017
REMARK                            x       y       z     vdW  Elec       q    Type
REMARK                         _______ _______ _______ _____ _____    ______ ____
ROOT
ATOM      1  O   LIG    1        0.135   0.005   0.016  0.00  0.00    -0.520 OA
ATOM      2  C   LIG    1       -0.014   1.212   0.009  0.00  0.00    +0.600 C 
ATOM      3  N   LIG    1       -1.253   1.738   0.083  0.00  0.00    -0.600 N 
ATOM      4  C   LIG    1       -1.377   3.187   0.059  0.00  0.00    +0.310 C 
ATOM      5  C   LIG    1       -2.055   3.639  -1.243  0.00  0.00    +0.170 C 
ATOM      6  C   LIG    1       -3.538   3.357  -1.109  0.00  0.00    +0.280 A 
ATOM      7  N   LIG    1       -4.506   4.199  -1.039  0.00  0.00    -0.270 NA
ATOM      8  N   LIG    1       -5.705   3.478  -0.922  0.00  0.00    -0.550 N 
ATOM      9  H   LIG    1       -6.596   3.853  -0.850  0.00  0.00    +0.460 HD
ATOM     10  C   LIG    1       -5.388   2.163  -0.926  0.00  0.00    +0.650 A 
ATOM     11  O   LIG    1       -6.168   1.232  -0.840  0.00  0.00    -0.550 OA
ATOM     12  N   LIG    1       -4.057   2.075  -1.043  0.00  0.00    -0.560 N 
ATOM     13  C   LIG    1       -3.220   0.866  -1.100  0.00  0.00    +0.340 C 
ATOM     14  C   LIG    1       -2.376   0.819   0.176  0.00  0.00    +0.290 C 
ENDROOT
BRANCH   2  15
ATOM     15  C   LIG    1        1.161   2.101  -0.088  0.00  0.00    -0.010 A 
ATOM     16  N   LIG    1        1.144   3.408  -0.255  0.00  0.00    -0.260 NA
ATOM     17  N   LIG    1        2.345   3.863  -0.295  0.00  0.00    -0.380 N 
ATOM     18  H   LIG    1        2.581   4.797  -0.411  0.00  0.00    +0.450 HD
ATOM     19  C   LIG    1        3.231   2.854  -0.153  0.00  0.00    +0.190 A 
ATOM     20  C   LIG    1        2.519   1.712  -0.013  0.00  0.00    -0.010 A 
ENDBRANCH   2  15
TORSDOF 1
ENDMDL
MODEL      111
REMARK  Name = ZINC000004625566
REMARK                            x       y       z     vdW  Elec       q    Type
REMARK                         _______ _______ _______ _____ _____    ______ ____
ROOT
ATOM      1  C   LIG    1       -0.344   1.477   0.046  0.00  0.00    +0.150 C 
ATOM      2  C   LIG    1       -0.150  -0.018   0.032  0.00  0.00    +0.190 A 
ATOM      3  C   LIG    1       -1.236  -0.830  -0.019  0.00  0.00    -0.090 A 
ATOM      4  C   LIG    1       -1.075  -2.215  -0.033  0.00  0.00    +0.050 A 
ATOM      5  C   LIG    1        0.213  -2.745   0.007  0.00  0.00    -0.250 A 
ATOM      6  C   LIG    1        1.317  -1.855   0.060  0.00  0.00    +0.530 A 
ATOM      7  O   LIG    1        2.454  -2.293   0.095  0.00  0.00    -0.530 OA
ATOM      8  N   LIG    1        1.105  -0.525   0.066  0.00  0.00    -0.600 N 
ATOM      9  H   LIG    1        1.863   0.079   0.102  0.00  0.00    +0.420 HD
ENDROOT
BRANCH   5  10
ATOM     10  C   LIG    1        0.425  -4.200  -0.007  0.00  0.00    +0.620 C 
ATOM     11  N   LIG    1        0.453  -4.866  -1.178  0.00  0.00    -0.700 N 
ATOM     12  H   LIG    1        0.405  -4.378  -2.015  0.00  0.00    +0.400 HD
ATOM     13  O   LIG    1        0.575  -4.803   1.040  0.00  0.00    -0.540 OA
BRANCH  11  14
ATOM     14  C   LIG    1        0.556  -6.327  -1.187  0.00  0.00    +0.280 C 
BRANCH  14  15
ATOM     15  C   LIG    1        0.568  -6.829  -2.633  0.00  0.00    +0.170 C 
BRANCH  15  16
ATOM     16  O   LIG    1        1.749  -6.362  -3.289  0.00  0.00    -0.570 OA
ATOM     17  H   LIG    1        1.823  -6.643  -4.211  0.00  0.00    +0.380 HD
ENDBRANCH  15  16
ENDBRANCH  14  15
ENDBRANCH  11  14
ENDBRANCH   5  10
BRANCH   4  18
ATOM     18  C   LIG    1       -2.275  -3.125  -0.090  0.00  0.00    +0.260 C 
BRANCH  18  19
ATOM     19  O   LIG    1       -1.839  -4.479  -0.230  0.00  0.00    -0.550 OA
ATOM     20  H   LIG    1       -2.561  -5.122  -0.273  0.00  0.00    +0.390 HD
ENDBRANCH  18  19
ENDBRANCH   4  18
TORSDOF 6
ENDMDL
MODEL      112
REMARK  Name = ZINC000004218922
REMARK                            x       y       z     vdW  Elec       q    Type
REMARK                         _______ _______ _______ _____ _____    ______ ____
ROOT
ATOM      1  C   LIG    1        1.740  -2.172  -3.034  0.00  0.00    +0.240 C 
ATOM      2  N   LIG    1        0.917  -1.790  -4.195  0.00  0.00    -0.720 N 
ATOM      3  H   LIG    1        0.598  -0.900  -4.411  0.00  0.00    +0.440 HD
ATOM      4  C   LIG    1        0.696  -2.916  -4.897  0.00  0.00    +0.700 C 
ATOM      5  N   LIG    1        1.271  -3.987  -4.339  0.00  0.00    -0.680 N 
ATOM      6  H   LIG    1        1.220  -4.885  -4.703  0.00  0.00    +0.440 HD
ATOM      7  O   LIG    1        0.046  -2.955  -5.923  0.00  0.00    -0.540 OA
ATOM      8  C   LIG    1        1.934  -3.665  -3.207  0.00  0.00    +0.530 C 
ATOM      9  O   LIG    1        2.553  -4.414  -2.482  0.00  0.00    -0.450 OA
ENDROOT
BRANCH   1  10
ATOM     10  C   LIG    1        0.999  -1.873  -1.729  0.00  0.00    +0.100 C 
BRANCH  10  11
ATOM     11  C   LIG    1        0.880  -0.358  -1.545  0.00  0.00    -0.350 C 
BRANCH  11  13
ATOM     12  C   LIG    1       -0.022   1.810   0.012  0.00  0.00    -0.270 C 
ATOM     13  S   LIG    1        0.002  -0.004   0.002  0.00  0.00    +2.420 S 
ATOM     14  O   LIG    1       -1.334  -0.474  -0.117  0.00  0.00    -0.930 OA
ATOM     15  O   LIG    1        0.801  -0.452   1.088  0.00  0.00    -0.930 OA
ENDBRANCH  11  13
ENDBRANCH  10  11
ENDBRANCH   1  10
TORSDOF 3
ENDMDL
MODEL      113
REMARK  Name = ZINC000004218921
REMARK                            x       y       z     vdW  Elec       q    Type
REMARK                         _______ _______ _______ _____ _____    ______ ____
ROOT
ATOM      1  C   LIG    1        1.740  -2.172  -3.034  0.00  0.00    +0.240 C 
ATOM      2  N   LIG    1        3.152  -1.766  -2.933  0.00  0.00    -0.720 N 
ATOM      3  H   LIG    1        3.488  -0.869  -2.780  0.00  0.00    +0.440 HD
ATOM      4  C   LIG    1        3.885  -2.882  -3.096  0.00  0.00    +0.700 C 
ATOM      5  N   LIG    1        3.128  -3.968  -3.291  0.00  0.00    -0.680 N 
ATOM      6  H   LIG    1        3.480  -4.861  -3.427  0.00  0.00    +0.440 HD
ATOM      7  O   LIG    1        5.100  -2.902  -3.069  0.00  0.00    -0.540 OA
ATOM      8  C   LIG    1        1.810  -3.666  -3.277  0.00  0.00    +0.530 C 
ATOM      9  O   LIG    1        0.882  -4.432  -3.424  0.00  0.00    -0.450 OA
ENDROOT
BRANCH   1  10
ATOM     10  C   LIG    1        0.999  -1.873  -1.729  0.00  0.00    +0.100 C 
BRANCH  10  11
ATOM     11  C   LIG    1        0.880  -0.358  -1.545  0.00  0.00    -0.350 C 
BRANCH  11  13
ATOM     12  C   LIG    1       -0.022   1.810   0.012  0.00  0.00    -0.270 C 
ATOM     13  S   LIG    1        0.002  -0.004   0.002  0.00  0.00    +2.420 S 
ATOM     14  O   LIG    1       -1.334  -0.474  -0.117  0.00  0.00    -0.930 OA
ATOM     15  O   LIG    1        0.801  -0.452   1.088  0.00  0.00    -0.930 OA
ENDBRANCH  11  13
ENDBRANCH  10  11
ENDBRANCH   1  10
TORSDOF 3
ENDMDL
MODEL      114
REMARK  Name = ZINC000004728715
REMARK                            x       y       z     vdW  Elec       q    Type
REMARK                         _______ _______ _______ _____ _____    ______ ____
ROOT
ATOM      1  C   LIG    1       -0.018   1.461   0.010  0.00  0.00    +0.330 C 
ATOM      2  N   LIG    1        0.002  -0.004   0.002  0.00  0.00    -0.640 N 
ATOM      3  C   LIG    1        0.008  -0.774  -1.094  0.00  0.00    +0.700 C 
ATOM      4  N   LIG    1        0.027  -2.088  -0.834  0.00  0.00    -0.640 N 
ATOM      5  C   LIG    1        0.036  -2.293   0.622  0.00  0.00    +0.490 C 
ATOM      6  C   LIG    1        0.037  -3.152  -1.841  0.00  0.00    +0.340 C 
ATOM      7  O   LIG    1       -0.003  -0.322  -2.222  0.00  0.00    -0.570 OA
ATOM      8  C   LIG    1        0.025  -0.863   1.196  0.00  0.00    +0.500 C 
ENDROOT
BRANCH   5   9
ATOM      9  N   LIG    1        1.250  -3.001   1.034  0.00  0.00    -0.740 N 
ATOM     10  H   LIG    1        2.103  -2.538   1.041  0.00  0.00    +0.400 HD
ATOM     11  C   LIG    1        1.182  -4.295   1.404  0.00  0.00    +0.710 C 
ATOM     12  O   LIG    1        0.114  -4.875   1.396  0.00  0.00    -0.590 OA
ATOM     13  N   LIG    1        2.300  -4.947   1.784  0.00  0.00    -0.860 N 
ATOM     14  H   LIG    1        2.251  -5.878   2.050  0.00  0.00    +0.420 HD
ATOM     15  H   LIG    1        3.152  -4.484   1.791  0.00  0.00    +0.400 HD
ENDBRANCH   5   9
BRANCH   8  16
ATOM     16  N   LIG    1       -1.176  -0.642   2.005  0.00  0.00    -0.740 N 
ATOM     17  H   LIG    1       -2.042  -0.933   1.678  0.00  0.00    +0.400 HD
ATOM     18  C   LIG    1       -1.078  -0.035   3.204  0.00  0.00    +0.710 C 
ATOM     19  O   LIG    1        0.006   0.330   3.615  0.00  0.00    -0.590 OA
ATOM     20  N   LIG    1       -2.183   0.168   3.949  0.00  0.00    -0.860 N 
ATOM     21  H   LIG    1       -2.113   0.605   4.812  0.00  0.00    +0.420 HD
ATOM     22  H   LIG    1       -3.049  -0.123   3.622  0.00  0.00    +0.400 HD
ENDBRANCH   8  16
TORSDOF 2
ENDMDL
MODEL      115
REMARK  Name = ZINC000002293661
REMARK                            x       y       z     vdW  Elec       q    Type
REMARK                         _______ _______ _______ _____ _____    ______ ____
ROOT
ATOM      1  C   LIG    1       -0.430   1.424  -0.079  0.00  0.00    +0.350 C 
ATOM      2  N   LIG    1       -0.196  -0.022  -0.041  0.00  0.00    -0.550 N 
ATOM      3  C   LIG    1        0.051  -0.686  -1.187  0.00  0.00    +0.550 A 
ATOM      4  C   LIG    1        0.275  -2.075  -1.151  0.00  0.00    -0.040 A 
ATOM      5  C   LIG    1        0.237  -2.725   0.066  0.00  0.00    +0.280 A 
ATOM      6  N   LIG    1       -0.021  -1.996   1.210  0.00  0.00    -0.530 N 
ATOM      7  C   LIG    1       -0.065  -2.670   2.510  0.00  0.00    +0.350 C 
ATOM      8  O   LIG    1        0.079  -0.088  -2.248  0.00  0.00    -0.500 OA
ATOM      9  C   LIG    1       -0.226  -0.668   1.138  0.00  0.00    +0.700 A 
ATOM     10  O   LIG    1       -0.451  -0.043   2.156  0.00  0.00    -0.530 OA
ENDROOT
BRANCH   5  11
ATOM     11  C   LIG    1        0.467  -4.173   0.143  0.00  0.00    +0.140 A 
ATOM     12  N   LIG    1        0.600  -4.995  -0.873  0.00  0.00    -0.180 NA
ATOM     13  N   LIG    1        0.789  -6.189  -0.434  0.00  0.00    -0.330 NA
ATOM     14  C   LIG    1        0.784  -6.176   0.883  0.00  0.00    +0.450 A 
ATOM     15  O   LIG    1        0.587  -4.905   1.274  0.00  0.00    -0.240 OA
BRANCH  14  16
ATOM     16  N   LIG    1        0.955  -7.264   1.708  0.00  0.00    -0.780 N 
ATOM     17  H   LIG    1        0.935  -7.150   2.671  0.00  0.00    +0.420 HD
ATOM     18  H   LIG    1        1.095  -8.144   1.327  0.00  0.00    +0.440 HD
ENDBRANCH  14  16
ENDBRANCH   5  11
TORSDOF 2
ENDMDL
MODEL      116
REMARK  Name = ZINC000005943366
REMARK                            x       y       z     vdW  Elec       q    Type
REMARK                         _______ _______ _______ _____ _____    ______ ____
ROOT
ATOM      1  C   LIG    1        0.047  -1.812   5.055  0.00  0.00    +0.200 A 
ATOM      2  C   LIG    1       -1.075  -2.052   5.768  0.00  0.00    -0.070 A 
ATOM      3  C   LIG    1       -1.046  -1.888   7.174  0.00  0.00    +0.550 A 
ATOM      4  N   LIG    1        0.098  -1.497   7.771  0.00  0.00    -0.660 N 
ATOM      5  H   LIG    1        0.126  -1.382   8.733  0.00  0.00    +0.440 HD
ATOM      6  C   LIG    1        1.202  -1.265   7.036  0.00  0.00    +0.700 A 
ATOM      7  O   LIG    1        2.227  -0.913   7.588  0.00  0.00    -0.530 OA
ATOM      8  O   LIG    1       -2.045  -2.099   7.838  0.00  0.00    -0.500 OA
ATOM      9  N   LIG    1        1.189  -1.422   5.700  0.00  0.00    -0.630 N 
ATOM     10  H   LIG    1        1.995  -1.250   5.188  0.00  0.00    +0.440 HD
ENDROOT
BRANCH   1  11
ATOM     11  C   LIG    1        0.043  -1.979   3.557  0.00  0.00    +0.180 C 
BRANCH  11  12
ATOM     12  S   LIG    1        0.026  -0.351   2.768  0.00  0.00    +0.070 S 
BRANCH  12  18
ATOM     13  C   LIG    1       -0.018   1.461   0.010  0.00  0.00    +0.390 C 
ATOM     14  N   LIG    1        0.002  -0.004   0.002  0.00  0.00    -0.360 N 
ATOM     15  N   LIG    1        0.009  -0.852  -1.120  0.00  0.00    -0.070 NA
ATOM     16  N   LIG    1        0.027  -2.061  -0.674  0.00  0.00    -0.030 NA
ATOM     17  N   LIG    1        0.032  -2.063   0.610  0.00  0.00    -0.330 NA
ATOM     18  C   LIG    1        0.024  -0.832   1.073  0.00  0.00    +0.200 A 
ENDBRANCH  12  18
ENDBRANCH  11  12
ENDBRANCH   1  11
TORSDOF 3
ENDMDL
MODEL      117
REMARK  Name = ZINC000008709757
REMARK                            x       y       z     vdW  Elec       q    Type
REMARK                         _______ _______ _______ _____ _____    ______ ____
ROOT
ATOM      1  N   LIG    1       -3.087  -3.596  -1.065  0.00  0.00    -0.560 N 
ATOM      2  C   LIG    1       -3.268  -3.874  -2.374  0.00  0.00    +0.510 C 
ATOM      3  C   LIG    1       -3.220  -5.369  -2.476  0.00  0.00    +0.510 C 
ATOM      4  N   LIG    1       -3.016  -5.808  -1.215  0.00  0.00    -0.570 N 
ATOM      5  C   LIG    1       -2.896  -7.211  -0.810  0.00  0.00    +0.370 C 
ATOM      6  O   LIG    1       -3.338  -6.042  -3.478  0.00  0.00    -0.410 OA
ATOM      7  O   LIG    1       -3.434  -3.081  -3.277  0.00  0.00    -0.400 OA
ATOM      8  C   LIG    1       -2.934  -4.749  -0.394  0.00  0.00    +0.720 C 
ATOM      9  O   LIG    1       -2.753  -4.824   0.805  0.00  0.00    -0.480 OA
ENDROOT
BRANCH   1  10
ATOM     10  C   LIG    1       -3.057  -2.256  -0.474  0.00  0.00    +0.370 C 
BRANCH  10  13
ATOM     11  N   LIG    1       -1.372  -0.511   0.012  0.00  0.00    -0.720 N 
ATOM     12  H   LIG    1       -2.087   0.033   0.377  0.00  0.00    +0.400 HD
ATOM     13  C   LIG    1       -1.643  -1.734  -0.485  0.00  0.00    +0.500 C 
ATOM     14  O   LIG    1       -0.749  -2.415  -0.941  0.00  0.00    -0.530 OA
BRANCH  11  16
ATOM     15  C   LIG    1       -0.019   1.526   0.010  0.00  0.00    +0.040 C 
ATOM     16  C   LIG    1        0.002  -0.004   0.002  0.00  0.00    +0.230 C 
ATOM     17  C   LIG    1        0.742  -0.511   1.242  0.00  0.00    +0.020 C 
ENDBRANCH  11  16
ENDBRANCH  10  13
ENDBRANCH   1  10
TORSDOF 3
ENDMDL
MODEL      118
REMARK  Name = ZINC000022606600
REMARK                            x       y       z     vdW  Elec       q    Type
REMARK                         _______ _______ _______ _____ _____    ______ ____
ROOT
ATOM      1  C   LIG    1       -1.384  -0.909   1.776  0.00  0.00    +0.500 C 
ATOM      2  N   LIG    1       -1.610  -1.563   2.933  0.00  0.00    -0.620 N 
ATOM      3  C   LIG    1       -0.496  -2.117   3.719  0.00  0.00    +0.240 C 
ATOM      4  C   LIG    1       -0.646  -1.645   5.170  0.00  0.00    +0.220 C 
ATOM      5  O   LIG    1       -1.964  -1.952   5.631  0.00  0.00    -0.380 OA
ATOM      6  C   LIG    1       -3.006  -1.288   4.912  0.00  0.00    +0.220 C 
ATOM      7  C   LIG    1       -2.976  -1.737   3.451  0.00  0.00    +0.260 C 
ATOM      8  O   LIG    1       -2.315  -0.455   1.145  0.00  0.00    -0.520 OA
ENDROOT
BRANCH   1   9
ATOM      9  C   LIG    1        0.024  -0.743   1.267  0.00  0.00    +0.330 C 
BRANCH   9  11
ATOM     10  C   LIG    1       -0.018   1.461   0.010  0.00  0.00    +0.310 C 
ATOM     11  N   LIG    1        0.002  -0.004   0.002  0.00  0.00    -0.990 NA
BRANCH  11  12
ATOM     12  S   LIG    1       -0.000  -0.824  -1.437  0.00  0.00    +2.610 S 
ATOM     13  O   LIG    1       -0.626   0.068  -2.348  0.00  0.00    -0.940 OA
ATOM     14  O   LIG    1       -0.586  -2.081  -1.123  0.00  0.00    -0.950 OA
ATOM     15  C   LIG    1        1.755  -1.025  -1.846  0.00  0.00    -0.280 C 
ENDBRANCH  11  12
ENDBRANCH   9  11
ENDBRANCH   1   9
TORSDOF 3
ENDMDL
MODEL      119
REMARK  Name = ZINC000004298574
REMARK                            x       y       z     vdW  Elec       q    Type
REMARK                         _______ _______ _______ _____ _____    ______ ____
ROOT
ATOM      1  C   LIG    1       -4.864   0.688   0.029  0.00  0.00    +0.210 C 
ATOM      2  C   LIG    1       -4.830  -0.109  -1.291  0.00  0.00    -0.300 C 
ATOM      3  S   LIG    1       -6.611  -0.407  -1.635  0.00  0.00    +2.410 S 
ATOM      4  C   LIG    1       -7.154   1.212  -0.955  0.00  0.00    -0.310 C 
ATOM      5  O   LIG    1       -7.091  -1.462  -0.813  0.00  0.00    -0.900 OA
ATOM      6  O   LIG    1       -6.831  -0.438  -3.039  0.00  0.00    -0.900 OA
ATOM      7  C   LIG    1       -6.179   1.436   0.216  0.00  0.00    +0.210 C 
ENDROOT
BRANCH   1   8
ATOM      8  N   LIG    1       -3.761   1.658   0.029  0.00  0.00    -0.490 N 
ATOM      9  H   LIG    1       -3.826   2.242  -0.791  0.00  0.00    +0.430 HD
ATOM     10  H   LIG    1       -3.818   2.233   0.856  0.00  0.00    +0.430 HD
BRANCH   8  11
ATOM     11  C   LIG    1       -2.479   0.941   0.019  0.00  0.00    +0.270 C 
BRANCH  11  12
ATOM     12  C   LIG    1       -1.330   1.951   0.019  0.00  0.00    -0.060 C 
BRANCH  12  14
ATOM     13  O   LIG    1        0.002  -0.004   0.002  0.00  0.00    -0.690 OA
ATOM     14  C   LIG    1       -0.015   1.215   0.009  0.00  0.00    +0.500 C 
ATOM     15  O   LIG    1        1.033   1.839   0.002  0.00  0.00    -0.670 OA
ENDBRANCH  12  14
ENDBRANCH  11  12
ENDBRANCH   8  11
ENDBRANCH   1   8
BRANCH   7  16
ATOM     16  O   LIG    1       -5.903   2.833   0.329  0.00  0.00    -0.570 OA
ATOM     17  H   LIG    1       -6.683   3.374   0.517  0.00  0.00    +0.420 HD
ENDBRANCH   7  16
TORSDOF 5
ENDMDL
MODEL      120
REMARK  Name = ZINC000048333412
REMARK                            x       y       z     vdW  Elec       q    Type
REMARK                         _______ _______ _______ _____ _____    ______ ____
ROOT
ATOM      1  C   LIG    1        1.135  -4.288  -1.918  0.00  0.00    +0.240 C 
ATOM      2  C   LIG    1       -0.071  -4.127  -2.846  0.00  0.00    +0.060 C 
ENDROOT
BRANCH   1   3
ATOM      3  C   LIG    1        2.292  -4.865  -2.693  0.00  0.00    +0.520 C 
ATOM      4  N   LIG    1        2.415  -6.200  -2.825  0.00  0.00    -0.610 N 
ATOM      5  C   LIG    1        1.371  -7.108  -2.325  0.00  0.00    +0.270 C 
ATOM      6  C   LIG    1        0.985  -8.073  -3.450  0.00  0.00    +0.170 C 
ATOM      7  N   LIG    1        2.193  -8.736  -3.959  0.00  0.00    -0.540 NA
ATOM      8  C   LIG    1        3.123  -7.766  -4.554  0.00  0.00    +0.170 C 
ATOM      9  C   LIG    1        1.849  -9.793  -4.919  0.00  0.00    +0.190 C 
ATOM     10  C   LIG    1        3.594  -6.788  -3.479  0.00  0.00    +0.300 C 
ATOM     11  O   LIG    1        3.112  -4.127  -3.197  0.00  0.00    -0.530 OA
ENDBRANCH   1   3
BRANCH   1  13
ATOM     12  C   LIG    1        0.896  -2.500  -0.280  0.00  0.00    +0.520 C 
ATOM     13  N   LIG    1        1.513  -2.980  -1.377  0.00  0.00    -0.720 N 
ATOM     14  H   LIG    1        2.208  -2.459  -1.810  0.00  0.00    +0.410 HD
ATOM     15  O   LIG    1        0.027  -3.151   0.261  0.00  0.00    -0.520 OA
BRANCH  12  16
ATOM     16  C   LIG    1        1.285  -1.155   0.276  0.00  0.00    +0.200 C 
BRANCH  16  18
ATOM     17  C   LIG    1        0.785   0.390   2.040  0.00  0.00    +0.220 C 
ATOM     18  O   LIG    1        0.494  -0.870   1.432  0.00  0.00    -0.370 OA
ENDBRANCH  16  18
ENDBRANCH  12  16
ENDBRANCH   1  13
TORSDOF 4
ENDMDL
MODEL      121
REMARK  Name = ZINC000004293686
REMARK                            x       y       z     vdW  Elec       q    Type
REMARK                         _______ _______ _______ _____ _____    ______ ____
ROOT
ATOM      1  C   LIG    1       -1.136  -2.159   0.001  0.00  0.00    +0.250 C 
ATOM      2  C   LIG    1       -1.146  -2.662  -1.444  0.00  0.00    +0.350 C 
ATOM      3  O   LIG    1       -2.353  -2.243  -2.085  0.00  0.00    -0.390 OA
ATOM      4  C   LIG    1       -3.542  -2.750  -1.477  0.00  0.00    +0.150 C 
ATOM      5  C   LIG    1       -3.629  -2.250  -0.033  0.00  0.00    +0.120 C 
ATOM      6  C   LIG    1       -2.374  -2.691   0.729  0.00  0.00    +0.180 C 
ENDROOT
BRANCH   1   9
ATOM      7  C   LIG    1       -0.672   1.488   1.070  0.00  0.00    +0.100 C 
ATOM      8  C   LIG    1       -0.652  -0.019   1.061  0.00  0.00    +0.510 C 
ATOM      9  N   LIG    1       -1.156  -0.694   0.009  0.00  0.00    -0.690 N 
ATOM     10  H   LIG    1       -1.532  -0.210  -0.742  0.00  0.00    +0.410 HD
ATOM     11  O   LIG    1       -0.182  -0.624   2.001  0.00  0.00    -0.550 OA
ENDBRANCH   1   9
BRANCH   5  12
ATOM     12  O   LIG    1       -3.716  -0.824  -0.026  0.00  0.00    -0.540 OA
ATOM     13  H   LIG    1       -4.486  -0.474  -0.495  0.00  0.00    +0.380 HD
ENDBRANCH   5  12
BRANCH   2  14
ATOM     14  O   LIG    1       -0.023  -2.124  -2.144  0.00  0.00    -0.540 OA
ATOM     15  H   LIG    1        0.035  -2.402  -3.069  0.00  0.00    +0.390 HD
ENDBRANCH   2  14
BRANCH   6  16
ATOM     16  O   LIG    1       -2.323  -4.119   0.781  0.00  0.00    -0.550 OA
ATOM     17  H   LIG    1       -3.082  -4.523   1.223  0.00  0.00    +0.390 HD
ENDBRANCH   6  16
BRANCH   4  18
ATOM     18  C   LIG    1       -4.763  -2.263  -2.260  0.00  0.00    +0.200 C 
BRANCH  18  19
ATOM     19  O   LIG    1       -4.742  -2.824  -3.574  0.00  0.00    -0.560 OA
ATOM     20  H   LIG    1       -5.488  -2.557  -4.128  0.00  0.00    +0.380 HD
ENDBRANCH  18  19
ENDBRANCH   4  18
TORSDOF 6
ENDMDL
MODEL      122
REMARK  Name = ZINC000004298573
REMARK                            x       y       z     vdW  Elec       q    Type
REMARK                         _______ _______ _______ _____ _____    ______ ____
ROOT
ATOM      1  C   LIG    1       -4.864   0.688   0.029  0.00  0.00    +0.200 C 
ATOM      2  C   LIG    1       -4.860  -0.107   1.360  0.00  0.00    -0.300 C 
ATOM      3  S   LIG    1       -6.567  -0.789   1.374  0.00  0.00    +2.420 S 
ATOM      4  C   LIG    1       -7.344   0.682   0.605  0.00  0.00    -0.310 C 
ATOM      5  O   LIG    1       -7.016  -0.924   2.716  0.00  0.00    -0.900 OA
ATOM      6  O   LIG    1       -6.647  -1.892   0.482  0.00  0.00    -0.900 OA
ATOM      7  C   LIG    1       -6.199   1.427  -0.093  0.00  0.00    +0.200 C 
ENDROOT
BRANCH   1   8
ATOM      8  N   LIG    1       -3.761   1.658   0.029  0.00  0.00    -0.500 N 
ATOM      9  H   LIG    1       -3.826   2.242  -0.791  0.00  0.00    +0.430 HD
ATOM     10  H   LIG    1       -3.818   2.233   0.856  0.00  0.00    +0.420 HD
BRANCH   8  11
ATOM     11  C   LIG    1       -2.479   0.941   0.019  0.00  0.00    +0.280 C 
BRANCH  11  12
ATOM     12  C   LIG    1       -1.330   1.951   0.019  0.00  0.00    -0.060 C 
BRANCH  12  14
ATOM     13  O   LIG    1        0.002  -0.004   0.002  0.00  0.00    -0.690 OA
ATOM     14  C   LIG    1       -0.015   1.215   0.009  0.00  0.00    +0.500 C 
ATOM     15  O   LIG    1        1.033   1.839   0.002  0.00  0.00    -0.670 OA
ENDBRANCH  12  14
ENDBRANCH  11  12
ENDBRANCH   8  11
ENDBRANCH   1   8
BRANCH   7  16
ATOM     16  O   LIG    1       -6.516   1.571  -1.479  0.00  0.00    -0.550 OA
ATOM     17  H   LIG    1       -7.317   2.086  -1.647  0.00  0.00    +0.410 HD
ENDBRANCH   7  16
TORSDOF 5
ENDMDL
MODEL      123
REMARK  Name = ZINC000257184506
REMARK                            x       y       z     vdW  Elec       q    Type
REMARK                         _______ _______ _______ _____ _____    ______ ____
ROOT
ATOM      1  N   LIG    1        0.796  -0.399  -1.397  0.00  0.00    -1.010 NA
ATOM      2  C   LIG    1        0.006  -0.578  -2.654  0.00  0.00    +0.330 C 
ATOM      3  C   LIG    1        0.841  -1.572  -3.499  0.00  0.00    +0.170 C 
ATOM      4  C   LIG    1        1.181  -2.795  -2.688  0.00  0.00    +0.280 A 
ATOM      5  N   LIG    1        0.785  -3.979  -3.114  0.00  0.00    -0.300 NA
ATOM      6  N   LIG    1        1.211  -4.947  -2.202  0.00  0.00    -0.540 N 
ATOM      7  H   LIG    1        1.061  -5.904  -2.264  0.00  0.00    +0.460 HD
ATOM      8  C   LIG    1        1.869  -4.302  -1.219  0.00  0.00    +0.640 A 
ATOM      9  O   LIG    1        2.384  -4.804  -0.236  0.00  0.00    -0.550 OA
ATOM     10  N   LIG    1        1.846  -2.988  -1.536  0.00  0.00    -0.530 N 
ATOM     11  C   LIG    1        2.471  -1.933  -0.730  0.00  0.00    +0.290 C 
ATOM     12  C   LIG    1        2.242  -0.555  -1.367  0.00  0.00    +0.340 C 
ENDROOT
BRANCH   1  14
ATOM     13  C   LIG    1       -0.022   1.810   0.012  0.00  0.00    -0.280 C 
ATOM     14  S   LIG    1        0.002  -0.004   0.002  0.00  0.00    +2.600 S 
ATOM     15  O   LIG    1       -1.309  -0.519  -0.182  0.00  0.00    -0.950 OA
ATOM     16  O   LIG    1        0.845  -0.497   1.035  0.00  0.00    -0.950 OA
ENDBRANCH   1  14
TORSDOF 1
ENDMDL
MODEL      124
REMARK  Name = ZINC000078931494
REMARK                            x       y       z     vdW  Elec       q    Type
REMARK                         _______ _______ _______ _____ _____    ______ ____
ROOT
ATOM      1  C   LIG    1        1.133  -4.287  -1.921  0.00  0.00    +0.240 C 
ATOM      2  C   LIG    1        2.371  -4.824  -1.159  0.00  0.00    +0.220 C 
ATOM      3  O   LIG    1        3.407  -4.833  -2.164  0.00  0.00    -0.350 OA
ATOM      4  C   LIG    1        2.803  -5.289  -3.386  0.00  0.00    +0.130 C 
ATOM      5  C   LIG    1        1.304  -4.933  -3.317  0.00  0.00    +0.150 C 
ENDROOT
BRANCH   1   7
ATOM      6  C   LIG    1        0.614  -2.074  -1.042  0.00  0.00    +0.520 C 
ATOM      7  N   LIG    1        1.170  -2.825  -2.014  0.00  0.00    -0.720 N 
ATOM      8  H   LIG    1        1.595  -2.398  -2.774  0.00  0.00    +0.400 HD
ATOM      9  O   LIG    1        0.082  -2.608  -0.092  0.00  0.00    -0.510 OA
BRANCH   6  10
ATOM     10  C   LIG    1        0.652  -0.570  -1.138  0.00  0.00    +0.200 C 
BRANCH  10  12
ATOM     11  C   LIG    1       -0.017   1.425   0.010  0.00  0.00    +0.220 C 
ATOM     12  O   LIG    1        0.002  -0.004   0.002  0.00  0.00    -0.370 OA
ENDBRANCH  10  12
ENDBRANCH   6  10
ENDBRANCH   1   7
BRANCH   5  13
ATOM     13  O   LIG    1        0.504  -6.112  -3.427  0.00  0.00    -0.550 OA
ATOM     14  H   LIG    1        0.618  -6.588  -4.261  0.00  0.00    +0.390 HD
ENDBRANCH   5  13
BRANCH   4  15
ATOM     15  C   LIG    1        3.452  -4.588  -4.581  0.00  0.00    +0.190 C 
BRANCH  15  16
ATOM     16  O   LIG    1        4.814  -5.005  -4.695  0.00  0.00    -0.560 OA
ATOM     17  H   LIG    1        5.290  -4.599  -5.433  0.00  0.00    +0.380 HD
ENDBRANCH  15  16
ENDBRANCH   4  15
TORSDOF 6
ENDMDL
MODEL      125
REMARK  Name = ZINC000085468596
REMARK                            x       y       z     vdW  Elec       q    Type
REMARK                         _______ _______ _______ _____ _____    ______ ____
ROOT
ATOM      1  C   LIG    1        1.169  -4.307   1.857  0.00  0.00    +0.250 C 
ATOM      2  C   LIG    1       -0.129  -4.849   2.490  0.00  0.00    -0.010 C 
ATOM      3  C   LIG    1        0.305  -6.170   3.173  0.00  0.00    +0.180 C 
ATOM      4  C   LIG    1        1.706  -5.821   3.734  0.00  0.00    +0.010 C 
ATOM      5  C   LIG    1        2.336  -4.925   2.646  0.00  0.00    +0.040 C 
ENDROOT
BRANCH   1   7
ATOM      6  C   LIG    1        0.633  -2.085   1.012  0.00  0.00    +0.510 C 
ATOM      7  N   LIG    1        1.208  -2.846   1.964  0.00  0.00    -0.730 N 
ATOM      8  H   LIG    1        1.647  -2.427   2.721  0.00  0.00    +0.400 HD
ATOM      9  O   LIG    1        0.084  -2.609   0.067  0.00  0.00    -0.510 OA
BRANCH   6  10
ATOM     10  C   LIG    1        0.673  -0.582   1.123  0.00  0.00    +0.200 C 
BRANCH  10  12
ATOM     11  C   LIG    1       -0.017   1.425   0.010  0.00  0.00    +0.210 C 
ATOM     12  O   LIG    1        0.002  -0.004   0.002  0.00  0.00    -0.370 OA
ENDBRANCH  10  12
ENDBRANCH   6  10
ENDBRANCH   1   7
BRANCH   3  13
ATOM     13  O   LIG    1        0.387  -7.230   2.219  0.00  0.00    -0.560 OA
ATOM     14  H   LIG    1       -0.452  -7.432   1.782  0.00  0.00    +0.380 HD
ENDBRANCH   3  13
BRANCH   4  15
ATOM     15  C   LIG    1        2.535  -7.092   3.931  0.00  0.00    +0.190 C 
BRANCH  15  16
ATOM     16  O   LIG    1        1.948  -7.888   4.961  0.00  0.00    -0.570 OA
ATOM     17  H   LIG    1        2.423  -8.712   5.140  0.00  0.00    +0.380 HD
ENDBRANCH  15  16
ENDBRANCH   4  15
TORSDOF 6
ENDMDL
MODEL      126
REMARK  Name = ZINC000227607153
REMARK                            x       y       z     vdW  Elec       q    Type
REMARK                         _______ _______ _______ _____ _____    ______ ____
ROOT
ATOM      1  C   LIG    1        1.133  -4.287  -1.921  0.00  0.00    +0.240 C 
ATOM      2  C   LIG    1        1.277  -4.920  -3.320  0.00  0.00    +0.040 C 
ATOM      3  C   LIG    1        2.142  -6.180  -3.145  0.00  0.00    +0.010 C 
ATOM      4  C   LIG    1        2.494  -6.269  -1.645  0.00  0.00    +0.170 C 
ATOM      5  C   LIG    1        2.360  -4.811  -1.135  0.00  0.00    -0.010 C 
ENDROOT
BRANCH   1   7
ATOM      6  C   LIG    1        0.614  -2.074  -1.042  0.00  0.00    +0.510 C 
ATOM      7  N   LIG    1        1.170  -2.825  -2.014  0.00  0.00    -0.720 N 
ATOM      8  H   LIG    1        1.595  -2.398  -2.774  0.00  0.00    +0.400 HD
ATOM      9  O   LIG    1        0.082  -2.608  -0.092  0.00  0.00    -0.510 OA
BRANCH   6  10
ATOM     10  C   LIG    1        0.652  -0.570  -1.138  0.00  0.00    +0.200 C 
BRANCH  10  12
ATOM     11  C   LIG    1       -0.017   1.425   0.010  0.00  0.00    +0.220 C 
ATOM     12  O   LIG    1        0.002  -0.004   0.002  0.00  0.00    -0.370 OA
ENDBRANCH  10  12
ENDBRANCH   6  10
ENDBRANCH   1   7
BRANCH   4  13
ATOM     13  O   LIG    1        3.831  -6.743  -1.472  0.00  0.00    -0.550 OA
ATOM     14  H   LIG    1        4.105  -6.818  -0.548  0.00  0.00    +0.380 HD
ENDBRANCH   4  13
BRANCH   3  15
ATOM     15  C   LIG    1        1.355  -7.420  -3.574  0.00  0.00    +0.180 C 
BRANCH  15  16
ATOM     16  O   LIG    1        2.205  -8.568  -3.517  0.00  0.00    -0.570 OA
ATOM     17  H   LIG    1        1.771  -9.392  -3.776  0.00  0.00    +0.380 HD
ENDBRANCH  15  16
ENDBRANCH   3  15
TORSDOF 6
ENDMDL
MODEL      127
REMARK  Name = ZINC000004336492
REMARK                            x       y       z     vdW  Elec       q    Type
REMARK                         _______ _______ _______ _____ _____    ______ ____
ROOT
ATOM      1  C   LIG    1       -1.244  -2.135   0.003  0.00  0.00    +0.190 C 
ATOM      2  O   LIG    1       -2.602  -2.560   0.130  0.00  0.00    -0.360 OA
ATOM      3  C   LIG    1       -2.770  -3.979   0.160  0.00  0.00    +0.350 C 
ATOM      4  C   LIG    1       -2.255  -4.580  -1.151  0.00  0.00    +0.160 C 
ATOM      5  C   LIG    1       -0.786  -4.189  -1.340  0.00  0.00    +0.220 C 
ATOM      6  C   LIG    1       -0.667  -2.662  -1.314  0.00  0.00    +0.190 C 
ENDROOT
BRANCH   1   7
ATOM      7  C   LIG    1       -1.185  -0.630   0.010  0.00  0.00    +0.460 C 
ATOM      8  O   LIG    1       -2.208   0.015   0.023  0.00  0.00    -0.470 OA
BRANCH   7  10
ATOM      9  C   LIG    1       -0.018   1.448   0.010  0.00  0.00    +0.280 C 
ATOM     10  O   LIG    1        0.002  -0.004   0.002  0.00  0.00    -0.350 OA
ENDBRANCH   7  10
ENDBRANCH   1   7
BRANCH   5  11
ATOM     11  O   LIG    1       -0.317  -4.686  -2.595  0.00  0.00    -0.550 OA
ATOM     12  H   LIG    1       -0.369  -5.647  -2.682  0.00  0.00    +0.390 HD
ENDBRANCH   5  11
BRANCH   4  13
ATOM     13  O   LIG    1       -2.369  -6.004  -1.101  0.00  0.00    -0.550 OA
ATOM     14  H   LIG    1       -3.273  -6.322  -0.978  0.00  0.00    +0.390 HD
ENDBRANCH   4  13
BRANCH   3  15
ATOM     15  O   LIG    1       -2.032  -4.523   1.256  0.00  0.00    -0.570 OA
ATOM     16  H   LIG    1       -2.305  -4.186   2.120  0.00  0.00    +0.390 HD
ENDBRANCH   3  15
BRANCH   6  17
ATOM     17  O   LIG    1       -1.396  -2.108  -2.411  0.00  0.00    -0.540 OA
ATOM     18  H   LIG    1       -1.365  -1.143  -2.457  0.00  0.00    +0.380 HD
ENDBRANCH   6  17
TORSDOF 6
ENDMDL
MODEL      128
REMARK  Name = ZINC000048333413
REMARK                            x       y       z     vdW  Elec       q    Type
REMARK                         _______ _______ _______ _____ _____    ______ ____
ROOT
ATOM      1  C   LIG    1        1.134  -4.287  -1.921  0.00  0.00    +0.240 C 
ATOM      2  C   LIG    1        2.451  -4.491  -1.170  0.00  0.00    +0.060 C 
ENDROOT
BRANCH   1   3
ATOM      3  C   LIG    1        1.214  -4.956  -3.269  0.00  0.00    +0.520 C 
ATOM      4  N   LIG    1        1.065  -6.292  -3.368  0.00  0.00    -0.610 N 
ATOM      5  C   LIG    1        0.707  -7.100  -2.192  0.00  0.00    +0.280 C 
ATOM      6  C   LIG    1       -0.495  -7.980  -2.554  0.00  0.00    +0.170 C 
ATOM      7  N   LIG    1       -0.187  -8.749  -3.767  0.00  0.00    -0.540 NA
ATOM      8  C   LIG    1        0.031  -7.863  -4.919  0.00  0.00    +0.170 C 
ATOM      9  C   LIG    1       -1.244  -9.730  -4.050  0.00  0.00    +0.190 C 
ATOM     10  C   LIG    1        1.248  -6.978  -4.655  0.00  0.00    +0.300 C 
ATOM     11  O   LIG    1        1.414  -4.292  -4.264  0.00  0.00    -0.540 OA
ENDBRANCH   1   3
BRANCH   1  13
ATOM     12  C   LIG    1        0.296  -2.142  -1.123  0.00  0.00    +0.520 C 
ATOM     13  N   LIG    1        0.892  -2.853  -2.101  0.00  0.00    -0.720 N 
ATOM     14  H   LIG    1        1.161  -2.415  -2.924  0.00  0.00    +0.410 HD
ATOM     15  O   LIG    1       -0.040  -2.689  -0.094  0.00  0.00    -0.520 OA
BRANCH  12  16
ATOM     16  C   LIG    1        0.047  -0.667  -1.309  0.00  0.00    +0.200 C 
BRANCH  16  18
ATOM     17  C   LIG    1       -0.873   1.257  -0.216  0.00  0.00    +0.220 C 
ATOM     18  O   LIG    1       -0.591  -0.142  -0.143  0.00  0.00    -0.370 OA
ENDBRANCH  16  18
ENDBRANCH  12  16
ENDBRANCH   1  13
TORSDOF 4
ENDMDL
MODEL      129
REMARK  Name = ZINC000000039709
REMARK                            x       y       z     vdW  Elec       q    Type
REMARK                         _______ _______ _______ _____ _____    ______ ____
ROOT
ATOM      1  C   LIG    1       -0.018   1.461   0.010  0.00  0.00    +0.340 C 
ATOM      2  N   LIG    1        0.002  -0.004   0.002  0.00  0.00    -0.510 N 
ATOM      3  C   LIG    1       -1.189  -0.711   0.004  0.00  0.00    +0.350 A 
ATOM      4  C   LIG    1       -1.144  -2.104  -0.003  0.00  0.00    -0.160 A 
ATOM      5  N   LIG    1       -2.456  -2.527   0.002  0.00  0.00    -0.450 N 
ATOM      6  C   LIG    1       -3.009  -3.884   0.007  0.00  0.00    +0.280 C 
ATOM      7  C   LIG    1       -4.477  -3.792   0.449  0.00  0.00    +0.250 C 
ATOM      8  N   LIG    1       -5.156  -2.723  -0.298  0.00  0.00    -0.420 NA
ATOM      9  H   LIG    1       -5.122  -2.898  -1.291  0.00  0.00    +0.350 HD
ATOM     10  N   LIG    1       -4.619  -1.493   0.005  0.00  0.00    -0.540 N 
ATOM     11  H   LIG    1       -5.179  -0.727   0.206  0.00  0.00    +0.460 HD
ATOM     12  C   LIG    1       -3.239  -1.406   0.006  0.00  0.00    +0.520 A 
ATOM     13  C   LIG    1        0.108  -2.745  -0.013  0.00  0.00    +0.600 A 
ATOM     14  N   LIG    1        1.234  -2.003  -0.015  0.00  0.00    -0.650 N 
ATOM     15  H   LIG    1        2.097  -2.445  -0.022  0.00  0.00    +0.440 HD
ATOM     16  O   LIG    1        0.175  -3.962  -0.020  0.00  0.00    -0.520 OA
ATOM     17  N   LIG    1       -2.475  -0.345   0.011  0.00  0.00    -0.520 NA
ATOM     18  C   LIG    1        1.178  -0.660  -0.013  0.00  0.00    +0.710 A 
ATOM     19  O   LIG    1        2.213  -0.022  -0.015  0.00  0.00    -0.530 OA
ENDROOT
TORSDOF 0
ENDMDL
MODEL      130
REMARK  Name = ZINC000085468601
REMARK                            x       y       z     vdW  Elec       q    Type
REMARK                         _______ _______ _______ _____ _____    ______ ____
ROOT
ATOM      1  C   LIG    1        1.169  -4.307   1.857  0.00  0.00    +0.250 C 
ATOM      2  C   LIG    1       -0.106  -4.873   2.529  0.00  0.00    -0.010 C 
ATOM      3  C   LIG    1        0.266  -6.327   2.883  0.00  0.00    +0.170 C 
ATOM      4  C   LIG    1        1.801  -6.376   2.984  0.00  0.00    +0.010 C 
ATOM      5  C   LIG    1        2.311  -4.949   2.684  0.00  0.00    +0.040 C 
ENDROOT
BRANCH   1   7
ATOM      6  C   LIG    1        0.633  -2.085   1.012  0.00  0.00    +0.510 C 
ATOM      7  N   LIG    1        1.208  -2.846   1.964  0.00  0.00    -0.730 N 
ATOM      8  H   LIG    1        1.647  -2.427   2.721  0.00  0.00    +0.400 HD
ATOM      9  O   LIG    1        0.084  -2.609   0.067  0.00  0.00    -0.510 OA
BRANCH   6  10
ATOM     10  C   LIG    1        0.673  -0.582   1.123  0.00  0.00    +0.200 C 
BRANCH  10  12
ATOM     11  C   LIG    1       -0.017   1.425   0.010  0.00  0.00    +0.210 C 
ATOM     12  O   LIG    1        0.002  -0.004   0.002  0.00  0.00    -0.370 OA
ENDBRANCH  10  12
ENDBRANCH   6  10
ENDBRANCH   1   7
BRANCH   3  13
ATOM     13  O   LIG    1       -0.186  -7.212   1.856  0.00  0.00    -0.560 OA
ATOM     14  H   LIG    1       -1.145  -7.211   1.730  0.00  0.00    +0.380 HD
ENDBRANCH   3  13
BRANCH   4  15
ATOM     15  C   LIG    1        2.221  -6.800   4.393  0.00  0.00    +0.180 C 
BRANCH  15  16
ATOM     16  O   LIG    1        1.820  -8.152   4.622  0.00  0.00    -0.570 OA
ATOM     17  H   LIG    1        2.054  -8.489   5.498  0.00  0.00    +0.380 HD
ENDBRANCH  15  16
ENDBRANCH   4  15
TORSDOF 6
ENDMDL
MODEL      131
REMARK  Name = ZINC000084526165
REMARK                            x       y       z     vdW  Elec       q    Type
REMARK                         _______ _______ _______ _____ _____    ______ ____
ROOT
ATOM      1  N   LIG    1       -1.153   4.233  -1.164  0.00  0.00    -0.640 NA
ATOM      2  H   LIG    1       -0.222   3.903  -0.958  0.00  0.00    +0.360 HD
ENDROOT
BRANCH   1   6
ATOM      3  O   LIG    1       -2.235   0.007   0.108  0.00  0.00    -0.480 OA
ATOM      4  C   LIG    1       -2.113   1.212   0.167  0.00  0.00    +0.530 C 
ATOM      5  C   LIG    1       -2.527   2.189  -0.911  0.00  0.00    +0.120 C 
ATOM      6  C   LIG    1       -2.149   3.562  -0.319  0.00  0.00    +0.180 C 
ATOM      7  C   LIG    1       -1.561   3.216   1.032  0.00  0.00    +0.500 C 
ATOM      8  O   LIG    1       -1.131   4.015   1.836  0.00  0.00    -0.470 OA
ATOM      9  N   LIG    1       -1.594   1.889   1.200  0.00  0.00    -0.680 N 
ATOM     10  H   LIG    1       -1.264   1.452   2.001  0.00  0.00    +0.420 HD
ENDBRANCH   1   6
BRANCH   1  11
ATOM     11  C   LIG    1       -1.237   5.693  -1.020  0.00  0.00    +0.160 C 
ATOM     12  C   LIG    1       -2.323   6.234  -1.954  0.00  0.00    +0.060 C 
ATOM     13  C   LIG    1       -2.209   7.762  -1.996  0.00  0.00    +0.020 C 
ATOM     14  C   LIG    1       -0.900   8.137  -2.692  0.00  0.00    +0.260 C 
ATOM     15  N   LIG    1        0.218   7.412  -2.102  0.00  0.00    -0.710 N 
ATOM     16  H   LIG    1        1.113   7.757  -2.251  0.00  0.00    +0.400 HD
ATOM     17  C   LIG    1        0.088   6.306  -1.371  0.00  0.00    +0.520 C 
ATOM     18  O   LIG    1        1.095   5.766  -0.964  0.00  0.00    -0.550 OA
ENDBRANCH   1  11
TORSDOF 2
ENDMDL
MODEL      132
REMARK  Name = ZINC000084526163
REMARK                            x       y       z     vdW  Elec       q    Type
REMARK                         _______ _______ _______ _____ _____    ______ ____
ROOT
ATOM      1  N   LIG    1       -1.153   4.233  -1.164  0.00  0.00    -0.640 NA
ATOM      2  H   LIG    1       -0.581   4.002  -1.963  0.00  0.00    +0.360 HD
ENDROOT
BRANCH   1   6
ATOM      3  O   LIG    1        0.002  -0.004   0.002  0.00  0.00    -0.480 OA
ATOM      4  C   LIG    1       -0.014   1.208   0.009  0.00  0.00    +0.530 C 
ATOM      5  C   LIG    1       -1.260   2.068   0.032  0.00  0.00    +0.120 C 
ATOM      6  C   LIG    1       -0.705   3.507   0.032  0.00  0.00    +0.200 C 
ATOM      7  C   LIG    1        0.795   3.309   0.009  0.00  0.00    +0.500 C 
ATOM      8  O   LIG    1        1.620   4.197   0.002  0.00  0.00    -0.480 OA
ATOM      9  N   LIG    1        1.066   1.998   0.003  0.00  0.00    -0.680 N 
ATOM     10  H   LIG    1        1.971   1.650  -0.012  0.00  0.00    +0.410 HD
ENDBRANCH   1   6
BRANCH   1  11
ATOM     11  C   LIG    1       -1.164   5.683  -0.926  0.00  0.00    +0.160 C 
ATOM     12  C   LIG    1       -1.009   6.418  -2.260  0.00  0.00    +0.030 C 
ATOM     13  C   LIG    1       -1.298   7.906  -2.029  0.00  0.00    +0.030 C 
ATOM     14  C   LIG    1       -2.779   8.070  -1.685  0.00  0.00    +0.260 C 
ATOM     15  N   LIG    1       -3.158   7.156  -0.615  0.00  0.00    -0.720 N 
ATOM     16  H   LIG    1       -3.969   7.348  -0.119  0.00  0.00    +0.400 HD
ATOM     17  C   LIG    1       -2.461   6.072  -0.278  0.00  0.00    +0.530 C 
ATOM     18  O   LIG    1       -2.896   5.361   0.603  0.00  0.00    -0.540 OA
ENDBRANCH   1  11
TORSDOF 2
ENDMDL
MODEL      133
REMARK  Name = ZINC000002711310
REMARK                            x       y       z     vdW  Elec       q    Type
REMARK                         _______ _______ _______ _____ _____    ______ ____
ROOT
ATOM      1  C   LIG    1        1.124  -4.208   1.771  0.00  0.00    +0.420 A 
ATOM      2  C   LIG    1        1.627  -5.068   2.704  0.00  0.00    -0.080 A 
ATOM      3  C   LIG    1        1.529  -6.453   2.480  0.00  0.00    +0.550 A 
ATOM      4  N   LIG    1        0.943  -6.904   1.353  0.00  0.00    -0.560 N 
ATOM      5  C   LIG    1        0.453  -6.041   0.445  0.00  0.00    +0.700 A 
ATOM      6  O   LIG    1       -0.073  -6.469  -0.565  0.00  0.00    -0.530 OA
ATOM      7  C   LIG    1        0.839  -8.346   1.116  0.00  0.00    +0.340 C 
ATOM      8  O   LIG    1        1.971  -7.239   3.299  0.00  0.00    -0.510 OA
ATOM      9  N   LIG    1        0.530  -4.712   0.640  0.00  0.00    -0.540 N 
ATOM     10  C   LIG    1       -0.013  -3.796  -0.366  0.00  0.00    +0.340 C 
ENDROOT
BRANCH   1  12
ATOM     11  C   LIG    1        2.321  -2.180   1.604  0.00  0.00    +0.520 C 
ATOM     12  N   LIG    1        1.206  -2.846   1.965  0.00  0.00    -0.690 N 
ATOM     13  H   LIG    1        0.462  -2.367   2.362  0.00  0.00    +0.420 HD
ATOM     14  O   LIG    1        3.285  -2.789   1.192  0.00  0.00    -0.480 OA
BRANCH  11  15
ATOM     15  C   LIG    1        2.368  -0.677   1.711  0.00  0.00    +0.230 C 
BRANCH  15  17
ATOM     16  C   LIG    1        3.796   1.211   1.334  0.00  0.00    +0.230 C 
ATOM     17  O   LIG    1        3.645  -0.209   1.272  0.00  0.00    -0.370 OA
ENDBRANCH  15  17
ENDBRANCH  11  15
ENDBRANCH   1  12
TORSDOF 3
ENDMDL
MODEL      134
REMARK  Name = ZINC000016958222
REMARK                            x       y       z     vdW  Elec       q    Type
REMARK                         _______ _______ _______ _____ _____    ______ ____
ROOT
ATOM      1  C   LIG    1       -0.018   1.503   0.010  0.00  0.00    +0.180 C 
ATOM      2  C   LIG    1        0.002  -0.004   0.002  0.00  0.00    +0.050 A 
ATOM      3  N   LIG    1        0.005  -0.647  -1.137  0.00  0.00    -0.320 NA
ATOM      4  C   LIG    1        0.023  -1.982  -1.162  0.00  0.00    -0.110 A 
ATOM      5  C   LIG    1        0.039  -2.716   0.029  0.00  0.00    +0.420 A 
ATOM      6  N   LIG    1        0.058  -4.083  -0.032  0.00  0.00    -0.530 N 
ATOM      7  C   LIG    1        0.061  -4.723  -1.213  0.00  0.00    +0.720 A 
ATOM      8  N   LIG    1        0.046  -4.072  -2.388  0.00  0.00    -0.650 N 
ATOM      9  H   LIG    1        0.050  -4.578  -3.215  0.00  0.00    +0.440 HD
ATOM     10  O   LIG    1        0.077  -5.938  -1.220  0.00  0.00    -0.510 OA
ATOM     11  C   LIG    1        0.074  -4.861   1.210  0.00  0.00    +0.360 C 
ATOM     12  N   LIG    1        0.036  -2.064   1.220  0.00  0.00    -0.600 N 
ATOM     13  H   LIG    1        0.046  -2.560   2.054  0.00  0.00    +0.420 HD
ATOM     14  C   LIG    1        0.028  -2.722  -2.434  0.00  0.00    +0.590 A 
ATOM     15  O   LIG    1        0.015  -2.134  -3.498  0.00  0.00    -0.460 OA
ATOM     16  C   LIG    1        0.023  -0.713   1.227  0.00  0.00    +0.510 A 
ATOM     17  O   LIG    1        0.021  -0.107   2.284  0.00  0.00    -0.490 OA
ENDROOT
TORSDOF 0
ENDMDL
MODEL      135
REMARK  Name = ZINC000096839895
REMARK                            x       y       z     vdW  Elec       q    Type
REMARK                         _______ _______ _______ _____ _____    ______ ____
ROOT
ATOM      1  N   LIG    1        1.440  -3.750  -2.629  0.00  0.00    -0.520 NA
ATOM      2  C   LIG    1        1.725  -4.263  -1.282  0.00  0.00    +0.200 C 
ATOM      3  C   LIG    1        1.541  -5.782  -1.267  0.00  0.00    +0.200 C 
ATOM      4  N   LIG    1        2.437  -6.391  -2.260  0.00  0.00    -0.530 NA
ATOM      5  C   LIG    1        2.152  -5.878  -3.608  0.00  0.00    +0.180 C 
ATOM      6  C   LIG    1        2.336  -4.359  -3.622  0.00  0.00    +0.190 C 
ENDROOT
BRANCH   1   7
ATOM      7  C   LIG    1        1.532  -2.285  -2.665  0.00  0.00    +0.210 C 
BRANCH   7  10
ATOM      8  N   LIG    1        1.095  -0.472  -4.290  0.00  0.00    -0.740 N 
ATOM      9  H   LIG    1        1.511   0.144  -3.667  0.00  0.00    +0.400 HD
ATOM     10  C   LIG    1        0.996  -1.780  -3.979  0.00  0.00    +0.510 C 
ATOM     11  O   LIG    1        0.475  -2.550  -4.758  0.00  0.00    -0.520 OA
BRANCH   8  13
ATOM     12  C   LIG    1        0.810   1.527  -5.670  0.00  0.00    +0.020 C 
ATOM     13  C   LIG    1        0.573   0.019  -5.568  0.00  0.00    +0.250 C 
ENDBRANCH   8  13
ENDBRANCH   7  10
ENDBRANCH   1   7
BRANCH   4  14
ATOM     14  C   LIG    1        2.345  -7.857  -2.224  0.00  0.00    +0.260 C 
BRANCH  14  15
ATOM     15  C   LIG    1        3.442  -8.450  -3.070  0.00  0.00    +0.460 C 
ATOM     16  O   LIG    1        4.221  -7.727  -3.644  0.00  0.00    -0.490 OA
BRANCH  15  17
ATOM     17  O   LIG    1        3.553  -9.783  -3.186  0.00  0.00    -0.360 OA
ATOM     18  C   LIG    1        4.633 -10.284  -4.017  0.00  0.00    +0.260 C 
ENDBRANCH  15  17
ENDBRANCH  14  15
ENDBRANCH   4  14
TORSDOF 6
ENDMDL
MODEL      136
REMARK  Name = ZINC000004403641
REMARK                            x       y       z     vdW  Elec       q    Type
REMARK                         _______ _______ _______ _____ _____    ______ ____
ROOT
ATOM      1  O   LIG    1        0.002  -0.004   0.002  0.00  0.00    -0.440 OA
ATOM      2  C   LIG    1       -0.014   1.204   0.009  0.00  0.00    +0.460 C 
ATOM      3  O   LIG    1       -1.121   1.960   0.029  0.00  0.00    -0.310 OA
ATOM      4  C   LIG    1       -0.802   3.296   0.519  0.00  0.00    +0.180 C 
ATOM      5  C   LIG    1        0.659   3.531   0.071  0.00  0.00    +0.190 C 
ATOM      6  C   LIG    1        1.212   2.091   0.002  0.00  0.00    +0.120 C 
ENDROOT
BRANCH   5   7
ATOM      7  O   LIG    1        0.703   4.166  -1.208  0.00  0.00    -0.510 OA
ATOM      8  H   LIG    1        1.598   4.336  -1.533  0.00  0.00    +0.380 HD
ENDBRANCH   5   7
BRANCH   6   9
ATOM      9  O   LIG    1        1.951   1.900  -1.206  0.00  0.00    -0.530 OA
ATOM     10  H   LIG    1        2.322   1.012  -1.304  0.00  0.00    +0.400 HD
ENDBRANCH   6   9
BRANCH   4  11
ATOM     11  C   LIG    1       -1.732   4.333  -0.113  0.00  0.00    +0.220 C 
BRANCH  11  12
ATOM     12  O   LIG    1       -1.516   4.368  -1.526  0.00  0.00    -0.520 OA
ATOM     13  H   LIG    1       -1.685   3.525  -1.970  0.00  0.00    +0.370 HD
ENDBRANCH  11  12
BRANCH  11  14
ATOM     14  C   LIG    1       -3.187   3.956   0.172  0.00  0.00    +0.180 C 
BRANCH  14  15
ATOM     15  O   LIG    1       -3.430   2.622  -0.280  0.00  0.00    -0.530 OA
ATOM     16  H   LIG    1       -3.283   2.495  -1.227  0.00  0.00    +0.370 HD
ENDBRANCH  14  15
BRANCH  14  17
ATOM     17  C   LIG    1       -4.118   4.921  -0.563  0.00  0.00    +0.170 C 
BRANCH  17  18
ATOM     18  O   LIG    1       -5.473   4.642  -0.205  0.00  0.00    -0.570 OA
ATOM     19  H   LIG    1       -6.120   5.218  -0.635  0.00  0.00    +0.380 HD
ENDBRANCH  17  18
ENDBRANCH  14  17
ENDBRANCH  11  14
ENDBRANCH   4  11
TORSDOF 8
ENDMDL
MODEL      137
REMARK  Name = ZINC000071892714
REMARK                            x       y       z     vdW  Elec       q    Type
REMARK                         _______ _______ _______ _____ _____    ______ ____
ROOT
ATOM      1  N   LIG    1       -2.994  -3.826   0.010  0.00  0.00    -0.710 N 
ATOM      2  H   LIG    1       -2.148  -4.299  -0.001  0.00  0.00    +0.420 HD
ATOM      3  C   LIG    1       -4.152  -4.516   0.018  0.00  0.00    +0.520 C 
ATOM      4  O   LIG    1       -5.211  -3.924   0.031  0.00  0.00    -0.540 OA
ENDROOT
BRANCH   1   5
ATOM      5  C   LIG    1       -3.014  -2.361   0.018  0.00  0.00    +0.300 C 
BRANCH   5   8
ATOM      6  N   LIG    1       -1.372  -0.511   0.012  0.00  0.00    -0.730 N 
ATOM      7  H   LIG    1       -2.118   0.109   0.023  0.00  0.00    +0.410 HD
ATOM      8  C   LIG    1       -1.601  -1.839   0.007  0.00  0.00    +0.510 C 
ATOM      9  O   LIG    1       -0.668  -2.615  -0.006  0.00  0.00    -0.530 OA
BRANCH   6  11
ATOM     10  C   LIG    1       -0.019   1.526   0.010  0.00  0.00    +0.030 C 
ATOM     11  C   LIG    1        0.002  -0.004   0.002  0.00  0.00    +0.250 C 
ENDBRANCH   6  11
ENDBRANCH   5   8
ENDBRANCH   1   5
BRANCH   3  12
ATOM     12  C   LIG    1       -4.132  -6.022   0.009  0.00  0.00    +0.300 C 
BRANCH  12  13
ATOM     13  N   LIG    1       -5.506  -6.529   0.020  0.00  0.00    -0.720 N 
ATOM     14  H   LIG    1       -6.252  -5.909   0.030  0.00  0.00    +0.410 HD
ATOM     15  C   LIG    1       -5.735  -7.858   0.015  0.00  0.00    +0.510 C 
ATOM     16  O   LIG    1       -4.802  -8.633   0.002  0.00  0.00    -0.550 OA
ATOM     17  C   LIG    1       -7.149  -8.379   0.025  0.00  0.00    +0.110 C 
ENDBRANCH  12  13
ENDBRANCH   3  12
TORSDOF 5
ENDMDL
MODEL      138
REMARK  Name = ZINC000004523642
REMARK                            x       y       z     vdW  Elec       q    Type
REMARK                         _______ _______ _______ _____ _____    ______ ____
ROOT
ATOM      1  C   LIG    1       -1.341  -2.014  -0.120  0.00  0.00    -0.330 A 
ATOM      2  CA  LIG    1       -1.310  -2.808   0.981  0.00  0.00    +0.210 A 
ATOM      3  N   LIG    1       -1.313  -4.179   0.827  0.00  0.00    -0.610 N 
ATOM      4  H   LIG    1       -1.291  -4.746   1.613  0.00  0.00    +0.450 HD
ATOM      5  C   LIG    1       -1.347  -4.742  -0.393  0.00  0.00    +0.700 A 
ATOM      6  N   LIG    1       -1.378  -4.001  -1.514  0.00  0.00    -0.650 N 
ATOM      7  H   LIG    1       -1.402  -4.438  -2.380  0.00  0.00    +0.440 HD
ATOM      8  O   LIG    1       -1.349  -5.954  -0.484  0.00  0.00    -0.530 OA
ATOM      9  C   LIG    1       -1.383  -2.654  -1.443  0.00  0.00    +0.560 A 
ATOM     10  O   LIG    1       -1.413  -1.980  -2.456  0.00  0.00    -0.520 OA
ENDROOT
BRANCH   2  11
ATOM     11  C   LIG    1       -1.273  -2.208   2.336  0.00  0.00    +0.520 C 
ATOM     12  OXT LIG    1       -1.137  -2.924   3.317  0.00  0.00    -0.620 OA
ATOM     13  O   LIG    1       -1.379  -0.998   2.471  0.00  0.00    -0.640 OA
ENDBRANCH   2  11
BRANCH   1  14
ATOM     14  C   LIG    1       -1.339  -0.512   0.011  0.00  0.00    +0.370 C 
BRANCH  14  16
ATOM     15  C   LIG    1        0.029   1.456  -0.091  0.00  0.00    +0.310 C 
ATOM     16  N   LIG    1        0.038  -0.013  -0.099  0.00  0.00    -0.380 N 
ATOM     17  C   LIG    1        0.829  -0.504   1.038  0.00  0.00    +0.310 C 
ATOM     18  H   LIG    1        0.447  -0.342  -0.961  0.00  0.00    +0.410 HD
ENDBRANCH  14  16
ENDBRANCH   1  14
TORSDOF 3
ENDMDL
MODEL      139
REMARK  Name = ZINC000023421186
REMARK                            x       y       z     vdW  Elec       q    Type
REMARK                         _______ _______ _______ _____ _____    ______ ____
ROOT
ATOM      1  O   LIG    1       -0.001  -0.004   0.003  0.00  0.00    -0.510 OA
ATOM      2  C   LIG    1       -0.014   1.212   0.009  0.00  0.00    +0.600 C 
ATOM      3  N   LIG    1       -1.189   1.873   0.017  0.00  0.00    -0.610 N 
ATOM      4  C   LIG    1       -2.470   1.156   0.135  0.00  0.00    +0.310 C 
ATOM      5  C   LIG    1       -3.163   1.623   1.417  0.00  0.00    +0.260 C 
ATOM      6  N   LIG    1       -3.131   3.076   1.521  0.00  0.00    -0.720 N 
ATOM      7  H   LIG    1       -3.793   3.502   2.089  0.00  0.00    +0.400 HD
ATOM      8  C   LIG    1       -2.257   3.861   0.890  0.00  0.00    +0.510 C 
ATOM      9  O   LIG    1       -2.280   5.053   1.119  0.00  0.00    -0.540 OA
ATOM     10  C   LIG    1       -1.244   3.339  -0.084  0.00  0.00    +0.330 C 
ENDROOT
BRANCH   2  11
ATOM     11  C   LIG    1        1.251   1.962   0.000  0.00  0.00    -0.270 A 
ATOM     12  C   LIG    1        1.743   2.509  -1.183  0.00  0.00    +0.170 A 
ATOM     13  C   LIG    1        2.946   3.214  -1.152  0.00  0.00    -0.080 A 
ATOM     14  C   LIG    1        3.620   3.360   0.017  0.00  0.00    +0.330 A 
ATOM     15  N   LIG    1        3.148   2.832   1.171  0.00  0.00    -0.600 N 
ATOM     16  H   LIG    1        3.651   2.951   1.992  0.00  0.00    +0.420 HD
ATOM     17  C   LIG    1        1.989   2.147   1.198  0.00  0.00    +0.530 A 
ATOM     18  O   LIG    1        1.580   1.679   2.246  0.00  0.00    -0.530 OA
ENDBRANCH   2  11
TORSDOF 1
ENDMDL
MODEL      140
REMARK  Name = ZINC000030057344
REMARK                            x       y       z     vdW  Elec       q    Type
REMARK                         _______ _______ _______ _____ _____    ______ ____
ROOT
ATOM      1  N   LIG    1        2.407   1.043  -0.015  0.00  0.00    -0.520 N 
ATOM      2  C   LIG    1        2.935   0.599   1.166  0.00  0.00    +0.360 A 
ATOM      3  C   LIG    1        3.973  -0.265   1.151  0.00  0.00    -0.120 A 
ATOM      4  C   LIG    1        4.494  -0.694  -0.093  0.00  0.00    +0.550 A 
ATOM      5  N   LIG    1        3.945  -0.233  -1.235  0.00  0.00    -0.660 N 
ATOM      6  H   LIG    1        4.297  -0.523  -2.091  0.00  0.00    +0.430 HD
ATOM      7  O   LIG    1        5.430  -1.473  -0.132  0.00  0.00    -0.510 OA
ATOM      8  C   LIG    1        2.908   0.623  -1.191  0.00  0.00    +0.700 A 
ATOM      9  O   LIG    1        2.422   1.030  -2.229  0.00  0.00    -0.540 OA
ENDROOT
BRANCH   1  10
ATOM     10  C   LIG    1        1.280   1.980   0.001  0.00  0.00    +0.360 C 
BRANCH  10  12
ATOM     11  O   LIG    1        0.002  -0.004   0.002  0.00  0.00    -0.520 OA
ATOM     12  C   LIG    1       -0.014   1.209   0.009  0.00  0.00    +0.500 C 
ATOM     13  N   LIG    1       -1.191   1.867   0.018  0.00  0.00    -0.700 N 
ATOM     14  H   LIG    1       -1.204   2.837   0.023  0.00  0.00    +0.410 HD
BRANCH  13  15
ATOM     15  C   LIG    1       -2.449   1.117   0.020  0.00  0.00    +0.220 C 
ATOM     16  C   LIG    1       -3.554   1.594   0.964  0.00  0.00    +0.010 C 
ATOM     17  C   LIG    1       -3.688   1.815  -0.544  0.00  0.00    +0.020 C 
ENDBRANCH  13  15
ENDBRANCH  10  12
ENDBRANCH   1  10
TORSDOF 3
ENDMDL
MODEL      141
REMARK  Name = ZINC000001692901
REMARK                            x       y       z     vdW  Elec       q    Type
REMARK                         _______ _______ _______ _____ _____    ______ ____
ROOT
ATOM      1  C   LIG    1        1.280   1.980   0.001  0.00  0.00    +0.350 C 
ENDROOT
BRANCH   1   2
ATOM      2  N   LIG    1        2.407   1.043  -0.015  0.00  0.00    -0.520 N 
ATOM      3  C   LIG    1        2.935   0.599   1.166  0.00  0.00    +0.360 A 
ATOM      4  C   LIG    1        3.973  -0.265   1.151  0.00  0.00    -0.110 A 
ATOM      5  C   LIG    1        4.494  -0.694  -0.093  0.00  0.00    +0.550 A 
ATOM      6  N   LIG    1        3.945  -0.233  -1.235  0.00  0.00    -0.660 N 
ATOM      7  H   LIG    1        4.297  -0.523  -2.091  0.00  0.00    +0.430 HD
ATOM      8  O   LIG    1        5.430  -1.473  -0.132  0.00  0.00    -0.510 OA
ATOM      9  C   LIG    1        2.908   0.623  -1.191  0.00  0.00    +0.700 A 
ATOM     10  O   LIG    1        2.422   1.030  -2.229  0.00  0.00    -0.540 OA
ENDBRANCH   1   2
BRANCH   1  12
ATOM     11  O   LIG    1        0.002  -0.004   0.002  0.00  0.00    -0.520 OA
ATOM     12  C   LIG    1       -0.014   1.209   0.009  0.00  0.00    +0.500 C 
ATOM     13  N   LIG    1       -1.191   1.867   0.018  0.00  0.00    -0.610 N 
ATOM     14  C   LIG    1       -1.236   3.337   0.020  0.00  0.00    +0.260 C 
ATOM     15  C   LIG    1       -2.182   3.793  -1.096  0.00  0.00    +0.210 C 
ATOM     16  O   LIG    1       -3.435   3.120  -0.956  0.00  0.00    -0.380 OA
ATOM     17  C   LIG    1       -3.354   1.699  -1.091  0.00  0.00    +0.220 C 
ATOM     18  C   LIG    1       -2.468   1.135   0.020  0.00  0.00    +0.260 C 
ENDBRANCH   1  12
TORSDOF 2
ENDMDL
MODEL      142
REMARK  Name = ZINC000002586687
REMARK                            x       y       z     vdW  Elec       q    Type
REMARK                         _______ _______ _______ _____ _____    ______ ____
ROOT
ATOM      1  C   LIG    1        1.280   1.980   0.001  0.00  0.00    +0.360 C 
ENDROOT
BRANCH   1   2
ATOM      2  N   LIG    1        2.407   1.043  -0.015  0.00  0.00    -0.520 N 
ATOM      3  C   LIG    1        2.935   0.599   1.166  0.00  0.00    +0.360 A 
ATOM      4  C   LIG    1        3.973  -0.265   1.151  0.00  0.00    -0.120 A 
ATOM      5  C   LIG    1        4.494  -0.694  -0.093  0.00  0.00    +0.550 A 
ATOM      6  N   LIG    1        3.945  -0.233  -1.235  0.00  0.00    -0.660 N 
ATOM      7  H   LIG    1        4.297  -0.523  -2.091  0.00  0.00    +0.430 HD
ATOM      8  O   LIG    1        5.430  -1.473  -0.132  0.00  0.00    -0.510 OA
ATOM      9  C   LIG    1        2.908   0.623  -1.191  0.00  0.00    +0.700 A 
ATOM     10  O   LIG    1        2.422   1.030  -2.229  0.00  0.00    -0.540 OA
ENDBRANCH   1   2
BRANCH   1  12
ATOM     11  O   LIG    1        0.002  -0.004   0.002  0.00  0.00    -0.530 OA
ATOM     12  C   LIG    1       -0.014   1.209   0.009  0.00  0.00    +0.500 C 
ATOM     13  N   LIG    1       -1.191   1.867   0.018  0.00  0.00    -0.720 N 
ATOM     14  H   LIG    1       -1.204   2.837   0.023  0.00  0.00    +0.410 HD
BRANCH  13  15
ATOM     15  C   LIG    1       -2.449   1.117   0.020  0.00  0.00    +0.290 C 
BRANCH  15  16
ATOM     16  C   LIG    1       -3.626   2.095   0.031  0.00  0.00    +0.190 C 
BRANCH  16  17
ATOM     17  O   LIG    1       -3.633   2.844  -1.186  0.00  0.00    -0.570 OA
ATOM     18  H   LIG    1       -4.354   3.486  -1.249  0.00  0.00    +0.390 HD
ENDBRANCH  16  17
ENDBRANCH  15  16
ENDBRANCH  13  15
ENDBRANCH   1  12
TORSDOF 5
ENDMDL
MODEL      143
REMARK  Name = ZINC000004529966
REMARK                            x       y       z     vdW  Elec       q    Type
REMARK                         _______ _______ _______ _____ _____    ______ ____
ROOT
ATOM      1  C   LIG    1       -3.477  -0.967   0.030  0.00  0.00    +0.290 C 
ATOM      2  O   LIG    1       -3.856  -1.264  -1.315  0.00  0.00    -0.350 OA
ATOM      3  C   LIG    1       -4.935  -2.195  -1.425  0.00  0.00    +0.220 C 
ATOM      4  C   LIG    1       -6.179  -1.614  -0.748  0.00  0.00    +0.110 C 
ATOM      5  C   LIG    1       -5.854  -1.298   0.715  0.00  0.00    +0.210 C 
ATOM      6  C   LIG    1       -4.662  -0.337   0.766  0.00  0.00    +0.160 C 
ENDROOT
BRANCH   1   7
ATOM      7  N   LIG    1       -2.348  -0.027   0.024  0.00  0.00    -0.460 NA
ATOM      8  H   LIG    1       -2.399   0.605   0.810  0.00  0.00    +0.350 HD
BRANCH   7   9
ATOM      9  N   LIG    1       -1.156  -0.694   0.009  0.00  0.00    -0.520 N 
ATOM     10  H   LIG    1       -1.143  -1.664   0.004  0.00  0.00    +0.430 HD
BRANCH   9  11
ATOM     11  C   LIG    1        0.002  -0.004   0.002  0.00  0.00    +0.590 C 
ATOM     12  S   LIG    1        1.496  -0.840  -0.017  0.00  0.00    -0.630 S 
BRANCH  11  13
ATOM     13  N   LIG    1       -0.016   1.344   0.009  0.00  0.00    -0.790 N 
ATOM     14  H   LIG    1       -0.863   1.817   0.016  0.00  0.00    +0.400 HD
ATOM     15  H   LIG    1        0.817   1.840   0.004  0.00  0.00    +0.430 HD
ENDBRANCH  11  13
ENDBRANCH   9  11
ENDBRANCH   7   9
ENDBRANCH   1   7
BRANCH   5  16
ATOM     16  O   LIG    1       -5.525  -2.506   1.404  0.00  0.00    -0.560 OA
ATOM     17  H   LIG    1       -6.235  -3.163   1.405  0.00  0.00    +0.400 HD
ENDBRANCH   5  16
BRANCH   4  18
ATOM     18  O   LIG    1       -6.574  -0.416  -1.420  0.00  0.00    -0.530 OA
ATOM     19  H   LIG    1       -6.790  -0.542  -2.354  0.00  0.00    +0.380 HD
ENDBRANCH   4  18
BRANCH   6  20
ATOM     20  O   LIG    1       -5.016   0.896   0.136  0.00  0.00    -0.520 OA
ATOM     21  H   LIG    1       -4.306   1.553   0.132  0.00  0.00    +0.380 HD
ENDBRANCH   6  20
TORSDOF 7
ENDMDL
MODEL      144
REMARK  Name = ZINC000055167221
REMARK                            x       y       z     vdW  Elec       q    Type
REMARK                         _______ _______ _______ _____ _____    ______ ____
ROOT
ATOM      1  C   LIG    1       -0.018   1.503   0.010  0.00  0.00    +0.140 C 
ATOM      2  C   LIG    1        0.002  -0.004   0.002  0.00  0.00    -0.150 A 
ATOM      3  C   LIG    1       -1.142  -0.715   0.003  0.00  0.00    +0.290 A 
ATOM      4  N   LIG    1       -1.087  -2.082  -0.006  0.00  0.00    -0.550 N 
ATOM      5  C   LIG    1        0.097  -2.751  -0.002  0.00  0.00    +0.570 A 
ATOM      6  O   LIG    1       -0.089  -4.096   0.011  0.00  0.00    -0.260 OA
ATOM      7  C   LIG    1       -1.419  -4.367  -0.457  0.00  0.00    +0.200 C 
ATOM      8  C   LIG    1       -2.051  -5.487   0.390  0.00  0.00    +0.200 C 
ATOM      9  C   LIG    1       -2.812  -4.757   1.509  0.00  0.00    +0.160 C 
ATOM     10  O   LIG    1       -2.598  -3.353   1.344  0.00  0.00    -0.350 OA
ATOM     11  N   LIG    1        1.240  -2.091  -0.007  0.00  0.00    -0.570 NA
ATOM     12  C   LIG    1       -2.179  -3.080  -0.024  0.00  0.00    +0.420 C 
ATOM     13  C   LIG    1        1.271  -0.745  -0.014  0.00  0.00    +0.400 A 
ATOM     14  N   LIG    1        2.422  -0.101  -0.025  0.00  0.00    -0.700 NA
ATOM     15  H   LIG    1        3.256  -0.598  -0.028  0.00  0.00    +0.340 HD
ENDROOT
BRANCH   8  16
ATOM     16  O   LIG    1       -2.953  -6.261  -0.404  0.00  0.00    -0.540 OA
ATOM     17  H   LIG    1       -3.381  -6.982   0.078  0.00  0.00    +0.400 HD
ENDBRANCH   8  16
BRANCH   9  18
ATOM     18  C   LIG    1       -2.282  -5.205   2.872  0.00  0.00    +0.200 C 
BRANCH  18  19
ATOM     19  O   LIG    1       -3.069  -4.612   3.908  0.00  0.00    -0.560 OA
ATOM     20  H   LIG    1       -2.789  -4.853   4.801  0.00  0.00    +0.390 HD
ENDBRANCH  18  19
ENDBRANCH   9  18
TORSDOF 3
ENDMDL
MODEL      145
REMARK  Name = ZINC000004545917
REMARK                            x       y       z     vdW  Elec       q    Type
REMARK                         _______ _______ _______ _____ _____    ______ ____
ROOT
ATOM      1  CA  PRO A  2        0.780  -1.133   3.576  0.00  0.00    +0.230 C 
ATOM      2  CB  PRO A  2        1.319  -2.556   3.320  0.00  0.00    +0.060 C 
ATOM      3  CG  PRO A  2        1.099  -3.261   4.685  0.00  0.00    +0.050 C 
ATOM      4  CD  PRO A  2       -0.229  -2.619   5.157  0.00  0.00    +0.260 C 
ATOM      5  N   PRO A  2       -0.147  -1.212   4.715  0.00  0.00    -0.580 N 
ATOM      6  C   GLY A  1       -0.813  -0.176   5.263  0.00  0.00    +0.510 C 
ATOM      7  O   GLY A  1       -0.668   0.942   4.817  0.00  0.00    -0.520 OA
ENDROOT
BRANCH   1  10
ATOM      8  N   ALA A  3        0.711  -0.489   1.189  0.00  0.00    -0.680 N 
ATOM      9  H   ALA A  3        1.654  -0.707   1.135  0.00  0.00    +0.410 HD
ATOM     10  C   PRO A  2        0.051  -0.633   2.355  0.00  0.00    +0.500 C 
ATOM     11  O   PRO A  2       -1.129  -0.361   2.423  0.00  0.00    -0.550 OA
BRANCH   8  13
ATOM     12  CB  ALA A  3       -0.019   1.526   0.010  0.00  0.00    +0.010 C 
ATOM     13  CA  ALA A  3        0.002  -0.004   0.002  0.00  0.00    +0.150 C 
BRANCH  13  14
ATOM     14  C   ALA A  3        0.707  -0.490  -1.238  0.00  0.00    +0.490 C 
ATOM     15  OXT ALA A  3        0.073  -0.696  -2.259  0.00  0.00    -0.680 OA
ATOM     16  O   ALA A  3        1.912  -0.677  -1.220  0.00  0.00    -0.690 OA
ENDBRANCH  13  14
ENDBRANCH   8  13
ENDBRANCH   1  10
BRANCH   6  17
ATOM     17  CA  GLY A  1       -1.737  -0.408   6.431  0.00  0.00    +0.300 C 
BRANCH  17  18
ATOM     18  N   GLY A  1       -2.337   0.869   6.842  0.00  0.00    -0.620 N 
ATOM     19  H1  GLY A  1       -2.859   1.258   6.071  0.00  0.00    +0.440 HD
ATOM     20  H2  GLY A  1       -1.607   1.511   7.112  0.00  0.00    +0.440 HD
ATOM     21  H3  GLY A  1       -2.955   0.713   7.623  0.00  0.00    +0.440 HD
ENDBRANCH  17  18
ENDBRANCH   6  17
TORSDOF 5
ENDMDL
MODEL      146
REMARK  Name = ZINC000022606602
REMARK                            x       y       z     vdW  Elec       q    Type
REMARK                         _______ _______ _______ _____ _____    ______ ____
ROOT
ATOM      1  C   LIG    1       -1.384  -0.909   1.776  0.00  0.00    +0.500 C 
ATOM      2  N   LIG    1       -1.610  -1.563   2.933  0.00  0.00    -0.620 N 
ATOM      3  C   LIG    1       -0.495  -2.116   3.717  0.00  0.00    +0.280 C 
ATOM      4  C   LIG    1       -0.631  -1.633   5.165  0.00  0.00    +0.170 C 
ATOM      5  N   LIG    1       -1.971  -1.970   5.666  0.00  0.00    -0.540 NA
ATOM      6  C   LIG    1       -3.015  -1.273   4.904  0.00  0.00    +0.170 C 
ATOM      7  C   LIG    1       -2.084  -1.679   7.102  0.00  0.00    +0.190 C 
ATOM      8  C   LIG    1       -2.977  -1.736   3.448  0.00  0.00    +0.300 C 
ATOM      9  O   LIG    1       -2.315  -0.455   1.145  0.00  0.00    -0.520 OA
ENDROOT
BRANCH   1  10
ATOM     10  C   LIG    1        0.024  -0.743   1.267  0.00  0.00    +0.330 C 
BRANCH  10  12
ATOM     11  C   LIG    1       -0.018   1.461   0.010  0.00  0.00    +0.310 C 
ATOM     12  N   LIG    1        0.002  -0.004   0.002  0.00  0.00    -0.990 NA
BRANCH  12  13
ATOM     13  S   LIG    1       -0.000  -0.824  -1.437  0.00  0.00    +2.610 S 
ATOM     14  O   LIG    1       -0.626   0.068  -2.348  0.00  0.00    -0.950 OA
ATOM     15  O   LIG    1       -0.586  -2.081  -1.123  0.00  0.00    -0.950 OA
ATOM     16  C   LIG    1        1.755  -1.025  -1.846  0.00  0.00    -0.280 C 
ENDBRANCH  12  13
ENDBRANCH  10  12
ENDBRANCH   1  10
TORSDOF 3
ENDMDL
MODEL      147
REMARK  Name = ZINC000000330513
REMARK                            x       y       z     vdW  Elec       q    Type
REMARK                         _______ _______ _______ _____ _____    ______ ____
ROOT
ATOM      1  C   LIG    1       -0.018   1.503   0.010  0.00  0.00    +0.200 C 
ATOM      2  C   LIG    1        0.002  -0.004   0.002  0.00  0.00    +0.210 C 
ATOM      3  N   LIG    1        0.005  -0.653  -1.150  0.00  0.00    -0.470 NA
ATOM      4  C   LIG    1        0.023  -1.978  -1.158  0.00  0.00    +0.410 C 
ATOM      5  C   LIG    1        0.039  -2.681   0.060  0.00  0.00    -0.080 C 
ATOM      6  N   LIG    1        0.035  -2.019   1.211  0.00  0.00    -0.030 NA
ATOM      7  O   LIG    1        0.051  -2.724   2.439  0.00  0.00    -0.440 OA
ATOM      8  C   LIG    1        0.058  -4.155   0.013  0.00  0.00    +0.570 C 
ATOM      9  N   LIG    1        0.060  -4.756  -1.197  0.00  0.00    -0.560 N 
ATOM     10  C   LIG    1        0.045  -4.038  -2.330  0.00  0.00    +0.710 C 
ATOM     11  O   LIG    1        0.047  -4.628  -3.393  0.00  0.00    -0.510 OA
ATOM     12  C   LIG    1        0.079  -6.219  -1.273  0.00  0.00    +0.360 C 
ATOM     13  O   LIG    1        0.071  -4.812   1.036  0.00  0.00    -0.420 OA
ATOM     14  N   LIG    1        0.027  -2.694  -2.341  0.00  0.00    -0.520 N 
ATOM     15  C   LIG    1        0.011  -1.980  -3.620  0.00  0.00    +0.370 C 
ATOM     16  C   LIG    1        0.023  -0.697   1.202  0.00  0.00    +0.010 C 
ATOM     17  C   LIG    1        0.019   0.060   2.505  0.00  0.00    +0.190 C 
ENDROOT
TORSDOF 0
ENDMDL
MODEL      148
REMARK  Name = ZINC000006497063
REMARK                            x       y       z     vdW  Elec       q    Type
REMARK                         _______ _______ _______ _____ _____    ______ ____
ROOT
ATOM      1  C   LIG    1        2.221  -4.375   3.638  0.00  0.00    +0.540 C 
ATOM      2  O   LIG    1        2.731  -3.710   4.520  0.00  0.00    -0.480 OA
ENDROOT
BRANCH   1   3
ATOM      3  C   LIG    1        2.280  -5.838   3.696  0.00  0.00    +0.080 C 
ATOM      4  N   LIG    1        1.738  -6.538   2.748  0.00  0.00    -0.150 NA
ATOM      5  N   LIG    1        1.773  -7.936   2.771  0.00  0.00    -0.560 N 
ATOM      6  H   LIG    1        1.624  -8.436   1.953  0.00  0.00    +0.440 HD
ATOM      7  C   LIG    1        2.013  -8.593   3.923  0.00  0.00    +0.500 C 
ATOM      8  C   LIG    1        2.250  -7.816   5.192  0.00  0.00    +0.100 C 
ATOM      9  O   LIG    1        2.038  -9.805   3.938  0.00  0.00    -0.510 OA
ATOM     10  C   LIG    1        2.974  -6.508   4.852  0.00  0.00    +0.130 C 
ENDBRANCH   1   3
BRANCH   1  11
ATOM     11  O   LIG    1        1.602  -3.765   2.607  0.00  0.00    -0.310 OA
BRANCH  11  12
ATOM     12  C   LIG    1        1.583  -2.313   2.615  0.00  0.00    +0.270 C 
BRANCH  12  15
ATOM     13  N   LIG    1        0.711  -0.489   1.189  0.00  0.00    -0.730 N 
ATOM     14  H   LIG    1        1.077   0.142   1.827  0.00  0.00    +0.400 HD
ATOM     15  C   LIG    1        0.854  -1.814   1.394  0.00  0.00    +0.510 C 
ATOM     16  O   LIG    1        0.396  -2.604   0.595  0.00  0.00    -0.510 OA
BRANCH  13  18
ATOM     17  C   LIG    1       -0.019   1.526   0.010  0.00  0.00    +0.030 C 
ATOM     18  C   LIG    1        0.002  -0.004   0.002  0.00  0.00    +0.250 C 
ENDBRANCH  13  18
ENDBRANCH  12  15
ENDBRANCH  11  12
ENDBRANCH   1  11
TORSDOF 5
ENDMDL
MODEL      149
REMARK  Name = ZINC000048622867
REMARK                            x       y       z     vdW  Elec       q    Type
REMARK                         _______ _______ _______ _____ _____    ______ ____
ROOT
ATOM      1  N   LIG    1       -3.978  -1.213  -2.505  0.00  0.00    -0.390 N 
ATOM      2  N   LIG    1       -4.652  -0.187  -3.181  0.00  0.00    -0.060 NA
ATOM      3  N   LIG    1       -4.948  -0.592  -4.366  0.00  0.00    -0.170 NA
ATOM      4  C   LIG    1       -4.509  -1.853  -4.538  0.00  0.00    -0.190 A 
ATOM      5  C   LIG    1       -3.886  -2.256  -3.364  0.00  0.00    +0.420 A 
ENDROOT
BRANCH   4   6
ATOM      6  C   LIG    1       -4.657  -2.659  -5.756  0.00  0.00    +0.620 C 
ATOM      7  O   LIG    1       -4.216  -3.792  -5.793  0.00  0.00    -0.560 OA
ATOM      8  N   LIG    1       -5.282  -2.144  -6.833  0.00  0.00    -0.840 N 
ATOM      9  H   LIG    1       -5.380  -2.676  -7.638  0.00  0.00    +0.410 HD
ATOM     10  H   LIG    1       -5.634  -1.240  -6.804  0.00  0.00    +0.410 HD
ENDBRANCH   4   6
BRANCH   5  11
ATOM     11  N   LIG    1       -3.297  -3.479  -3.118  0.00  0.00    -0.810 N 
ATOM     12  H   LIG    1       -2.887  -3.656  -2.257  0.00  0.00    +0.400 HD
ATOM     13  H   LIG    1       -3.292  -4.162  -3.807  0.00  0.00    +0.440 HD
ENDBRANCH   5  11
BRANCH   1  14
ATOM     14  C   LIG    1       -3.465  -1.164  -1.134  0.00  0.00    +0.370 C 
BRANCH  14  17
ATOM     15  N   LIG    1       -1.372  -0.511   0.012  0.00  0.00    -0.720 N 
ATOM     16  H   LIG    1       -1.794  -0.752   0.852  0.00  0.00    +0.400 HD
ATOM     17  C   LIG    1       -2.051  -0.643  -1.145  0.00  0.00    +0.490 C 
ATOM     18  O   LIG    1       -1.524  -0.341  -2.194  0.00  0.00    -0.510 OA
BRANCH  15  20
ATOM     19  C   LIG    1       -0.019   1.526   0.010  0.00  0.00    +0.020 C 
ATOM     20  C   LIG    1        0.002  -0.004   0.002  0.00  0.00    +0.230 C 
ATOM     21  C   LIG    1        0.742  -0.511   1.242  0.00  0.00    +0.040 C 
ENDBRANCH  15  20
ENDBRANCH  14  17
ENDBRANCH   1  14
TORSDOF 5
ENDMDL
MODEL      150
REMARK  Name = ZINC000004566054
REMARK                            x       y       z     vdW  Elec       q    Type
REMARK                         _______ _______ _______ _____ _____    ______ ____
ROOT
ATOM      1  O   LIG    1       -1.077   1.802   0.040  0.00  0.00    -0.530 OA
ATOM      2  C   LIG    1       -0.019   1.209   0.018  0.00  0.00    +0.640 C 
ATOM      3  N   LIG    1        1.139   1.899   0.008  0.00  0.00    -0.670 N 
ATOM      4  C   LIG    1        2.428   1.198   0.094  0.00  0.00    +0.430 C 
ATOM      5  C   LIG    1        3.219   1.768   1.277  0.00  0.00    +0.430 C 
ATOM      6  N   LIG    1        3.215   3.235   1.181  0.00  0.00    -0.660 N 
ATOM      7  C   LIG    1        1.927   3.936   1.095  0.00  0.00    +0.410 C 
ATOM      8  C   LIG    1        4.373   3.924   1.170  0.00  0.00    +0.640 C 
ATOM      9  O   LIG    1        5.431   3.332   1.149  0.00  0.00    -0.530 OA
ATOM     10  C   LIG    1        1.136   3.365  -0.094  0.00  0.00    +0.410 C 
ENDROOT
BRANCH   7  11
ATOM     11  O   LIG    1        2.153   5.333   0.896  0.00  0.00    -0.540 OA
ATOM     12  H   LIG    1        2.591   5.770   1.639  0.00  0.00    +0.390 HD
ENDBRANCH   7  11
BRANCH   5  13
ATOM     13  O   LIG    1        2.606   1.364   2.503  0.00  0.00    -0.550 OA
ATOM     14  H   LIG    1        3.056   1.691   3.294  0.00  0.00    +0.390 HD
ENDBRANCH   5  13
BRANCH   4  15
ATOM     15  O   LIG    1        2.201  -0.199   0.293  0.00  0.00    -0.540 OA
ATOM     16  H   LIG    1        1.763  -0.637  -0.450  0.00  0.00    +0.390 HD
ENDBRANCH   4  15
BRANCH  10  17
ATOM     17  O   LIG    1       -0.208   3.848  -0.053  0.00  0.00    -0.530 OA
ATOM     18  H   LIG    1       -0.764   3.526  -0.775  0.00  0.00    +0.400 HD
ENDBRANCH  10  17
TORSDOF 4
ENDMDL
MODEL      151
REMARK  Name = ZINC000004566056
REMARK                            x       y       z     vdW  Elec       q    Type
REMARK                         _______ _______ _______ _____ _____    ______ ____
ROOT
ATOM      1  O   LIG    1        0.002  -0.004   0.002  0.00  0.00    -0.540 OA
ATOM      2  C   LIG    1       -0.014   1.209   0.009  0.00  0.00    +0.640 C 
ATOM      3  N   LIG    1        1.143   1.898   0.001  0.00  0.00    -0.660 N 
ATOM      4  C   LIG    1        2.433   1.194  -0.021  0.00  0.00    +0.430 C 
ATOM      5  C   LIG    1        3.246   1.698  -1.220  0.00  0.00    +0.430 C 
ATOM      6  N   LIG    1        3.241   3.168  -1.206  0.00  0.00    -0.660 N 
ATOM      7  C   LIG    1        1.952   3.872  -1.184  0.00  0.00    +0.430 C 
ATOM      8  C   LIG    1        4.399   3.857  -1.215  0.00  0.00    +0.640 C 
ATOM      9  O   LIG    1        4.383   5.070  -1.203  0.00  0.00    -0.540 OA
ATOM     10  C   LIG    1        1.139   3.368   0.009  0.00  0.00    +0.430 C 
ENDROOT
BRANCH   7  11
ATOM     11  O   LIG    1        1.240   3.607  -2.395  0.00  0.00    -0.550 OA
ATOM     12  H   LIG    1        1.705   3.891  -3.194  0.00  0.00    +0.390 HD
ENDBRANCH   7  11
BRANCH   5  13
ATOM     13  O   LIG    1        4.589   1.218  -1.125  0.00  0.00    -0.540 OA
ATOM     14  H   LIG    1        5.160   1.500  -1.853  0.00  0.00    +0.390 HD
ENDBRANCH   5  13
BRANCH   4  15
ATOM     15  O   LIG    1        3.145   1.458   1.190  0.00  0.00    -0.550 OA
ATOM     16  H   LIG    1        2.680   1.175   1.989  0.00  0.00    +0.390 HD
ENDBRANCH   4  15
BRANCH  10  17
ATOM     17  O   LIG    1       -0.203   3.848  -0.087  0.00  0.00    -0.540 OA
ATOM     18  H   LIG    1       -0.776   3.566   0.639  0.00  0.00    +0.390 HD
ENDBRANCH  10  17
TORSDOF 4
ENDMDL
MODEL      152
REMARK  Name = ZINC000025721524
REMARK                            x       y       z     vdW  Elec       q    Type
REMARK                         _______ _______ _______ _____ _____    ______ ____
ROOT
ATOM      1  C   LIG    1        1.304  -2.596  -2.255  0.00  0.00    +0.270 C 
ATOM      2  C   LIG    1        2.809  -2.701  -1.994  0.00  0.00    +0.320 C 
ATOM      3  O   LIG    1        3.433  -3.386  -3.081  0.00  0.00    -0.380 OA
ATOM      4  C   LIG    1        2.967  -4.724  -3.272  0.00  0.00    +0.150 C 
ATOM      5  C   LIG    1        1.469  -4.701  -3.584  0.00  0.00    +0.140 C 
ATOM      6  C   LIG    1        0.726  -4.003  -2.441  0.00  0.00    +0.190 C 
ENDROOT
BRANCH   1   8
ATOM      7  C   LIG    1        0.600  -0.602  -1.046  0.00  0.00    +0.650 C 
ATOM      8  N   LIG    1        0.653  -1.946  -1.115  0.00  0.00    -0.690 N 
ATOM      9  H   LIG    1        0.260  -2.484  -0.409  0.00  0.00    +0.410 HD
ATOM     10  O   LIG    1        1.092   0.072  -1.930  0.00  0.00    -0.550 OA
BRANCH   7  12
ATOM     11  C   LIG    1       -0.018   1.448   0.010  0.00  0.00    +0.280 C 
ATOM     12  O   LIG    1        0.002  -0.004   0.002  0.00  0.00    -0.370 OA
ENDBRANCH   7  12
ENDBRANCH   1   8
BRANCH   5  13
ATOM     13  O   LIG    1        0.989  -6.040  -3.720  0.00  0.00    -0.550 OA
ATOM     14  H   LIG    1        1.419  -6.543  -4.425  0.00  0.00    +0.390 HD
ENDBRANCH   5  13
BRANCH   2  15
ATOM     15  O   LIG    1        3.364  -1.389  -1.876  0.00  0.00    -0.520 OA
ATOM     16  H   LIG    1        4.316  -1.379  -1.710  0.00  0.00    +0.390 HD
ENDBRANCH   2  15
BRANCH   6  17
ATOM     17  O   LIG    1       -0.664  -3.914  -2.758  0.00  0.00    -0.550 OA
ATOM     18  H   LIG    1       -1.092  -4.771  -2.894  0.00  0.00    +0.390 HD
ENDBRANCH   6  17
BRANCH   4  19
ATOM     19  C   LIG    1        3.722  -5.366  -4.438  0.00  0.00    +0.210 C 
BRANCH  19  20
ATOM     20  O   LIG    1        5.104  -5.492  -4.098  0.00  0.00    -0.560 OA
ATOM     21  H   LIG    1        5.645  -5.892  -4.793  0.00  0.00    +0.390 HD
ENDBRANCH  19  20
ENDBRANCH   4  19
TORSDOF 7
ENDMDL
MODEL      153
REMARK  Name = ZINC000004566053
REMARK                            x       y       z     vdW  Elec       q    Type
REMARK                         _______ _______ _______ _____ _____    ______ ____
ROOT
ATOM      1  O   LIG    1       -0.044   0.028  -0.002  0.00  0.00    -0.530 OA
ATOM      2  C   LIG    1       -0.034   1.241   0.011  0.00  0.00    +0.640 C 
ATOM      3  N   LIG    1        1.139   1.905   0.004  0.00  0.00    -0.660 N 
ATOM      4  C   LIG    1        2.413   1.173  -0.026  0.00  0.00    +0.420 C 
ATOM      5  C   LIG    1        3.233   1.664  -1.225  0.00  0.00    +0.420 C 
ATOM      6  N   LIG    1        3.261   3.134  -1.204  0.00  0.00    -0.660 N 
ATOM      7  C   LIG    1        1.987   3.866  -1.175  0.00  0.00    +0.420 C 
ATOM      8  C   LIG    1        4.434   3.798  -1.212  0.00  0.00    +0.630 C 
ATOM      9  O   LIG    1        5.478   3.185  -1.139  0.00  0.00    -0.530 OA
ATOM     10  C   LIG    1        1.167   3.374   0.019  0.00  0.00    +0.410 C 
ENDROOT
BRANCH   7  11
ATOM     11  O   LIG    1        2.241   5.266  -1.044  0.00  0.00    -0.540 OA
ATOM     12  H   LIG    1        2.700   5.654  -1.802  0.00  0.00    +0.390 HD
ENDBRANCH   7  11
BRANCH   5  13
ATOM     13  O   LIG    1        4.565   1.155  -1.136  0.00  0.00    -0.530 OA
ATOM     14  H   LIG    1        5.140   1.427  -1.864  0.00  0.00    +0.390 HD
ENDBRANCH   5  13
BRANCH   4  15
ATOM     15  O   LIG    1        3.134   1.415   1.184  0.00  0.00    -0.530 OA
ATOM     16  H   LIG    1        2.665   1.138   1.983  0.00  0.00    +0.380 HD
ENDBRANCH   4  15
BRANCH  10  17
ATOM     17  O   LIG    1        1.769   3.827   1.233  0.00  0.00    -0.530 OA
ATOM     18  H   LIG    1        1.299   3.550   2.032  0.00  0.00    +0.380 HD
ENDBRANCH  10  17
TORSDOF 4
ENDMDL
MODEL      154
REMARK  Name = ZINC000013531209
REMARK                            x       y       z     vdW  Elec       q    Type
REMARK                         _______ _______ _______ _____ _____    ______ ____
ROOT
ATOM      1  N   LIG    1       -2.994  -3.826   0.010  0.00  0.00    -0.530 N 
ATOM      2  C   LIG    1       -2.991  -4.494  -1.170  0.00  0.00    +0.650 A 
ATOM      3  N   LIG    1       -2.974  -5.793  -1.247  0.00  0.00    -0.520 NA
ATOM      4  C   LIG    1       -2.958  -6.566  -0.151  0.00  0.00    +0.300 A 
ATOM      5  C   LIG    1       -2.960  -5.969   1.115  0.00  0.00    -0.150 A 
ATOM      6  N   LIG    1       -2.943  -6.943   2.035  0.00  0.00    -0.160 NA
ATOM      7  N   LIG    1       -2.930  -8.094   1.457  0.00  0.00    -0.040 NA
ATOM      8  N   LIG    1       -2.939  -7.911   0.066  0.00  0.00    -0.350 N 
ATOM      9  C   LIG    1       -2.930  -8.962  -0.955  0.00  0.00    +0.380 C 
ATOM     10  C   LIG    1       -2.974  -4.505   1.180  0.00  0.00    +0.590 A 
ATOM     11  O   LIG    1       -2.976  -3.921   2.249  0.00  0.00    -0.490 OA
ENDROOT
BRANCH   1  12
ATOM     12  C   LIG    1       -3.014  -2.361   0.018  0.00  0.00    +0.360 C 
BRANCH  12  15
ATOM     13  N   LIG    1       -1.372  -0.511   0.012  0.00  0.00    -0.720 N 
ATOM     14  H   LIG    1       -2.118   0.109   0.023  0.00  0.00    +0.400 HD
ATOM     15  C   LIG    1       -1.601  -1.839   0.007  0.00  0.00    +0.500 C 
ATOM     16  O   LIG    1       -0.668  -2.615  -0.006  0.00  0.00    -0.520 OA
BRANCH  13  18
ATOM     17  C   LIG    1       -0.019   1.526   0.010  0.00  0.00    +0.030 C 
ATOM     18  C   LIG    1        0.002  -0.004   0.002  0.00  0.00    +0.250 C 
ENDBRANCH  13  18
ENDBRANCH  12  15
ENDBRANCH   1  12
TORSDOF 3
ENDMDL
MODEL      155
REMARK  Name = ZINC000055174765
REMARK                            x       y       z     vdW  Elec       q    Type
REMARK                         _______ _______ _______ _____ _____    ______ ____
ROOT
ATOM      1  C   LIG    1       -0.026   1.467   0.014  0.00  0.00    +0.190 C 
ATOM      2  N   LIG    1       -0.003  -0.002   0.005  0.00  0.00    -0.540 NA
ATOM      3  C   LIG    1       -1.362  -0.549  -0.091  0.00  0.00    +0.180 C 
ATOM      4  C   LIG    1       -1.286  -2.068  -0.279  0.00  0.00    +0.310 C 
ATOM      5  N   LIG    1       -0.463  -2.632   0.802  0.00  0.00    -0.590 N 
ATOM      6  C   LIG    1        0.861  -2.042   1.049  0.00  0.00    +0.280 C 
ATOM      7  C   LIG    1       -0.911  -3.662   1.546  0.00  0.00    +0.620 C 
ATOM      8  O   LIG    1       -2.043  -4.077   1.391  0.00  0.00    -0.500 OA
ATOM      9  C   LIG    1        0.700  -0.524   1.185  0.00  0.00    +0.180 C 
ENDROOT
BRANCH   7  10
ATOM     10  C   LIG    1       -0.027  -4.287   2.551  0.00  0.00    -0.070 A 
ATOM     11  N   LIG    1        0.936  -5.170   2.368  0.00  0.00    -0.010 N 
ATOM     12  O   LIG    1        1.435  -5.443   3.435  0.00  0.00    +0.300 OA
ATOM     13  N   LIG    1        0.973  -4.878   4.398  0.00  0.00    -0.360 NA
ATOM     14  O   LIG    1        1.324  -5.714   1.119  0.00  0.00    -0.420 OA
ATOM     15  C   LIG    1        0.007  -4.075   4.015  0.00  0.00    +0.350 A 
BRANCH  15  16
ATOM     16  N   LIG    1       -0.787  -3.242   4.791  0.00  0.00    -0.790 N 
ATOM     17  H   LIG    1       -1.471  -2.696   4.372  0.00  0.00    +0.430 HD
ATOM     18  H   LIG    1       -0.659  -3.206   5.752  0.00  0.00    +0.430 HD
ENDBRANCH  15  16
ENDBRANCH   7  10
TORSDOF 2
ENDMDL
MODEL      156
REMARK  Name = ZINC000248179091
REMARK                            x       y       z     vdW  Elec       q    Type
REMARK                         _______ _______ _______ _____ _____    ______ ____
ROOT
ATOM      1  C   LIG    1       -2.551  -4.195   0.004  0.00  0.00    +0.370 C 
ATOM      2  O   LIG    1       -2.675  -4.666  -1.340  0.00  0.00    -0.360 OA
ATOM      3  C   LIG    1       -2.641  -6.089  -1.464  0.00  0.00    +0.190 C 
ATOM      4  C   LIG    1       -3.813  -6.696  -0.688  0.00  0.00    +0.160 C 
ATOM      5  C   LIG    1       -3.727  -6.256   0.777  0.00  0.00    +0.160 C 
ATOM      6  C   LIG    1       -3.719  -4.726   0.840  0.00  0.00    +0.120 C 
ENDROOT
BRANCH   1   8
ATOM      7  C   LIG    1       -1.413  -2.041   0.005  0.00  0.00    +0.520 C 
ATOM      8  N   LIG    1       -2.571  -2.730   0.012  0.00  0.00    -0.720 N 
ATOM      9  H   LIG    1       -3.417  -2.257   0.023  0.00  0.00    +0.400 HD
ATOM     10  O   LIG    1       -0.354  -2.632  -0.009  0.00  0.00    -0.530 OA
BRANCH   7  11
ATOM     11  C   LIG    1       -1.433  -0.534   0.013  0.00  0.00    +0.060 C 
BRANCH  11  13
ATOM     12  C   LIG    1       -0.019   1.526   0.010  0.00  0.00    +0.020 C 
ATOM     13  C   LIG    1        0.002  -0.004   0.002  0.00  0.00    +0.030 C 
ENDBRANCH  11  13
ENDBRANCH   7  11
ENDBRANCH   1   8
BRANCH   5  14
ATOM     14  O   LIG    1       -4.855  -6.760   1.494  0.00  0.00    -0.550 OA
ATOM     15  H   LIG    1       -4.866  -6.519   2.430  0.00  0.00    +0.390 HD
ENDBRANCH   5  14
BRANCH   4  16
ATOM     16  O   LIG    1       -5.045  -6.244  -1.252  0.00  0.00    -0.530 OA
ATOM     17  H   LIG    1       -5.831  -6.590  -0.808  0.00  0.00    +0.380 HD
ENDBRANCH   4  16
BRANCH   6  18
ATOM     18  O   LIG    1       -4.949  -4.220   0.318  0.00  0.00    -0.520 OA
ATOM     19  H   LIG    1       -5.013  -3.255   0.327  0.00  0.00    +0.370 HD
ENDBRANCH   6  18
BRANCH   3  20
ATOM     20  C   LIG    1       -2.753  -6.474  -2.941  0.00  0.00    +0.220 C 
BRANCH  20  21
ATOM     21  O   LIG    1       -1.601  -6.006  -3.644  0.00  0.00    -0.570 OA
ATOM     22  H   LIG    1       -1.604  -6.215  -4.588  0.00  0.00    +0.380 HD
ENDBRANCH  20  21
ENDBRANCH   3  20
TORSDOF 8
ENDMDL
MODEL      157
REMARK  Name = ZINC000030872213
REMARK                            x       y       z     vdW  Elec       q    Type
REMARK                         _______ _______ _______ _____ _____    ______ ____
ROOT
ATOM      1  N   LIG    1       -2.994  -3.826   0.010  0.00  0.00    -0.520 N 
ATOM      2  C   LIG    1       -2.991  -4.497  -1.182  0.00  0.00    +0.360 A 
ATOM      3  C   LIG    1       -2.972  -5.847  -1.190  0.00  0.00    -0.120 A 
ATOM      4  C   LIG    1       -2.957  -6.543   0.043  0.00  0.00    +0.550 A 
ATOM      5  N   LIG    1       -2.961  -5.844   1.197  0.00  0.00    -0.560 N 
ATOM      6  C   LIG    1       -2.945  -6.553   2.479  0.00  0.00    +0.340 C 
ATOM      7  O   LIG    1       -2.939  -7.760   0.062  0.00  0.00    -0.510 OA
ATOM      8  C   LIG    1       -2.974  -4.498   1.175  0.00  0.00    +0.700 A 
ATOM      9  O   LIG    1       -2.978  -3.882   2.223  0.00  0.00    -0.540 OA
ENDROOT
BRANCH   1  10
ATOM     10  C   LIG    1       -3.014  -2.361   0.018  0.00  0.00    +0.350 C 
BRANCH  10  13
ATOM     11  N   LIG    1       -1.372  -0.511   0.012  0.00  0.00    -0.730 N 
ATOM     12  H   LIG    1       -2.118   0.109   0.023  0.00  0.00    +0.400 HD
ATOM     13  C   LIG    1       -1.601  -1.839   0.007  0.00  0.00    +0.500 C 
ATOM     14  O   LIG    1       -0.668  -2.615  -0.006  0.00  0.00    -0.520 OA
BRANCH  11  16
ATOM     15  C   LIG    1       -0.019   1.526   0.010  0.00  0.00    +0.030 C 
ATOM     16  C   LIG    1        0.002  -0.004   0.002  0.00  0.00    +0.250 C 
ENDBRANCH  11  16
ENDBRANCH  10  13
ENDBRANCH   1  10
TORSDOF 3
ENDMDL
MODEL      158
REMARK  Name = ZINC000248179094
REMARK                            x       y       z     vdW  Elec       q    Type
REMARK                         _______ _______ _______ _____ _____    ______ ____
ROOT
ATOM      1  C   LIG    1       -2.551  -4.195   0.004  0.00  0.00    +0.390 C 
ATOM      2  O   LIG    1       -2.675  -4.666  -1.340  0.00  0.00    -0.370 OA
ATOM      3  C   LIG    1       -2.641  -6.089  -1.464  0.00  0.00    +0.200 C 
ATOM      4  C   LIG    1       -3.813  -6.696  -0.688  0.00  0.00    +0.170 C 
ATOM      5  C   LIG    1       -3.727  -6.256   0.777  0.00  0.00    +0.170 C 
ATOM      6  C   LIG    1       -3.719  -4.726   0.840  0.00  0.00    +0.120 C 
ENDROOT
BRANCH   1   8
ATOM      7  C   LIG    1       -1.413  -2.041   0.005  0.00  0.00    +0.520 C 
ATOM      8  N   LIG    1       -2.571  -2.730   0.012  0.00  0.00    -0.720 N 
ATOM      9  H   LIG    1       -3.417  -2.257   0.023  0.00  0.00    +0.400 HD
ATOM     10  O   LIG    1       -0.354  -2.632  -0.009  0.00  0.00    -0.520 OA
BRANCH   7  11
ATOM     11  C   LIG    1       -1.433  -0.534   0.013  0.00  0.00    +0.060 C 
BRANCH  11  13
ATOM     12  C   LIG    1       -0.019   1.526   0.010  0.00  0.00    +0.020 C 
ATOM     13  C   LIG    1        0.002  -0.004   0.002  0.00  0.00    +0.030 C 
ENDBRANCH  11  13
ENDBRANCH   7  11
ENDBRANCH   1   8
BRANCH   5  14
ATOM     14  O   LIG    1       -2.526  -6.767   1.359  0.00  0.00    -0.550 OA
ATOM     15  H   LIG    1       -2.406  -6.526   2.288  0.00  0.00    +0.390 HD
ENDBRANCH   5  14
BRANCH   4  16
ATOM     16  O   LIG    1       -5.045  -6.244  -1.252  0.00  0.00    -0.540 OA
ATOM     17  H   LIG    1       -5.831  -6.590  -0.808  0.00  0.00    +0.380 HD
ENDBRANCH   4  16
BRANCH   6  18
ATOM     18  O   LIG    1       -3.567  -4.305   2.197  0.00  0.00    -0.560 OA
ATOM     19  H   LIG    1       -3.554  -3.345   2.311  0.00  0.00    +0.390 HD
ENDBRANCH   6  18
BRANCH   3  20
ATOM     20  C   LIG    1       -2.753  -6.474  -2.941  0.00  0.00    +0.210 C 
BRANCH  20  21
ATOM     21  O   LIG    1       -1.601  -6.006  -3.644  0.00  0.00    -0.570 OA
ATOM     22  H   LIG    1       -1.604  -6.215  -4.588  0.00  0.00    +0.380 HD
ENDBRANCH  20  21
ENDBRANCH   3  20
TORSDOF 8
ENDMDL
MODEL      159
REMARK  Name = ZINC000029318308
REMARK                            x       y       z     vdW  Elec       q    Type
REMARK                         _______ _______ _______ _____ _____    ______ ____
ROOT
ATOM      1  C   LIG    1        4.147  -1.181  -2.273  0.00  0.00    +0.260 C 
ENDROOT
BRANCH   1   5
ATOM      2  N   LIG    1        1.779   1.316  -0.979  0.00  0.00    -0.740 N 
ATOM      3  H   LIG    1        1.136   1.366  -1.703  0.00  0.00    +0.400 HD
ATOM      4  C   LIG    1        2.835   0.485  -1.072  0.00  0.00    +0.710 C 
ATOM      5  N   LIG    1        2.999  -0.277  -2.172  0.00  0.00    -0.720 N 
ATOM      6  H   LIG    1        2.356  -0.227  -2.896  0.00  0.00    +0.410 HD
ATOM      7  O   LIG    1        3.642   0.422  -0.164  0.00  0.00    -0.590 OA
BRANCH   2   9
ATOM      8  C   LIG    1        2.415   3.432   0.071  0.00  0.00    +0.020 C 
ATOM      9  C   LIG    1        1.601   2.144   0.217  0.00  0.00    +0.240 C 
ATOM     10  C   LIG    1        0.121   2.493   0.381  0.00  0.00    +0.040 C 
ENDBRANCH   2   9
ENDBRANCH   1   5
BRANCH   1  11
ATOM     11  C   LIG    1        4.460  -1.435  -3.725  0.00  0.00    +0.530 C 
ATOM     12  O   LIG    1        3.594  -1.302  -4.564  0.00  0.00    -0.520 OA
ATOM     13  N   LIG    1        5.702  -1.809  -4.091  0.00  0.00    -0.840 N 
ATOM     14  H   LIG    1        5.886  -2.041  -5.015  0.00  0.00    +0.410 HD
ATOM     15  H   LIG    1        6.412  -1.846  -3.432  0.00  0.00    +0.400 HD
ENDBRANCH   1  11
BRANCH   1  16
ATOM     16  C   LIG    1        3.821  -2.486  -1.594  0.00  0.00    +0.510 C 
ATOM     17  O   LIG    1        2.667  -2.846  -1.495  0.00  0.00    -0.510 OA
ATOM     18  N   LIG    1        4.811  -3.252  -1.096  0.00  0.00    -0.850 N 
ATOM     19  H   LIG    1        4.609  -4.125  -0.724  0.00  0.00    +0.410 HD
ATOM     20  H   LIG    1        5.726  -2.932  -1.110  0.00  0.00    +0.400 HD
ENDBRANCH   1  16
TORSDOF 4
ENDMDL
MODEL      160
REMARK  Name = ZINC000001840392
REMARK                            x       y       z     vdW  Elec       q    Type
REMARK                         _______ _______ _______ _____ _____    ______ ____
ROOT
ATOM      1  C   LIG    1       -0.018   1.461   0.010  0.00  0.00    +0.340 C 
ATOM      2  N   LIG    1        0.002  -0.004   0.002  0.00  0.00    -0.510 N 
ATOM      3  C   LIG    1       -1.186  -0.701   0.004  0.00  0.00    +0.250 A 
ATOM      4  C   LIG    1       -1.157  -2.088  -0.004  0.00  0.00    -0.060 A 
ATOM      5  C   LIG    1        0.145  -2.755  -0.013  0.00  0.00    +0.600 A 
ATOM      6  N   LIG    1        1.260  -1.994  -0.014  0.00  0.00    -0.650 N 
ATOM      7  H   LIG    1        2.131  -2.421  -0.020  0.00  0.00    +0.440 HD
ATOM      8  O   LIG    1        0.221  -3.970  -0.021  0.00  0.00    -0.480 OA
ATOM      9  N   LIG    1       -2.444  -2.524   0.000  0.00  0.00    -0.460 NA
ATOM     10  C   LIG    1       -3.244  -1.488   0.010  0.00  0.00    +0.510 A 
ATOM     11  N   LIG    1       -2.500  -0.340   0.012  0.00  0.00    -0.580 N 
ATOM     12  H   LIG    1       -2.846   0.567   0.019  0.00  0.00    +0.420 HD
ATOM     13  C   LIG    1        1.180  -0.652  -0.013  0.00  0.00    +0.720 A 
ATOM     14  O   LIG    1        2.208  -0.003  -0.013  0.00  0.00    -0.540 OA
ENDROOT
BRANCH  10  15
ATOM     15  N   LIG    1       -4.627  -1.546   0.017  0.00  0.00    -0.710 N 
ATOM     16  H   LIG    1       -5.077  -2.405   0.014  0.00  0.00    +0.430 HD
BRANCH  15  17
ATOM     17  C   LIG    1       -5.412  -0.308   0.028  0.00  0.00    +0.250 C 
BRANCH  17  18
ATOM     18  C   LIG    1       -6.903  -0.650   0.034  0.00  0.00    +0.030 C 
BRANCH  18  19
ATOM     19  C   LIG    1       -7.722   0.642   0.045  0.00  0.00    +0.180 C 
BRANCH  19  20
ATOM     20  O   LIG    1       -9.115   0.323   0.051  0.00  0.00    -0.570 OA
ATOM     21  H   LIG    1       -9.696   1.096   0.058  0.00  0.00    +0.390 HD
ENDBRANCH  19  20
ENDBRANCH  18  19
ENDBRANCH  17  18
ENDBRANCH  15  17
ENDBRANCH  10  15
TORSDOF 5
ENDMDL
MODEL      161
REMARK  Name = ZINC000004671217
REMARK                            x       y       z     vdW  Elec       q    Type
REMARK                         _______ _______ _______ _____ _____    ______ ____
ROOT
ATOM      1  C   LIG    1        2.849  -0.339  -2.312  0.00  0.00    +0.450 C 
ATOM      2  O   LIG    1        2.399  -1.038  -3.189  0.00  0.00    -0.490 OA
ENDROOT
BRANCH   1   3
ATOM      3  C   LIG    1        4.274   0.145  -2.391  0.00  0.00    +0.280 C 
ATOM      4  C   LIG    1        4.318   1.591  -2.933  0.00  0.00    +0.090 C 
ATOM      5  C   LIG    1        4.523   1.354  -4.447  0.00  0.00    +0.060 C 
ATOM      6  C   LIG    1        5.181  -0.006  -4.524  0.00  0.00    +0.530 C 
ATOM      7  O   LIG    1        5.759  -0.445  -5.496  0.00  0.00    -0.520 OA
ATOM      8  N   LIG    1        5.031  -0.660  -3.357  0.00  0.00    -0.710 N 
ATOM      9  H   LIG    1        5.379  -1.548  -3.179  0.00  0.00    +0.420 HD
ENDBRANCH   1   3
BRANCH   1  10
ATOM     10  O   LIG    1        2.080   0.005  -1.267  0.00  0.00    -0.340 OA
BRANCH  10  11
ATOM     11  C   LIG    1        0.718  -0.497  -1.257  0.00  0.00    +0.220 C 
BRANCH  11  13
ATOM     12  C   LIG    1       -0.019   1.526   0.010  0.00  0.00    +0.060 C 
ATOM     13  C   LIG    1        0.002  -0.004   0.002  0.00  0.00    +0.300 C 
BRANCH  13  14
ATOM     14  O   LIG    1       -1.339  -0.499   0.012  0.00  0.00    -0.570 OA
ATOM     15  H   LIG    1       -1.853  -0.225   0.784  0.00  0.00    +0.400 HD
ENDBRANCH  13  14
BRANCH  13  16
ATOM     16  O   LIG    1        0.693  -0.477   1.160  0.00  0.00    -0.570 OA
ATOM     17  H   LIG    1        0.745  -1.441   1.220  0.00  0.00    +0.380 HD
ENDBRANCH  13  16
ENDBRANCH  11  13
ENDBRANCH  10  11
ENDBRANCH   1  10
TORSDOF 6
ENDMDL
MODEL      162
REMARK  Name = ZINC000004671218
REMARK                            x       y       z     vdW  Elec       q    Type
REMARK                         _______ _______ _______ _____ _____    ______ ____
ROOT
ATOM      1  C   LIG    1        2.849  -0.339  -2.312  0.00  0.00    +0.450 C 
ATOM      2  O   LIG    1        2.399  -1.038  -3.189  0.00  0.00    -0.490 OA
ENDROOT
BRANCH   1   3
ATOM      3  C   LIG    1        4.274   0.145  -2.391  0.00  0.00    +0.270 C 
ATOM      4  C   LIG    1        5.190  -0.745  -1.522  0.00  0.00    +0.080 C 
ATOM      5  C   LIG    1        6.490  -0.772  -2.359  0.00  0.00    +0.070 C 
ATOM      6  C   LIG    1        6.026  -0.500  -3.773  0.00  0.00    +0.520 C 
ATOM      7  O   LIG    1        6.682  -0.709  -4.771  0.00  0.00    -0.520 OA
ATOM      8  N   LIG    1        4.781   0.010  -3.762  0.00  0.00    -0.720 N 
ATOM      9  H   LIG    1        4.282   0.254  -4.558  0.00  0.00    +0.420 HD
ENDBRANCH   1   3
BRANCH   1  10
ATOM     10  O   LIG    1        2.080   0.005  -1.267  0.00  0.00    -0.340 OA
BRANCH  10  11
ATOM     11  C   LIG    1        0.718  -0.497  -1.257  0.00  0.00    +0.220 C 
BRANCH  11  13
ATOM     12  C   LIG    1       -0.019   1.526   0.010  0.00  0.00    +0.060 C 
ATOM     13  C   LIG    1        0.002  -0.004   0.002  0.00  0.00    +0.300 C 
BRANCH  13  14
ATOM     14  O   LIG    1       -1.339  -0.499   0.012  0.00  0.00    -0.570 OA
ATOM     15  H   LIG    1       -1.853  -0.225   0.784  0.00  0.00    +0.400 HD
ENDBRANCH  13  14
BRANCH  13  16
ATOM     16  O   LIG    1        0.693  -0.477   1.160  0.00  0.00    -0.560 OA
ATOM     17  H   LIG    1        0.745  -1.441   1.220  0.00  0.00    +0.380 HD
ENDBRANCH  13  16
ENDBRANCH  11  13
ENDBRANCH  10  11
ENDBRANCH   1  10
TORSDOF 6
ENDMDL
MODEL      163
REMARK  Name = ZINC000019319196
REMARK                            x       y       z     vdW  Elec       q    Type
REMARK                         _______ _______ _______ _____ _____    ______ ____
ROOT
ATOM      1  N   LIG    1       -2.196   0.054  -1.463  0.00  0.00    -0.530 NA
ATOM      2  C   LIG    1       -2.328   1.411  -2.013  0.00  0.00    +0.350 C 
ATOM      3  N   LIG    1       -3.257   1.385  -3.152  0.00  0.00    -0.530 NA
ATOM      4  C   LIG    1       -4.573   0.876  -2.742  0.00  0.00    +0.350 C 
ATOM      5  N   LIG    1       -4.420  -0.475  -2.185  0.00  0.00    -0.530 NA
ATOM      6  C   LIG    1       -3.503  -0.467  -1.037  0.00  0.00    +0.350 C 
ENDROOT
BRANCH   1   7
ATOM      7  C   LIG    1       -1.232   0.027  -0.355  0.00  0.00    +0.240 C 
BRANCH   7   8
ATOM      8  C   LIG    1       -1.527   1.180   0.607  0.00  0.00    +0.140 C 
BRANCH   8   9
ATOM      9  O   LIG    1       -2.801   0.974   1.221  0.00  0.00    -0.570 OA
ATOM     10  H   LIG    1       -3.053   1.669   1.844  0.00  0.00    +0.370 HD
ENDBRANCH   8   9
ENDBRANCH   7   8
ENDBRANCH   1   7
BRANCH   5  11
ATOM     11  C   LIG    1       -5.724  -1.042  -1.814  0.00  0.00    +0.240 C 
BRANCH  11  12
ATOM     12  C   LIG    1       -6.201  -0.409  -0.505  0.00  0.00    +0.140 C 
BRANCH  12  13
ATOM     13  O   LIG    1       -6.524   0.965  -0.731  0.00  0.00    -0.570 OA
ATOM     14  H   LIG    1       -6.835   1.430   0.058  0.00  0.00    +0.370 HD
ENDBRANCH  12  13
ENDBRANCH  11  12
ENDBRANCH   5  11
BRANCH   3  15
ATOM     15  C   LIG    1       -3.374   2.715  -3.766  0.00  0.00    +0.240 C 
BRANCH  15  16
ATOM     16  C   LIG    1       -4.261   3.603  -2.892  0.00  0.00    +0.140 C 
BRANCH  16  17
ATOM     17  O   LIG    1       -3.618   3.832  -1.637  0.00  0.00    -0.570 OA
ATOM     18  H   LIG    1       -4.125   4.389  -1.031  0.00  0.00    +0.370 HD
ENDBRANCH  16  17
ENDBRANCH  15  16
ENDBRANCH   3  15
TORSDOF 9
ENDMDL
MODEL      164
REMARK  Name = ZINC000004486327
REMARK                            x       y       z     vdW  Elec       q    Type
REMARK                         _______ _______ _______ _____ _____    ______ ____
ROOT
ATOM      1  C   LIG    1       -3.387  -0.508  -1.443  0.00  0.00    +0.320 C 
ATOM      2  S   LIG    1       -4.229  -1.415  -0.261  0.00  0.00    -0.510 S 
ENDROOT
BRANCH   1   3
ATOM      3  N   LIG    1       -2.105  -0.148  -1.230  0.00  0.00    -0.580 N 
ATOM      4  H   LIG    1       -1.628   0.366  -1.901  0.00  0.00    +0.430 HD
BRANCH   3   5
ATOM      5  C   LIG    1       -1.433  -0.534   0.013  0.00  0.00    +0.330 C 
BRANCH   5   6
ATOM      6  C   LIG    1        0.002  -0.004   0.002  0.00  0.00    +0.200 C 
BRANCH   6   7
ATOM      7  O   LIG    1       -0.017   1.425   0.010  0.00  0.00    -0.570 OA
ATOM      8  H   LIG    1        0.861   1.830   0.004  0.00  0.00    +0.390 HD
ENDBRANCH   6   7
ENDBRANCH   5   6
ENDBRANCH   3   5
ENDBRANCH   1   3
BRANCH   1   9
ATOM      9  C   LIG    1       -4.065  -0.119  -2.699  0.00  0.00    +0.320 C 
ATOM     10  S   LIG    1       -3.223   0.788  -3.882  0.00  0.00    -0.510 S 
BRANCH   9  11
ATOM     11  N   LIG    1       -5.347  -0.479  -2.912  0.00  0.00    -0.580 N 
ATOM     12  H   LIG    1       -5.824  -0.993  -2.242  0.00  0.00    +0.430 HD
BRANCH  11  13
ATOM     13  C   LIG    1       -6.019  -0.093  -4.155  0.00  0.00    +0.330 C 
BRANCH  13  14
ATOM     14  C   LIG    1       -7.454  -0.623  -4.144  0.00  0.00    +0.200 C 
BRANCH  14  15
ATOM     15  O   LIG    1       -8.191   0.019  -3.102  0.00  0.00    -0.570 OA
ATOM     16  H   LIG    1       -9.112  -0.269  -3.036  0.00  0.00    +0.390 HD
ENDBRANCH  14  15
ENDBRANCH  13  14
ENDBRANCH  11  13
ENDBRANCH   9  11
ENDBRANCH   1   9
TORSDOF 9
ENDMDL
MODEL      165
REMARK  Name = ZINC000036393270
REMARK                            x       y       z     vdW  Elec       q    Type
REMARK                         _______ _______ _______ _____ _____    ______ ____
ROOT
ATOM      1  C   LIG    1       -1.406  -0.912   1.784  0.00  0.00    +0.020 C 
ENDROOT
BRANCH   1   2
ATOM      2  C   LIG    1        0.024  -0.743   1.267  0.00  0.00    +0.300 C 
BRANCH   2   4
ATOM      3  C   LIG    1       -0.018   1.461   0.010  0.00  0.00    +0.310 C 
ATOM      4  N   LIG    1        0.002  -0.004   0.002  0.00  0.00    -1.000 NA
BRANCH   4   5
ATOM      5  S   LIG    1       -0.000  -0.824  -1.437  0.00  0.00    +2.610 S 
ATOM      6  O   LIG    1       -0.626   0.068  -2.348  0.00  0.00    -0.950 OA
ATOM      7  O   LIG    1       -0.586  -2.081  -1.123  0.00  0.00    -0.950 OA
ATOM      8  C   LIG    1        1.755  -1.025  -1.846  0.00  0.00    -0.280 C 
ENDBRANCH   4   5
ENDBRANCH   2   4
ENDBRANCH   1   2
BRANCH   1   9
ATOM      9  C   LIG    1       -1.383  -1.684   3.105  0.00  0.00    +0.270 C 
BRANCH   9  10
ATOM     10  N   LIG    1       -2.752  -1.845   3.600  0.00  0.00    -1.120 NA
ATOM     11  H   LIG    1       -3.469  -1.308   3.227  0.00  0.00    +0.420 HD
BRANCH  10  12
ATOM     12  S   LIG    1       -3.076  -2.943   4.796  0.00  0.00    +2.610 S 
ATOM     13  O   LIG    1       -2.487  -4.151   4.332  0.00  0.00    -0.950 OA
ATOM     14  O   LIG    1       -4.479  -2.841   4.995  0.00  0.00    -0.960 OA
ATOM     15  C   LIG    1       -2.181  -2.314   6.243  0.00  0.00    -0.280 C 
ENDBRANCH  10  12
ENDBRANCH   9  10
ENDBRANCH   1   9
TORSDOF 6
ENDMDL
MODEL      166
REMARK  Name = ZINC000024817559
REMARK                            x       y       z     vdW  Elec       q    Type
REMARK                         _______ _______ _______ _____ _____    ______ ____
ROOT
ATOM      1  C   LIG    1       -1.322   1.920  -0.188  0.00  0.00    +0.180 C 
ENDROOT
BRANCH   1   3
ATOM      2  O   LIG    1       -0.006   0.017   0.255  0.00  0.00    -0.420 OA
ATOM      3  C   LIG    1       -0.015   1.206   0.042  0.00  0.00    +0.340 C 
BRANCH   3   4
ATOM      4  C   LIG    1        1.280   1.975   0.000  0.00  0.00    +0.180 C 
BRANCH   4   5
ATOM      5  N   LIG    1        2.408   1.039   0.105  0.00  0.00    -0.520 NA
ATOM      6  C   LIG    1        3.674   1.760   0.306  0.00  0.00    +0.160 C 
ATOM      7  C   LIG    1        4.811   0.748   0.470  0.00  0.00    +0.220 C 
ATOM      8  O   LIG    1        4.850  -0.106  -0.676  0.00  0.00    -0.390 OA
ATOM      9  C   LIG    1        3.634  -0.824  -0.902  0.00  0.00    +0.230 C 
ATOM     10  C   LIG    1        2.485   0.172  -1.079  0.00  0.00    +0.140 C 
ENDBRANCH   4   5
ENDBRANCH   3   4
ENDBRANCH   1   3
BRANCH   1  11
ATOM     11  O   LIG    1       -2.348   0.961  -0.453  0.00  0.00    -0.530 OA
ATOM     12  H   LIG    1       -2.491   0.329   0.265  0.00  0.00    +0.380 HD
ENDBRANCH   1  11
BRANCH   1  13
ATOM     13  C   LIG    1       -1.689   2.728   1.059  0.00  0.00    +0.170 C 
BRANCH  13  14
ATOM     14  O   LIG    1       -1.703   1.865   2.198  0.00  0.00    -0.550 OA
ATOM     15  H   LIG    1       -2.337   1.138   2.132  0.00  0.00    +0.380 HD
ENDBRANCH  13  14
BRANCH  13  16
ATOM     16  C   LIG    1       -3.074   3.351   0.873  0.00  0.00    +0.210 C 
BRANCH  16  17
ATOM     17  O   LIG    1       -3.059   4.214  -0.266  0.00  0.00    -0.540 OA
ATOM     18  H   LIG    1       -2.425   4.941  -0.201  0.00  0.00    +0.370 HD
ENDBRANCH  16  17
BRANCH  16  19
ATOM     19  C   LIG    1       -3.440   4.159   2.120  0.00  0.00    +0.160 C 
BRANCH  19  20
ATOM     20  O   LIG    1       -4.778   4.645   1.996  0.00  0.00    -0.560 OA
ATOM     21  H   LIG    1       -5.078   5.167   2.753  0.00  0.00    +0.380 HD
ENDBRANCH  19  20
ENDBRANCH  16  19
ENDBRANCH  13  16
ENDBRANCH   1  13
TORSDOF 10
ENDMDL
MODEL      167
REMARK  Name = ZINC000002583632
REMARK                            x       y       z     vdW  Elec       q    Type
REMARK                         _______ _______ _______ _____ _____    ______ ____
ROOT
ATOM      1  C1*   C A  1        0.001  -4.173  -0.023  0.00  0.00    +0.420 C 
ATOM      2  O4*   C A  1       -0.855  -4.660  -1.078  0.00  0.00    -0.340 OA
ATOM      3  C4*   C A  1       -1.233  -6.001  -0.726  0.00  0.00    +0.150 C 
ATOM      4  C3*   C A  1       -1.169  -6.107   0.810  0.00  0.00    +0.140 C 
ATOM      5  C2*   C A  1       -0.665  -4.715   1.268  0.00  0.00    +0.180 C 
ENDROOT
BRANCH   1   9
ATOM      6  C4    C A  1        0.002  -0.004   0.002  0.00  0.00    +0.510 A 
ATOM      7  N3    C A  1       -1.135  -0.687   0.004  0.00  0.00    -0.620 NA
ATOM      8  C2    C A  1       -1.129  -2.018  -0.004  0.00  0.00    +0.660 A 
ATOM      9  N1    C A  1        0.026  -2.708  -0.014  0.00  0.00    -0.530 N 
ATOM     10  C6    C A  1        1.220  -2.050  -0.016  0.00  0.00    +0.380 A 
ATOM     11  O2    C A  1       -2.189  -2.623  -0.003  0.00  0.00    -0.530 OA
ATOM     12  C5    C A  1        1.230  -0.697  -0.013  0.00  0.00    -0.150 A 
BRANCH   6  13
ATOM     13  N4    C A  1       -0.017   1.371   0.010  0.00  0.00    -0.810 N 
ATOM     14  H41   C A  1       -0.863   1.845   0.016  0.00  0.00    +0.410 HD
ATOM     15  H42   C A  1        0.817   1.868   0.004  0.00  0.00    +0.420 HD
ENDBRANCH   6  13
ENDBRANCH   1   9
BRANCH   4  16
ATOM     16  O3*   C A  1       -0.246  -7.126   1.203  0.00  0.00    -0.540 OA
ATOM     17  H3*   C A  1       -0.482  -8.011   0.893  0.00  0.00    +0.390 HD
ENDBRANCH   4  16
BRANCH   5  18
ATOM     18  O2*   C A  1        0.287  -4.839   2.326  0.00  0.00    -0.540 OA
ATOM     19  H2*   C A  1       -0.064  -5.257   3.124  0.00  0.00    +0.390 HD
ENDBRANCH   5  18
BRANCH   3  20
ATOM     20  C5*   C A  1       -2.657  -6.285  -1.210  0.00  0.00    +0.200 C 
BRANCH  20  21
ATOM     21  O5*   C A  1       -2.683  -6.284  -2.639  0.00  0.00    -0.560 OA
ATOM     22  H5*   C A  1       -3.556  -6.457  -3.017  0.00  0.00    +0.380 HD
ENDBRANCH  20  21
ENDBRANCH   3  20
TORSDOF 6
ENDMDL
MODEL      168
REMARK  Name = ZINC000002643593
REMARK                            x       y       z     vdW  Elec       q    Type
REMARK                         _______ _______ _______ _____ _____    ______ ____
ROOT
ATOM      1  N   ALA A  1        0.711  -0.489   1.189  0.00  0.00    -0.690 N 
ATOM      2  H   ALA A  1        0.213  -0.731   1.986  0.00  0.00    +0.420 HD
ATOM      3  C   UNK A  0        2.054  -0.600   1.174  0.00  0.00    +0.510 C 
ATOM      4  O   UNK A  0        2.676  -0.297   0.177  0.00  0.00    -0.520 OA
ENDROOT
BRANCH   3   5
ATOM      5  C   UNK A  0        2.777  -1.095   2.385  0.00  0.00    +0.510 C 
ATOM      6  N   ALA A  1        4.120  -1.205   2.369  0.00  0.00    -0.690 N 
ATOM      7  H   ALA A  1        4.617  -0.964   1.573  0.00  0.00    +0.420 HD
ATOM      8  O   UNK A  0        2.154  -1.397   3.381  0.00  0.00    -0.520 OA
BRANCH   6   9
ATOM      9  CA  ALA A  1        4.828  -1.691   3.556  0.00  0.00    +0.240 C 
ATOM     10  CB  ALA A  1        5.082  -0.523   4.512  0.00  0.00    +0.040 C 
BRANCH   9  11
ATOM     11  C   ALA A  1        6.165  -2.305   3.136  0.00  0.00    +0.200 C 
BRANCH  11  12
ATOM     12  O   ALA A  1        7.004  -1.289   2.584  0.00  0.00    -0.570 OA
ATOM     13  H   ALA A  1        7.870  -1.608   2.296  0.00  0.00    +0.390 HD
ENDBRANCH  11  12
ENDBRANCH   9  11
ENDBRANCH   6   9
ENDBRANCH   3   5
BRANCH   1  15
ATOM     14  CB  ALA A  1       -0.019   1.526   0.010  0.00  0.00    +0.040 C 
ATOM     15  CA  ALA A  1        0.002  -0.004   0.002  0.00  0.00    +0.240 C 
BRANCH  15  16
ATOM     16  C   ALA A  1       -1.433  -0.534   0.013  0.00  0.00    +0.200 C 
BRANCH  16  17
ATOM     17  O   ALA A  1       -2.137   0.021   1.126  0.00  0.00    -0.570 OA
ATOM     18  H   ALA A  1       -3.056  -0.272   1.196  0.00  0.00    +0.390 HD
ENDBRANCH  16  17
ENDBRANCH  15  16
ENDBRANCH   1  15
TORSDOF 7
ENDMDL
MODEL      169
REMARK  Name = ZINC000031500056
REMARK                            x       y       z     vdW  Elec       q    Type
REMARK                         _______ _______ _______ _____ _____    ______ ____
ROOT
ATOM      1  C   LIG    1       -4.861  -1.039   0.034  0.00  0.00    +0.290 C 
ENDROOT
BRANCH   1   4
ATOM      2  C   LIG    1       -1.257  -0.754   0.010  0.00  0.00    +0.110 A 
ATOM      3  N   LIG    1       -2.468  -0.232   0.019  0.00  0.00    -0.410 NA
ATOM      4  C   LIG    1       -3.364  -1.213   0.024  0.00  0.00    -0.030 A 
ATOM      5  C   LIG    1       -2.702  -2.398   0.019  0.00  0.00    +0.190 A 
ATOM      6  N   LIG    1       -1.379  -2.117   0.004  0.00  0.00    -0.520 N 
ATOM      7  H   LIG    1       -0.653  -2.761  -0.003  0.00  0.00    +0.430 HD
BRANCH   2   9
ATOM      8  C   LIG    1       -0.018   1.503   0.010  0.00  0.00    +0.110 C 
ATOM      9  C   LIG    1        0.002  -0.004   0.002  0.00  0.00    +0.440 C 
ATOM     10  O   LIG    1        1.061  -0.596  -0.011  0.00  0.00    -0.460 OA
ENDBRANCH   2   9
ENDBRANCH   1   4
BRANCH   1  11
ATOM     11  O   LIG    1       -5.488  -2.318   0.154  0.00  0.00    -0.530 OA
ATOM     12  H   LIG    1       -5.251  -2.798   0.960  0.00  0.00    +0.370 HD
ENDBRANCH   1  11
BRANCH   1  13
ATOM     13  C   LIG    1       -5.264  -0.160   1.220  0.00  0.00    +0.170 C 
BRANCH  13  14
ATOM     14  O   LIG    1       -4.748  -0.722   2.428  0.00  0.00    -0.540 OA
ATOM     15  H   LIG    1       -5.067  -1.616   2.613  0.00  0.00    +0.370 HD
ENDBRANCH  13  14
BRANCH  13  16
ATOM     16  C   LIG    1       -6.790  -0.086   1.304  0.00  0.00    +0.190 C 
BRANCH  16  17
ATOM     17  O   LIG    1       -7.329  -1.408   1.366  0.00  0.00    -0.530 OA
ATOM     18  H   LIG    1       -7.026  -1.921   2.127  0.00  0.00    +0.360 HD
ENDBRANCH  16  17
BRANCH  16  19
ATOM     19  C   LIG    1       -7.195   0.689   2.559  0.00  0.00    +0.150 C 
BRANCH  19  20
ATOM     20  O   LIG    1       -8.614   0.859   2.578  0.00  0.00    -0.570 OA
ATOM     21  H   LIG    1       -8.942   1.343   3.348  0.00  0.00    +0.380 HD
ENDBRANCH  19  20
ENDBRANCH  16  19
ENDBRANCH  13  16
ENDBRANCH   1  13
TORSDOF 9
ENDMDL
MODEL      170
REMARK  Name = ZINC000002050032
REMARK                            x       y       z     vdW  Elec       q    Type
REMARK                         _______ _______ _______ _____ _____    ______ ____
ROOT
ATOM      1  C   LIG    1       -3.425  -0.519  -1.450  0.00  0.00    +0.380 A 
ATOM      2  N   LIG    1       -4.080  -1.218  -0.530  0.00  0.00    -0.210 NA
ATOM      3  N   LIG    1       -5.306  -1.562  -0.734  0.00  0.00    -0.210 NA
ATOM      4  C   LIG    1       -5.914  -1.218  -1.863  0.00  0.00    +0.380 A 
ATOM      5  N   LIG    1       -5.259  -0.518  -2.783  0.00  0.00    -0.210 NA
ATOM      6  N   LIG    1       -4.034  -0.170  -2.577  0.00  0.00    -0.210 NA
ENDROOT
BRANCH   1   7
ATOM      7  N   LIG    1       -2.105  -0.148  -1.230  0.00  0.00    -0.680 N 
ATOM      8  H   LIG    1       -1.628   0.366  -1.901  0.00  0.00    +0.420 HD
BRANCH   7   9
ATOM      9  C   LIG    1       -1.433  -0.534   0.013  0.00  0.00    +0.300 C 
BRANCH   9  10
ATOM     10  C   LIG    1        0.002  -0.004   0.002  0.00  0.00    +0.190 C 
BRANCH  10  11
ATOM     11  O   LIG    1       -0.017   1.425   0.010  0.00  0.00    -0.570 OA
ATOM     12  H   LIG    1        0.861   1.830   0.004  0.00  0.00    +0.390 HD
ENDBRANCH  10  11
ENDBRANCH   9  10
ENDBRANCH   7   9
ENDBRANCH   1   7
BRANCH   4  13
ATOM     13  N   LIG    1       -7.234  -1.588  -2.083  0.00  0.00    -0.680 N 
ATOM     14  H   LIG    1       -7.712  -2.099  -1.411  0.00  0.00    +0.420 HD
BRANCH  13  15
ATOM     15  C   LIG    1       -7.904  -1.208  -3.329  0.00  0.00    +0.300 C 
BRANCH  15  16
ATOM     16  C   LIG    1       -9.339  -1.737  -3.317  0.00  0.00    +0.190 C 
BRANCH  16  17
ATOM     17  O   LIG    1      -10.077  -1.089  -2.278  0.00  0.00    -0.570 OA
ATOM     18  H   LIG    1      -10.998  -1.376  -2.213  0.00  0.00    +0.390 HD
ENDBRANCH  16  17
ENDBRANCH  15  16
ENDBRANCH  13  15
ENDBRANCH   4  13
TORSDOF 8
ENDMDL
MODEL      171
REMARK  Name = ZINC000004784784
REMARK                            x       y       z     vdW  Elec       q    Type
REMARK                         _______ _______ _______ _____ _____    ______ ____
ROOT
ATOM      1  N   LIG    1        0.637  -0.589   3.635  0.00  0.00    -0.740 N 
ATOM      2  H   LIG    1        1.472  -1.073   3.537  0.00  0.00    +0.410 HD
ATOM      3  C   LIG    1        0.130  -0.362   4.862  0.00  0.00    +0.520 C 
ATOM      4  O   LIG    1       -0.914   0.244   4.985  0.00  0.00    -0.490 OA
ENDROOT
BRANCH   1   5
ATOM      5  C   LIG    1       -0.071  -0.103   2.448  0.00  0.00    +0.280 C 
BRANCH   5   6
ATOM      6  C   LIG    1        0.713  -0.491   1.192  0.00  0.00    +0.260 C 
BRANCH   6   8
ATOM      7  C   LIG    1       -0.018   1.465   0.010  0.00  0.00    +0.320 C 
ATOM      8  N   LIG    1        0.002  -0.004   0.002  0.00  0.00    -0.380 N 
ATOM      9  C   LIG    1        0.690  -0.478  -1.207  0.00  0.00    +0.320 C 
ATOM     10  H   LIG    1       -0.945  -0.353   0.009  0.00  0.00    +0.430 HD
ENDBRANCH   6   8
ENDBRANCH   5   6
ENDBRANCH   1   5
BRANCH   3  11
ATOM     11  C   LIG    1        0.859  -0.861   6.083  0.00  0.00    +0.200 C 
BRANCH  11  12
ATOM     12  O   LIG    1        0.127  -0.499   7.256  0.00  0.00    -0.330 OA
BRANCH  12  13
ATOM     13  C   LIG    1        0.735  -0.928   8.476  0.00  0.00    +0.100 C 
BRANCH  13  14
ATOM     14  C   LIG    1       -0.117  -0.495   9.641  0.00  0.00    +0.500 C 
ATOM     15  O   LIG    1        0.226  -0.763  10.780  0.00  0.00    -0.690 OA
ATOM     16  O   LIG    1       -1.150   0.123   9.445  0.00  0.00    -0.670 OA
ENDBRANCH  13  14
ENDBRANCH  12  13
ENDBRANCH  11  12
ENDBRANCH   3  11
TORSDOF 7
ENDMDL
MODEL      172
REMARK  Name = ZINC000031500048
REMARK                            x       y       z     vdW  Elec       q    Type
REMARK                         _______ _______ _______ _____ _____    ______ ____
ROOT
ATOM      1  C   LIG    1       -4.861  -1.039   0.034  0.00  0.00    +0.280 C 
ENDROOT
BRANCH   1   4
ATOM      2  C   LIG    1       -1.257  -0.754   0.010  0.00  0.00    +0.100 A 
ATOM      3  N   LIG    1       -2.468  -0.232   0.019  0.00  0.00    -0.390 NA
ATOM      4  C   LIG    1       -3.364  -1.213   0.024  0.00  0.00    -0.040 A 
ATOM      5  C   LIG    1       -2.702  -2.398   0.019  0.00  0.00    +0.190 A 
ATOM      6  N   LIG    1       -1.379  -2.117   0.004  0.00  0.00    -0.530 N 
ATOM      7  H   LIG    1       -0.653  -2.761  -0.003  0.00  0.00    +0.430 HD
BRANCH   2   9
ATOM      8  C   LIG    1       -0.018   1.503   0.010  0.00  0.00    +0.110 C 
ATOM      9  C   LIG    1        0.002  -0.004   0.002  0.00  0.00    +0.440 C 
ATOM     10  O   LIG    1        1.061  -0.596  -0.011  0.00  0.00    -0.460 OA
ENDBRANCH   2   9
ENDBRANCH   1   4
BRANCH   1  11
ATOM     11  O   LIG    1       -5.488  -2.318   0.154  0.00  0.00    -0.530 OA
ATOM     12  H   LIG    1       -5.251  -2.798   0.960  0.00  0.00    +0.370 HD
ENDBRANCH   1  11
BRANCH   1  13
ATOM     13  C   LIG    1       -5.264  -0.160   1.220  0.00  0.00    +0.160 C 
BRANCH  13  14
ATOM     14  O   LIG    1       -4.638   1.119   1.100  0.00  0.00    -0.530 OA
ATOM     15  H   LIG    1       -4.875   1.599   0.294  0.00  0.00    +0.380 HD
ENDBRANCH  13  14
BRANCH  13  16
ATOM     16  C   LIG    1       -6.784   0.016   1.230  0.00  0.00    +0.190 C 
BRANCH  16  17
ATOM     17  O   LIG    1       -7.411  -1.262   1.350  0.00  0.00    -0.530 OA
ATOM     18  H   LIG    1       -7.174  -1.742   2.155  0.00  0.00    +0.370 HD
ENDBRANCH  16  17
BRANCH  16  19
ATOM     19  C   LIG    1       -7.188   0.895   2.416  0.00  0.00    +0.160 C 
BRANCH  19  20
ATOM     20  O   LIG    1       -8.591   1.156   2.360  0.00  0.00    -0.570 OA
ATOM     21  H   LIG    1       -8.918   1.709   3.082  0.00  0.00    +0.380 HD
ENDBRANCH  19  20
ENDBRANCH  16  19
ENDBRANCH  13  16
ENDBRANCH   1  13
TORSDOF 9
ENDMDL
MODEL      173
REMARK  Name = ZINC000058482291
REMARK                            x       y       z     vdW  Elec       q    Type
REMARK                         _______ _______ _______ _____ _____    ______ ____
ROOT
ATOM      1  C   LIG    1       -2.551  -4.195   0.004  0.00  0.00    +0.380 C 
ATOM      2  O   LIG    1       -2.675  -4.666  -1.340  0.00  0.00    -0.370 OA
ATOM      3  C   LIG    1       -2.641  -6.089  -1.464  0.00  0.00    +0.200 C 
ATOM      4  C   LIG    1       -3.813  -6.696  -0.688  0.00  0.00    +0.180 C 
ATOM      5  C   LIG    1       -3.727  -6.256   0.777  0.00  0.00    +0.170 C 
ATOM      6  C   LIG    1       -3.719  -4.726   0.840  0.00  0.00    +0.130 C 
ENDROOT
BRANCH   1   8
ATOM      7  C   LIG    1       -1.413  -2.041   0.005  0.00  0.00    +0.520 C 
ATOM      8  N   LIG    1       -2.571  -2.730   0.012  0.00  0.00    -0.720 N 
ATOM      9  H   LIG    1       -3.417  -2.257   0.023  0.00  0.00    +0.400 HD
ATOM     10  O   LIG    1       -0.354  -2.632  -0.009  0.00  0.00    -0.520 OA
BRANCH   7  11
ATOM     11  C   LIG    1       -1.433  -0.534   0.013  0.00  0.00    +0.060 C 
BRANCH  11  13
ATOM     12  C   LIG    1       -0.019   1.526   0.010  0.00  0.00    +0.030 C 
ATOM     13  C   LIG    1        0.002  -0.004   0.002  0.00  0.00    +0.030 C 
ENDBRANCH  11  13
ENDBRANCH   7  11
ENDBRANCH   1   8
BRANCH   5  14
ATOM     14  O   LIG    1       -4.855  -6.760   1.494  0.00  0.00    -0.560 OA
ATOM     15  H   LIG    1       -4.866  -6.519   2.430  0.00  0.00    +0.390 HD
ENDBRANCH   5  14
BRANCH   4  16
ATOM     16  O   LIG    1       -5.045  -6.244  -1.252  0.00  0.00    -0.550 OA
ATOM     17  H   LIG    1       -5.831  -6.590  -0.808  0.00  0.00    +0.390 HD
ENDBRANCH   4  16
BRANCH   6  18
ATOM     18  O   LIG    1       -3.567  -4.305   2.197  0.00  0.00    -0.560 OA
ATOM     19  H   LIG    1       -3.554  -3.345   2.311  0.00  0.00    +0.390 HD
ENDBRANCH   6  18
BRANCH   3  20
ATOM     20  C   LIG    1       -2.753  -6.474  -2.941  0.00  0.00    +0.220 C 
BRANCH  20  21
ATOM     21  O   LIG    1       -1.601  -6.006  -3.644  0.00  0.00    -0.570 OA
ATOM     22  H   LIG    1       -1.604  -6.215  -4.588  0.00  0.00    +0.380 HD
ENDBRANCH  20  21
ENDBRANCH   3  20
TORSDOF 8
ENDMDL
MODEL      174
REMARK  Name = ZINC000031500058
REMARK                            x       y       z     vdW  Elec       q    Type
REMARK                         _______ _______ _______ _____ _____    ______ ____
ROOT
ATOM      1  C   LIG    1       -4.861  -1.039   0.034  0.00  0.00    +0.290 C 
ENDROOT
BRANCH   1   4
ATOM      2  C   LIG    1       -1.257  -0.754   0.010  0.00  0.00    +0.110 A 
ATOM      3  N   LIG    1       -2.468  -0.232   0.019  0.00  0.00    -0.410 NA
ATOM      4  C   LIG    1       -3.364  -1.213   0.024  0.00  0.00    -0.030 A 
ATOM      5  C   LIG    1       -2.702  -2.398   0.019  0.00  0.00    +0.200 A 
ATOM      6  N   LIG    1       -1.379  -2.117   0.004  0.00  0.00    -0.520 N 
ATOM      7  H   LIG    1       -0.653  -2.761  -0.003  0.00  0.00    +0.430 HD
BRANCH   2   9
ATOM      8  C   LIG    1       -0.018   1.503   0.010  0.00  0.00    +0.110 C 
ATOM      9  C   LIG    1        0.002  -0.004   0.002  0.00  0.00    +0.440 C 
ATOM     10  O   LIG    1        1.061  -0.596  -0.011  0.00  0.00    -0.460 OA
ENDBRANCH   2   9
ENDBRANCH   1   4
BRANCH   1  11
ATOM     11  O   LIG    1       -5.277  -0.417  -1.183  0.00  0.00    -0.540 OA
ATOM     12  H   LIG    1       -4.889   0.456  -1.331  0.00  0.00    +0.380 HD
ENDBRANCH   1  11
BRANCH   1  13
ATOM     13  C   LIG    1       -5.264  -0.160   1.220  0.00  0.00    +0.170 C 
BRANCH  13  14
ATOM     14  O   LIG    1       -4.849  -0.782   2.437  0.00  0.00    -0.540 OA
ATOM     15  H   LIG    1       -5.236  -1.655   2.585  0.00  0.00    +0.370 HD
ENDBRANCH  13  14
BRANCH  13  16
ATOM     16  C   LIG    1       -6.784   0.016   1.230  0.00  0.00    +0.200 C 
BRANCH  16  17
ATOM     17  O   LIG    1       -7.412  -1.267   1.233  0.00  0.00    -0.540 OA
ATOM     18  H   LIG    1       -7.184  -1.816   1.996  0.00  0.00    +0.370 HD
ENDBRANCH  16  17
BRANCH  16  19
ATOM     19  C   LIG    1       -7.199   0.790   2.483  0.00  0.00    +0.160 C 
BRANCH  19  20
ATOM     20  O   LIG    1       -8.603   1.056   2.436  0.00  0.00    -0.570 OA
ATOM     21  H   LIG    1       -8.936   1.545   3.200  0.00  0.00    +0.380 HD
ENDBRANCH  19  20
ENDBRANCH  16  19
ENDBRANCH  13  16
ENDBRANCH   1  13
TORSDOF 9
ENDMDL
MODEL      175
REMARK  Name = ZINC000001249939
REMARK                            x       y       z     vdW  Elec       q    Type
REMARK                         _______ _______ _______ _____ _____    ______ ____
ROOT
ATOM      1  O   LIG    1        0.002  -0.004   0.002  0.00  0.00    -0.540 OA
ATOM      2  C   LIG    1       -0.014   1.212   0.009  0.00  0.00    +0.710 C 
ATOM      3  N   LIG    1       -1.147   1.926   0.029  0.00  0.00    -0.740 N 
ATOM      4  H   LIG    1       -2.043   1.556   0.040  0.00  0.00    +0.440 HD
ATOM      5  C   LIG    1       -0.819   3.358   0.032  0.00  0.00    +0.460 C 
ATOM      6  N   LIG    1       -1.171   3.944   1.333  0.00  0.00    -0.680 N 
ATOM      7  H   LIG    1       -2.074   4.080   1.661  0.00  0.00    +0.450 HD
ATOM      8  C   LIG    1       -0.051   4.261   1.995  0.00  0.00    +0.580 C 
ATOM      9  N   LIG    1        1.074   3.974   1.327  0.00  0.00    -0.680 N 
ATOM     10  H   LIG    1        1.974   4.135   1.651  0.00  0.00    +0.440 HD
ATOM     11  S   LIG    1       -0.057   4.968   3.554  0.00  0.00    -0.610 S 
ATOM     12  C   LIG    1        0.731   3.380   0.009  0.00  0.00    +0.470 C 
ATOM     13  N   LIG    1        1.098   1.956   0.002  0.00  0.00    -0.620 N 
ENDROOT
BRANCH  13  14
ATOM     14  C   LIG    1        2.467   1.435   0.002  0.00  0.00    +0.340 C 
BRANCH  14  15
ATOM     15  C   LIG    1        2.941   1.245   1.444  0.00  0.00    +0.150 C 
BRANCH  15  16
ATOM     16  O   LIG    1        2.152   0.235   2.076  0.00  0.00    -0.560 OA
ATOM     17  H   LIG    1        2.397   0.062   2.995  0.00  0.00    +0.380 HD
ENDBRANCH  15  16
ENDBRANCH  14  15
ENDBRANCH  13  14
TORSDOF 3
ENDMDL
MODEL      176
REMARK  Name = ZINC000046799780
REMARK                            x       y       z     vdW  Elec       q    Type
REMARK                         _______ _______ _______ _____ _____    ______ ____
ROOT
ATOM      1  N   LIG    1        0.796  -0.399  -1.397  0.00  0.00    -1.000 NA
ATOM      2  C   LIG    1        0.054  -0.583  -2.652  0.00  0.00    +0.310 C 
ATOM      3  C   LIG    1        0.667   0.326  -3.723  0.00  0.00    +0.060 C 
ATOM      4  C   LIG    1        2.165   0.059  -3.819  0.00  0.00    +0.130 C 
ATOM      5  N   LIG    1        2.415  -1.323  -4.247  0.00  0.00    -0.720 N 
ATOM      6  H   LIG    1        2.155  -2.132  -3.780  0.00  0.00    +0.440 HD
ATOM      7  C   LIG    1        3.078  -1.244  -5.418  0.00  0.00    +0.700 C 
ATOM      8  N   LIG    1        3.288   0.021  -5.801  0.00  0.00    -0.680 N 
ATOM      9  H   LIG    1        3.749   0.273  -6.617  0.00  0.00    +0.430 HD
ATOM     10  O   LIG    1        3.443  -2.214  -6.054  0.00  0.00    -0.540 OA
ATOM     11  C   LIG    1        2.852   0.338  -2.486  0.00  0.00    +0.060 C 
ATOM     12  C   LIG    1        2.781   0.900  -4.913  0.00  0.00    +0.530 C 
ATOM     13  O   LIG    1        2.812   2.110  -4.980  0.00  0.00    -0.460 OA
ATOM     14  C   LIG    1        2.256  -0.566  -1.407  0.00  0.00    +0.310 C 
ENDROOT
BRANCH   1  16
ATOM     15  C   LIG    1       -0.022   1.810   0.012  0.00  0.00    -0.280 C 
ATOM     16  S   LIG    1        0.002  -0.004   0.002  0.00  0.00    +2.610 S 
ATOM     17  O   LIG    1       -1.309  -0.519  -0.182  0.00  0.00    -0.950 OA
ATOM     18  O   LIG    1        0.845  -0.497   1.035  0.00  0.00    -0.950 OA
ENDBRANCH   1  16
TORSDOF 1
ENDMDL
MODEL      177
REMARK  Name = ZINC000001249940
REMARK                            x       y       z     vdW  Elec       q    Type
REMARK                         _______ _______ _______ _____ _____    ______ ____
ROOT
ATOM      1  O   LIG    1        0.002  -0.004   0.002  0.00  0.00    -0.520 OA
ATOM      2  C   LIG    1       -0.014   1.212   0.009  0.00  0.00    +0.730 C 
ATOM      3  N   LIG    1       -1.165   1.966   0.030  0.00  0.00    -0.720 N 
ATOM      4  H   LIG    1       -2.069   1.684  -0.181  0.00  0.00    +0.430 HD
ATOM      5  C   LIG    1       -0.725   3.240   0.427  0.00  0.00    +0.370 C 
ATOM      6  N   LIG    1       -1.102   4.589   0.461  0.00  0.00    -0.660 N 
ATOM      7  H   LIG    1       -1.997   4.956   0.384  0.00  0.00    +0.440 HD
ATOM      8  C   LIG    1        0.074   5.275   0.627  0.00  0.00    +0.580 C 
ATOM      9  N   LIG    1        1.166   4.486   0.397  0.00  0.00    -0.690 N 
ATOM     10  H   LIG    1        2.083   4.661   0.661  0.00  0.00    +0.450 HD
ATOM     11  S   LIG    1        0.164   6.926   1.070  0.00  0.00    -0.540 S 
ATOM     12  C   LIG    1        0.646   3.336  -0.357  0.00  0.00    +0.420 C 
ATOM     13  N   LIG    1        1.108   1.992   0.002  0.00  0.00    -0.630 N 
ENDROOT
BRANCH  13  14
ATOM     14  C   LIG    1        2.481   1.575   0.299  0.00  0.00    +0.350 C 
BRANCH  14  15
ATOM     15  C   LIG    1        2.748   1.730   1.798  0.00  0.00    +0.160 C 
BRANCH  15  16
ATOM     16  O   LIG    1        1.913   0.828   2.526  0.00  0.00    -0.560 OA
ATOM     17  H   LIG    1        2.030   0.872   3.485  0.00  0.00    +0.380 HD
ENDBRANCH  15  16
ENDBRANCH  14  15
ENDBRANCH  13  14
TORSDOF 3
ENDMDL
MODEL      178
REMARK  Name = ZINC000108474907
REMARK                            x       y       z     vdW  Elec       q    Type
REMARK                         _______ _______ _______ _____ _____    ______ ____
ROOT
ATOM      1  C   LIG    1       -3.443  -0.606  -1.292  0.00  0.00    +0.160 C 
ATOM      2  C   LIG    1       -4.375   0.459  -0.707  0.00  0.00    +0.320 C 
ATOM      3  O   LIG    1       -5.731   0.035  -0.852  0.00  0.00    -0.390 OA
ATOM      4  C   LIG    1       -6.142  -0.154  -2.208  0.00  0.00    +0.150 C 
ATOM      5  C   LIG    1       -5.281  -1.243  -2.853  0.00  0.00    +0.130 C 
ATOM      6  C   LIG    1       -3.806  -0.841  -2.761  0.00  0.00    +0.200 C 
ENDROOT
BRANCH   5   7
ATOM      7  O   LIG    1       -5.651  -1.395  -4.225  0.00  0.00    -0.550 OA
ATOM      8  H   LIG    1       -6.576  -1.646  -4.357  0.00  0.00    +0.390 HD
ENDBRANCH   5   7
BRANCH   2   9
ATOM      9  O   LIG    1       -4.078   0.642   0.679  0.00  0.00    -0.530 OA
ATOM     10  H   LIG    1       -4.632   1.304   1.116  0.00  0.00    +0.390 HD
ENDBRANCH   2   9
BRANCH   6  11
ATOM     11  O   LIG    1       -2.991  -1.885  -3.297  0.00  0.00    -0.550 OA
ATOM     12  H   LIG    1       -3.173  -2.089  -4.225  0.00  0.00    +0.390 HD
ENDBRANCH   6  11
BRANCH   1  13
ATOM     13  O   LIG    1       -2.089  -0.158  -1.200  0.00  0.00    -0.350 OA
BRANCH  13  14
ATOM     14  C   LIG    1       -1.433  -0.534   0.013  0.00  0.00    +0.200 C 
BRANCH  14  15
ATOM     15  C   LIG    1        0.002  -0.004   0.002  0.00  0.00    +0.190 C 
BRANCH  15  16
ATOM     16  O   LIG    1       -0.017   1.425   0.010  0.00  0.00    -0.570 OA
ATOM     17  H   LIG    1        0.861   1.830   0.004  0.00  0.00    +0.380 HD
ENDBRANCH  15  16
ENDBRANCH  14  15
ENDBRANCH  13  14
ENDBRANCH   1  13
BRANCH   4  18
ATOM     18  C   LIG    1       -7.611  -0.578  -2.242  0.00  0.00    +0.210 C 
BRANCH  18  19
ATOM     19  O   LIG    1       -8.425   0.486  -1.745  0.00  0.00    -0.560 OA
ATOM     20  H   LIG    1       -9.372   0.287  -1.738  0.00  0.00    +0.390 HD
ENDBRANCH  18  19
ENDBRANCH   4  18
TORSDOF 9
ENDMDL
MODEL      179
REMARK  Name = ZINC000095495861
REMARK                            x       y       z     vdW  Elec       q    Type
REMARK                         _______ _______ _______ _____ _____    ______ ____
ROOT
ATOM      1  C   LIG    1       -3.443  -0.606  -1.292  0.00  0.00    +0.190 C 
ATOM      2  C   LIG    1       -3.482  -1.988  -1.950  0.00  0.00    +0.150 C 
ATOM      3  C   LIG    1       -4.940  -2.425  -2.115  0.00  0.00    +0.300 C 
ATOM      4  O   LIG    1       -5.641  -1.453  -2.892  0.00  0.00    -0.390 OA
ATOM      5  C   LIG    1       -5.679  -0.151  -2.303  0.00  0.00    +0.150 C 
ATOM      6  C   LIG    1       -4.251   0.378  -2.143  0.00  0.00    +0.170 C 
ENDROOT
BRANCH   3   7
ATOM      7  O   LIG    1       -4.986  -3.690  -2.779  0.00  0.00    -0.540 OA
ATOM      8  H   LIG    1       -5.881  -4.029  -2.918  0.00  0.00    +0.400 HD
ENDBRANCH   3   7
BRANCH   2   9
ATOM      9  O   LIG    1       -2.791  -2.929  -1.125  0.00  0.00    -0.550 OA
ATOM     10  H   LIG    1       -2.776  -3.828  -1.481  0.00  0.00    +0.390 HD
ENDBRANCH   2   9
BRANCH   6  11
ATOM     11  O   LIG    1       -4.284   1.655  -1.503  0.00  0.00    -0.540 OA
ATOM     12  H   LIG    1       -4.784   2.325  -1.989  0.00  0.00    +0.380 HD
ENDBRANCH   6  11
BRANCH   1  13
ATOM     13  O   LIG    1       -2.089  -0.158  -1.200  0.00  0.00    -0.350 OA
BRANCH  13  14
ATOM     14  C   LIG    1       -1.433  -0.534   0.013  0.00  0.00    +0.200 C 
BRANCH  14  15
ATOM     15  C   LIG    1        0.002  -0.004   0.002  0.00  0.00    +0.190 C 
BRANCH  15  16
ATOM     16  O   LIG    1       -0.017   1.425   0.010  0.00  0.00    -0.570 OA
ATOM     17  H   LIG    1        0.861   1.830   0.004  0.00  0.00    +0.380 HD
ENDBRANCH  15  16
ENDBRANCH  14  15
ENDBRANCH  13  14
ENDBRANCH   1  13
BRANCH   5  18
ATOM     18  C   LIG    1       -6.476   0.794  -3.204  0.00  0.00    +0.210 C 
BRANCH  18  19
ATOM     19  O   LIG    1       -7.838   0.364  -3.259  0.00  0.00    -0.560 OA
ATOM     20  H   LIG    1       -8.403   0.919  -3.814  0.00  0.00    +0.390 HD
ENDBRANCH  18  19
ENDBRANCH   5  18
TORSDOF 9
ENDMDL
MODEL      180
REMARK  Name = ZINC000095495860
REMARK                            x       y       z     vdW  Elec       q    Type
REMARK                         _______ _______ _______ _____ _____    ______ ____
ROOT
ATOM      1  C   LIG    1       -3.443  -0.606  -1.292  0.00  0.00    +0.200 C 
ATOM      2  C   LIG    1       -4.251   0.378  -2.143  0.00  0.00    +0.170 C 
ATOM      3  C   LIG    1       -5.679  -0.150  -2.302  0.00  0.00    +0.150 C 
ATOM      4  O   LIG    1       -5.642  -1.451  -2.893  0.00  0.00    -0.380 OA
ATOM      5  C   LIG    1       -4.940  -2.424  -2.117  0.00  0.00    +0.340 C 
ATOM      6  C   LIG    1       -3.482  -1.988  -1.950  0.00  0.00    +0.160 C 
ENDROOT
BRANCH   5   7
ATOM      7  O   LIG    1       -5.552  -2.541  -0.831  0.00  0.00    -0.570 OA
ATOM      8  H   LIG    1       -6.479  -2.814  -0.860  0.00  0.00    +0.390 HD
ENDBRANCH   5   7
BRANCH   2   9
ATOM      9  O   LIG    1       -4.281   1.654  -1.501  0.00  0.00    -0.540 OA
ATOM     10  H   LIG    1       -4.777   2.327  -1.986  0.00  0.00    +0.380 HD
ENDBRANCH   2   9
BRANCH   6  11
ATOM     11  O   LIG    1       -2.793  -2.932  -1.127  0.00  0.00    -0.540 OA
ATOM     12  H   LIG    1       -2.782  -3.831  -1.484  0.00  0.00    +0.380 HD
ENDBRANCH   6  11
BRANCH   1  13
ATOM     13  O   LIG    1       -2.089  -0.158  -1.200  0.00  0.00    -0.360 OA
BRANCH  13  14
ATOM     14  C   LIG    1       -1.433  -0.534   0.013  0.00  0.00    +0.190 C 
BRANCH  14  15
ATOM     15  C   LIG    1        0.002  -0.004   0.002  0.00  0.00    +0.190 C 
BRANCH  15  16
ATOM     16  O   LIG    1       -0.017   1.425   0.010  0.00  0.00    -0.570 OA
ATOM     17  H   LIG    1        0.861   1.830   0.004  0.00  0.00    +0.380 HD
ENDBRANCH  15  16
ENDBRANCH  14  15
ENDBRANCH  13  14
ENDBRANCH   1  13
BRANCH   3  18
ATOM     18  C   LIG    1       -6.477   0.796  -3.201  0.00  0.00    +0.210 C 
BRANCH  18  19
ATOM     19  O   LIG    1       -7.839   0.368  -3.255  0.00  0.00    -0.560 OA
ATOM     20  H   LIG    1       -8.405   0.923  -3.808  0.00  0.00    +0.380 HD
ENDBRANCH  18  19
ENDBRANCH   3  18
TORSDOF 9
ENDMDL
MODEL      181
REMARK  Name = ZINC000098185440
REMARK                            x       y       z     vdW  Elec       q    Type
REMARK                         _______ _______ _______ _____ _____    ______ ____
ROOT
ATOM      1  C   LIG    1       -3.443  -0.606  -1.292  0.00  0.00    +0.180 C 
ATOM      2  C   LIG    1       -4.375   0.459  -0.707  0.00  0.00    +0.350 C 
ATOM      3  O   LIG    1       -5.731   0.035  -0.852  0.00  0.00    -0.380 OA
ATOM      4  C   LIG    1       -6.142  -0.154  -2.208  0.00  0.00    +0.150 C 
ATOM      5  C   LIG    1       -5.281  -1.243  -2.853  0.00  0.00    +0.130 C 
ATOM      6  C   LIG    1       -3.806  -0.841  -2.761  0.00  0.00    +0.200 C 
ENDROOT
BRANCH   5   7
ATOM      7  O   LIG    1       -5.651  -1.395  -4.225  0.00  0.00    -0.550 OA
ATOM      8  H   LIG    1       -6.576  -1.646  -4.357  0.00  0.00    +0.380 HD
ENDBRANCH   5   7
BRANCH   2   9
ATOM      9  O   LIG    1       -4.184   1.693  -1.402  0.00  0.00    -0.560 OA
ATOM     10  H   LIG    1       -4.744   2.414  -1.083  0.00  0.00    +0.390 HD
ENDBRANCH   2   9
BRANCH   6  11
ATOM     11  O   LIG    1       -2.991  -1.885  -3.297  0.00  0.00    -0.550 OA
ATOM     12  H   LIG    1       -3.173  -2.089  -4.225  0.00  0.00    +0.390 HD
ENDBRANCH   6  11
BRANCH   1  13
ATOM     13  O   LIG    1       -2.089  -0.158  -1.200  0.00  0.00    -0.340 OA
BRANCH  13  14
ATOM     14  C   LIG    1       -1.433  -0.534   0.013  0.00  0.00    +0.190 C 
BRANCH  14  15
ATOM     15  C   LIG    1        0.002  -0.004   0.002  0.00  0.00    +0.200 C 
BRANCH  15  16
ATOM     16  O   LIG    1       -0.017   1.425   0.010  0.00  0.00    -0.570 OA
ATOM     17  H   LIG    1        0.861   1.830   0.004  0.00  0.00    +0.380 HD
ENDBRANCH  15  16
ENDBRANCH  14  15
ENDBRANCH  13  14
ENDBRANCH   1  13
BRANCH   4  18
ATOM     18  C   LIG    1       -7.611  -0.578  -2.242  0.00  0.00    +0.200 C 
BRANCH  18  19
ATOM     19  O   LIG    1       -8.425   0.486  -1.745  0.00  0.00    -0.560 OA
ATOM     20  H   LIG    1       -9.372   0.287  -1.738  0.00  0.00    +0.380 HD
ENDBRANCH  18  19
ENDBRANCH   4  18
TORSDOF 9
ENDMDL
MODEL      182
REMARK  Name = ZINC000003179026
REMARK                            x       y       z     vdW  Elec       q    Type
REMARK                         _______ _______ _______ _____ _____    ______ ____
ROOT
ATOM      1  O   LIG    1        2.379   1.066  -0.015  0.00  0.00    -0.340 OA
ENDROOT
BRANCH   1   2
ATOM      2  C   LIG    1        1.280   1.980   0.001  0.00  0.00    +0.200 C 
BRANCH   2   4
ATOM      3  O   LIG    1        0.002  -0.004   0.002  0.00  0.00    -0.510 OA
ATOM      4  C   LIG    1       -0.014   1.209   0.009  0.00  0.00    +0.510 C 
ATOM      5  N   LIG    1       -1.191   1.867   0.018  0.00  0.00    -0.730 N 
ATOM      6  H   LIG    1       -1.204   2.837   0.023  0.00  0.00    +0.400 HD
BRANCH   5   7
ATOM      7  C   LIG    1       -2.449   1.117   0.020  0.00  0.00    +0.280 C 
BRANCH   7   8
ATOM      8  C   LIG    1       -3.626   2.095   0.031  0.00  0.00    +0.180 C 
BRANCH   8   9
ATOM      9  O   LIG    1       -3.633   2.844  -1.186  0.00  0.00    -0.570 OA
ATOM     10  H   LIG    1       -4.354   3.486  -1.249  0.00  0.00    +0.380 HD
ENDBRANCH   8   9
ENDBRANCH   7   8
ENDBRANCH   5   7
ENDBRANCH   2   4
ENDBRANCH   1   2
BRANCH   1  11
ATOM     11  C   LIG    1        3.660   1.698  -0.024  0.00  0.00    +0.200 C 
BRANCH  11  12
ATOM     12  C   LIG    1        4.739   0.646  -0.040  0.00  0.00    +0.510 C 
ATOM     13  N   LIG    1        6.037   1.011  -0.050  0.00  0.00    -0.730 N 
ATOM     14  H   LIG    1        6.276   1.951  -0.047  0.00  0.00    +0.400 HD
ATOM     15  O   LIG    1        4.440  -0.529  -0.043  0.00  0.00    -0.510 OA
BRANCH  13  16
ATOM     16  C   LIG    1        7.085  -0.011  -0.066  0.00  0.00    +0.280 C 
BRANCH  16  17
ATOM     17  C   LIG    1        8.458   0.665  -0.075  0.00  0.00    +0.180 C 
BRANCH  17  18
ATOM     18  O   LIG    1        8.645   1.380   1.148  0.00  0.00    -0.570 OA
ATOM     19  H   LIG    1        9.496   1.835   1.212  0.00  0.00    +0.380 HD
ENDBRANCH  17  18
ENDBRANCH  16  17
ENDBRANCH  13  16
ENDBRANCH  11  12
ENDBRANCH   1  11
TORSDOF 10
ENDMDL
MODEL      183
REMARK  Name = ZINC000000540745
REMARK                            x       y       z     vdW  Elec       q    Type
REMARK                         _______ _______ _______ _____ _____    ______ ____
ROOT
ATOM      1  O   LIG    1        0.002  -0.004   0.002  0.00  0.00    -0.540 OA
ATOM      2  C   LIG    1       -0.014   1.212   0.009  0.00  0.00    +0.590 C 
ATOM      3  N   LIG    1        1.143   1.901   0.001  0.00  0.00    -0.700 N 
ATOM      4  H   LIG    1        1.130   2.871   0.007  0.00  0.00    +0.400 HD
ENDROOT
BRANCH   2   5
ATOM      5  C   LIG    1       -1.302   1.932   0.019  0.00  0.00    -0.280 A 
ATOM      6  C   LIG    1       -2.487   1.233   0.026  0.00  0.00    +0.420 A 
ATOM      7  O   LIG    1       -3.658   1.879   0.035  0.00  0.00    -0.250 OA
ATOM      8  C   LIG    1       -3.713   3.221   0.037  0.00  0.00    +0.490 A 
ATOM      9  C   LIG    1       -2.530   3.985   0.030  0.00  0.00    -0.080 A 
ATOM     10  O   LIG    1       -4.795   3.782   0.045  0.00  0.00    -0.460 OA
ATOM     11  C   LIG    1       -1.327   3.350   0.027  0.00  0.00    +0.160 A 
ENDBRANCH   2   5
BRANCH   3  12
ATOM     12  C   LIG    1        2.422   1.186  -0.015  0.00  0.00    +0.190 C 
BRANCH  12  13
ATOM     13  C   LIG    1        3.571   2.196  -0.020  0.00  0.00    +0.200 C 
BRANCH  13  14
ATOM     14  O   LIG    1        4.818   1.499  -0.036  0.00  0.00    -0.570 OA
ATOM     15  H   LIG    1        5.593   2.078  -0.040  0.00  0.00    +0.390 HD
ENDBRANCH  13  14
ENDBRANCH  12  13
BRANCH  12  16
ATOM     16  C   LIG    1        2.503   0.315  -1.270  0.00  0.00    +0.210 C 
BRANCH  16  17
ATOM     17  O   LIG    1        2.405   1.141  -2.431  0.00  0.00    -0.570 OA
ATOM     18  H   LIG    1        2.449   0.654  -3.265  0.00  0.00    +0.380 HD
ENDBRANCH  16  17
ENDBRANCH  12  16
BRANCH  12  19
ATOM     19  C   LIG    1        2.527   0.301   1.229  0.00  0.00    +0.210 C 
BRANCH  19  20
ATOM     20  O   LIG    1        2.335   1.099   2.399  0.00  0.00    -0.570 OA
ATOM     21  H   LIG    1        2.388   0.602   3.227  0.00  0.00    +0.380 HD
ENDBRANCH  19  20
ENDBRANCH  12  19
ENDBRANCH   3  12
TORSDOF 8
ENDMDL
MODEL      184
REMARK  Name = ZINC000001082398
REMARK                            x       y       z     vdW  Elec       q    Type
REMARK                         _______ _______ _______ _____ _____    ______ ____
ROOT
ATOM      1  C   LIG    1       -0.018   1.503   0.010  0.00  0.00    +0.150 C 
ATOM      2  C   LIG    1        0.002  -0.004   0.002  0.00  0.00    +0.080 C 
ATOM      3  C   LIG    1       -1.089  -0.690   0.004  0.00  0.00    -0.720 C 
ATOM      4  C   LIG    1       -0.959  -2.198  -0.006  0.00  0.00    -0.210 C 
ATOM      5  S   LIG    1        0.782  -2.456  -0.531  0.00  0.00    +2.400 S 
ATOM      6  O   LIG    1        0.850  -2.569  -1.946  0.00  0.00    -0.910 OA
ATOM      7  O   LIG    1        1.398  -3.434   0.296  0.00  0.00    -0.920 OA
ATOM      8  C   LIG    1        1.304  -0.774  -0.015  0.00  0.00    -0.250 C 
ENDROOT
BRANCH   3   9
ATOM      9  S   LIG    1       -2.667   0.094   0.016  0.00  0.00    +2.710 S 
ATOM     10  O   LIG    1       -3.505  -0.676  -0.834  0.00  0.00    -0.950 OA
ATOM     11  O   LIG    1       -2.426   1.481  -0.179  0.00  0.00    -0.950 OA
BRANCH   9  12
ATOM     12  N   LIG    1       -3.280  -0.063   1.546  0.00  0.00    -1.250 NA
ATOM     13  H   LIG    1       -3.043  -0.832   2.087  0.00  0.00    +0.420 HD
ATOM     14  H   LIG    1       -3.877   0.615   1.901  0.00  0.00    +0.420 HD
ENDBRANCH   9  12
ENDBRANCH   3   9
TORSDOF 2
ENDMDL
MODEL      185
REMARK  Name = ZINC000009703621
REMARK                            x       y       z     vdW  Elec       q    Type
REMARK                         _______ _______ _______ _____ _____    ______ ____
ROOT
ATOM      1  O   LIG    1        0.002  -0.004   0.002  0.00  0.00    -0.530 OA
ATOM      2  C   LIG    1       -0.014   1.211   0.009  0.00  0.00    +0.600 C 
ATOM      3  N   LIG    1        1.143   1.901   0.001  0.00  0.00    -0.680 N 
ATOM      4  H   LIG    1        1.130   2.871   0.007  0.00  0.00    +0.410 HD
ENDROOT
BRANCH   2   5
ATOM      5  C   LIG    1       -1.305   1.933   0.019  0.00  0.00    +0.030 A 
ATOM      6  N   LIG    1       -1.320   3.247   0.021  0.00  0.00    -0.180 NA
ATOM      7  N   LIG    1       -2.414   3.920   0.029  0.00  0.00    -0.440 N 
ATOM      8  H   LIG    1       -2.372   4.889   0.030  0.00  0.00    +0.440 HD
ATOM      9  C   LIG    1       -3.618   3.317   0.037  0.00  0.00    +0.480 A 
ATOM     10  C   LIG    1       -3.690   1.906   0.036  0.00  0.00    -0.010 A 
ATOM     11  O   LIG    1       -4.638   3.984   0.044  0.00  0.00    -0.520 OA
ATOM     12  C   LIG    1       -2.520   1.206   0.021  0.00  0.00    +0.140 A 
ENDBRANCH   2   5
BRANCH   3  13
ATOM     13  C   LIG    1        2.422   1.186  -0.015  0.00  0.00    +0.190 C 
BRANCH  13  14
ATOM     14  C   LIG    1        3.571   2.196  -0.020  0.00  0.00    +0.200 C 
BRANCH  14  15
ATOM     15  O   LIG    1        4.818   1.498  -0.036  0.00  0.00    -0.570 OA
ATOM     16  H   LIG    1        5.593   2.077  -0.040  0.00  0.00    +0.390 HD
ENDBRANCH  14  15
ENDBRANCH  13  14
BRANCH  13  17
ATOM     17  C   LIG    1        2.503   0.314  -1.270  0.00  0.00    +0.210 C 
BRANCH  17  18
ATOM     18  O   LIG    1        2.405   1.141  -2.431  0.00  0.00    -0.570 OA
ATOM     19  H   LIG    1        2.449   0.654  -3.265  0.00  0.00    +0.380 HD
ENDBRANCH  17  18
ENDBRANCH  13  17
BRANCH  13  20
ATOM     20  C   LIG    1        2.527   0.301   1.229  0.00  0.00    +0.210 C 
BRANCH  20  21
ATOM     21  O   LIG    1        2.335   1.098   2.399  0.00  0.00    -0.570 OA
ATOM     22  H   LIG    1        2.388   0.602   3.227  0.00  0.00    +0.380 HD
ENDBRANCH  20  21
ENDBRANCH  13  20
ENDBRANCH   3  13
TORSDOF 8
ENDMDL
MODEL      186
REMARK  Name = ZINC000008386858
REMARK                            x       y       z     vdW  Elec       q    Type
REMARK                         _______ _______ _______ _____ _____    ______ ____
ROOT
ATOM      1  O   LIG    1        0.002  -0.004   0.002  0.00  0.00    -0.480 OA
ATOM      2  C   LIG    1       -0.014   1.212   0.009  0.00  0.00    +0.710 C 
ATOM      3  N   LIG    1       -1.147   1.926   0.029  0.00  0.00    -0.710 N 
ATOM      4  H   LIG    1       -2.043   1.556   0.040  0.00  0.00    +0.460 HD
ATOM      5  C   LIG    1       -0.819   3.358   0.032  0.00  0.00    +0.530 C 
ATOM      6  C   LIG    1        0.731   3.380   0.009  0.00  0.00    +0.530 C 
ATOM      7  N   LIG    1        1.089   3.986   1.299  0.00  0.00    -0.700 N 
ATOM      8  H   LIG    1        1.994   4.149   1.610  0.00  0.00    +0.460 HD
ATOM      9  C   LIG    1       -0.027   4.278   1.977  0.00  0.00    +0.710 C 
ATOM     10  O   LIG    1       -0.018   4.790   3.080  0.00  0.00    -0.480 OA
ATOM     11  N   LIG    1       -1.171   3.944   1.333  0.00  0.00    -0.510 N 
ATOM     12  N   LIG    1        1.098   1.956   0.002  0.00  0.00    -0.500 N 
ENDROOT
BRANCH  11  13
ATOM     13  N   LIG    1       -2.467   4.144   1.826  0.00  0.00    +0.210 N 
ATOM     14  O   LIG    1       -3.430   3.805   1.162  0.00  0.00    -0.130 OA
ATOM     15  O   LIG    1       -2.630   4.656   2.919  0.00  0.00    -0.090 OA
ENDBRANCH  11  13
BRANCH  12  16
ATOM     16  N   LIG    1        2.407   1.458  -0.018  0.00  0.00    +0.210 N 
ATOM     17  O   LIG    1        2.600   0.255  -0.022  0.00  0.00    -0.080 OA
ATOM     18  O   LIG    1        3.352   2.226  -0.030  0.00  0.00    -0.130 OA
ENDBRANCH  12  16
TORSDOF 2
ENDMDL
MODEL      187
REMARK  Name = ZINC000004899450
REMARK                            x       y       z     vdW  Elec       q    Type
REMARK                         _______ _______ _______ _____ _____    ______ ____
ROOT
ATOM      1  N   PRO A  1       -6.117   1.136   0.037  0.00  0.00    -0.680 N 
ATOM      2  H   PRO A  1       -6.130   2.106   0.043  0.00  0.00    +0.420 HD
ATOM      3  C   PRO A  1       -7.275   0.446   0.039  0.00  0.00    +0.500 C 
ATOM      4  O   PRO A  1       -7.259  -0.766   0.032  0.00  0.00    -0.530 OA
ENDROOT
BRANCH   3   5
ATOM      5  CA  PRO A  1       -8.591   1.182   0.049  0.00  0.00    +0.170 C 
ATOM      6  CB  PRO A  1       -8.707   2.031   1.333  0.00  0.00    +0.100 C 
ATOM      7  CG  PRO A  1      -10.203   1.880   1.717  0.00  0.00    +0.080 C 
ATOM      8  CD  PRO A  1      -10.486   0.415   1.301  0.00  0.00    +0.270 C 
ATOM      9  N   PRO A  1       -9.705   0.217   0.057  0.00  0.00    -0.500 N 
ATOM     10  H1  PRO A  1       -9.338  -0.723   0.033  0.00  0.00    +0.440 HD
ATOM     11  H2  PRO A  1      -10.298   0.371  -0.745  0.00  0.00    +0.430 HD
ENDBRANCH   3   5
BRANCH   1  12
ATOM     12  CA  PRO A  1       -4.839   0.421   0.027  0.00  0.00    +0.310 C 
BRANCH  12  15
ATOM     13  N   PRO A  1       -2.430   0.984   0.019  0.00  0.00    -0.680 N 
ATOM     14  H   PRO A  1       -2.240   0.033   0.013  0.00  0.00    +0.410 HD
ATOM     15  C   PRO A  1       -3.707   1.416   0.027  0.00  0.00    +0.490 C 
ATOM     16  O   PRO A  1       -3.945   2.605   0.035  0.00  0.00    -0.560 OA
BRANCH  13  17
ATOM     17  CA  PRO A  1       -1.330   1.951   0.019  0.00  0.00    +0.190 C 
BRANCH  17  19
ATOM     18  O   PRO A  1        0.002  -0.004   0.002  0.00  0.00    -0.690 OA
ATOM     19  C   PRO A  1       -0.015   1.215   0.009  0.00  0.00    +0.490 C 
ATOM     20  OXT PRO A  1        1.033   1.839   0.002  0.00  0.00    -0.680 OA
ENDBRANCH  17  19
ENDBRANCH  13  17
ENDBRANCH  12  15
ENDBRANCH   1  12
TORSDOF 5
ENDMDL
MODEL      188
REMARK  Name = ZINC000013547768
REMARK                            x       y       z     vdW  Elec       q    Type
REMARK                         _______ _______ _______ _____ _____    ______ ____
ROOT
ATOM      1  C1* LIG    1        0.085  -4.133  -0.021  0.00  0.00    +0.430 C 
ATOM      2  O4* LIG    1        0.908  -4.610   1.056  0.00  0.00    -0.350 OA
ATOM      3  C4* LIG    1        1.557  -5.813   0.590  0.00  0.00    +0.150 C 
ATOM      4  C3* LIG    1        1.928  -5.478  -0.877  0.00  0.00    +0.140 C 
ATOM      5  C2* LIG    1        0.710  -4.636  -1.337  0.00  0.00    +0.170 C 
ENDROOT
BRANCH   1   9
ATOM      6  C   LIG    1        0.002  -0.004   0.002  0.00  0.00    +0.630 A 
ATOM      7  N   LIG    1       -1.139  -0.678   0.004  0.00  0.00    -0.640 NA
ATOM      8  C   LIG    1       -1.126  -2.014  -0.004  0.00  0.00    +0.660 A 
ATOM      9  N   LIG    1        0.054  -2.668  -0.013  0.00  0.00    -0.550 N 
ATOM     10  C   LIG    1        1.207  -1.963  -0.014  0.00  0.00    +0.680 A 
ATOM     11  O   LIG    1       -2.173  -2.638  -0.002  0.00  0.00    -0.520 OA
ATOM     12  N   LIG    1        1.174  -0.654  -0.013  0.00  0.00    -0.600 NA
BRANCH   6  13
ATOM     13  N   LIG    1       -0.017   1.368   0.010  0.00  0.00    -0.790 N 
ATOM     14  H   LIG    1       -0.863   1.842   0.016  0.00  0.00    +0.420 HD
ATOM     15  H   LIG    1        0.817   1.865   0.004  0.00  0.00    +0.420 HD
ENDBRANCH   6  13
ENDBRANCH   1   9
BRANCH   4  16
ATOM     16  O3* LIG    1        3.133  -4.711  -0.936  0.00  0.00    -0.550 OA
ATOM     17  H3* LIG    1        3.906  -5.166  -0.575  0.00  0.00    +0.390 HD
ENDBRANCH   4  16
BRANCH   5  18
ATOM     18  O2* LIG    1       -0.217  -5.449  -2.059  0.00  0.00    -0.540 OA
ATOM     19  H2* LIG    1        0.147  -5.838  -2.866  0.00  0.00    +0.390 HD
ENDBRANCH   5  18
BRANCH   3  20
ATOM     20  C5* LIG    1        2.812  -6.103   1.414  0.00  0.00    +0.210 C 
BRANCH  20  21
ATOM     21  O5* LIG    1        2.438  -6.422   2.756  0.00  0.00    -0.560 OA
ATOM     22  H5* LIG    1        3.185  -6.617   3.337  0.00  0.00    +0.390 HD
ENDBRANCH  20  21
ENDBRANCH   3  20
TORSDOF 6
ENDMDL
MODEL      189
REMARK  Name = ZINC000008737478
REMARK                            x       y       z     vdW  Elec       q    Type
REMARK                         _______ _______ _______ _____ _____    ______ ____
ROOT
ATOM      1  N   LIG    1       -0.569  -3.965   1.006  0.00  0.00    -0.550 N 
ATOM      2  H   LIG    1       -0.150  -4.440   0.272  0.00  0.00    +0.400 HD
ATOM      3  C   LIG    1       -1.134  -4.652   2.019  0.00  0.00    +0.530 C 
ATOM      4  O   LIG    1       -1.659  -4.057   2.937  0.00  0.00    -0.490 OA
ENDROOT
BRANCH   1   9
ATOM      5  C   LIG    1       -0.018   1.465   0.010  0.00  0.00    +0.190 C 
ATOM      6  N   LIG    1        0.002  -0.004   0.002  0.00  0.00    -0.550 NA
ATOM      7  C   LIG    1       -1.360  -0.549  -0.079  0.00  0.00    +0.200 C 
ATOM      8  C   LIG    1       -1.292  -2.075  -0.165  0.00  0.00    +0.190 C 
ATOM      9  N   LIG    1       -0.588  -2.599   1.014  0.00  0.00    -0.300 NA
ATOM     10  C   LIG    1        0.774  -2.054   1.095  0.00  0.00    +0.190 C 
ATOM     11  C   LIG    1        0.706  -0.528   1.181  0.00  0.00    +0.200 C 
ENDBRANCH   1   9
BRANCH   3  12
ATOM     12  C   LIG    1       -1.114  -6.146   2.011  0.00  0.00    +0.520 C 
ATOM     13  N   LIG    1       -1.679  -6.834   3.023  0.00  0.00    -0.670 N 
ATOM     14  H   LIG    1       -2.098  -6.358   3.757  0.00  0.00    +0.420 HD
ATOM     15  O   LIG    1       -0.589  -6.741   1.092  0.00  0.00    -0.520 OA
BRANCH  13  16
ATOM     16  C   LIG    1       -1.659  -8.298   3.015  0.00  0.00    +0.210 C 
ATOM     17  C   LIG    1       -1.317  -9.008   4.327  0.00  0.00    +0.020 C 
ATOM     18  C   LIG    1       -2.753  -9.024   3.800  0.00  0.00    +0.030 C 
ENDBRANCH  13  16
ENDBRANCH   3  12
TORSDOF 3
ENDMDL
MODEL      190
REMARK  Name = ZINC000033614936
REMARK                            x       y       z     vdW  Elec       q    Type
REMARK                         _______ _______ _______ _____ _____    ______ ____
ROOT
ATOM      1  C   LIG    1       -3.014  -2.361   0.018  0.00  0.00    +0.200 C 
ENDROOT
BRANCH   1   4
ATOM      2  N   LIG    1       -1.372  -0.511   0.012  0.00  0.00    -0.720 N 
ATOM      3  H   LIG    1       -2.118   0.109   0.023  0.00  0.00    +0.400 HD
ATOM      4  C   LIG    1       -1.601  -1.839   0.007  0.00  0.00    +0.490 C 
ATOM      5  O   LIG    1       -0.668  -2.615  -0.006  0.00  0.00    -0.520 OA
BRANCH   2   7
ATOM      6  C   LIG    1       -0.019   1.526   0.010  0.00  0.00    +0.030 C 
ATOM      7  C   LIG    1        0.002  -0.004   0.002  0.00  0.00    +0.250 C 
ENDBRANCH   2   7
ENDBRANCH   1   4
BRANCH   1   8
ATOM      8  O   LIG    1       -2.998  -3.784  -0.107  0.00  0.00    -0.520 OA
ATOM      9  H   LIG    1       -2.522  -4.236   0.603  0.00  0.00    +0.390 HD
ENDBRANCH   1   8
BRANCH   1  10
ATOM     10  C   LIG    1       -3.691  -1.973   1.334  0.00  0.00    +0.200 C 
BRANCH  10  11
ATOM     11  C   LIG    1       -5.061  -2.597   1.398  0.00  0.00    +0.490 C 
ATOM     12  N   LIG    1       -6.013  -2.226   0.519  0.00  0.00    -0.720 N 
ATOM     13  H   LIG    1       -5.816  -1.556  -0.155  0.00  0.00    +0.400 HD
ATOM     14  O   LIG    1       -5.307  -3.435   2.240  0.00  0.00    -0.520 OA
BRANCH  12  15
ATOM     15  C   LIG    1       -7.345  -2.833   0.581  0.00  0.00    +0.250 C 
ATOM     16  C   LIG    1       -8.227  -2.240  -0.519  0.00  0.00    +0.030 C 
ENDBRANCH  12  15
ENDBRANCH  10  11
BRANCH  10  17
ATOM     17  O   LIG    1       -2.903  -2.440   2.431  0.00  0.00    -0.520 OA
ATOM     18  H   LIG    1       -2.779  -3.398   2.446  0.00  0.00    +0.390 HD
ENDBRANCH  10  17
ENDBRANCH   1  10
TORSDOF 7
ENDMDL
MODEL      191
REMARK  Name = ZINC000033614934
REMARK                            x       y       z     vdW  Elec       q    Type
REMARK                         _______ _______ _______ _____ _____    ______ ____
ROOT
ATOM      1  C   LIG    1       -3.014  -2.361   0.018  0.00  0.00    +0.200 C 
ENDROOT
BRANCH   1   4
ATOM      2  N   LIG    1       -1.372  -0.511   0.012  0.00  0.00    -0.710 N 
ATOM      3  H   LIG    1       -2.118   0.109   0.023  0.00  0.00    +0.400 HD
ATOM      4  C   LIG    1       -1.601  -1.839   0.007  0.00  0.00    +0.490 C 
ATOM      5  O   LIG    1       -0.668  -2.615  -0.006  0.00  0.00    -0.530 OA
BRANCH   2   7
ATOM      6  C   LIG    1       -0.019   1.526   0.010  0.00  0.00    +0.030 C 
ATOM      7  C   LIG    1        0.002  -0.004   0.002  0.00  0.00    +0.250 C 
ENDBRANCH   2   7
ENDBRANCH   1   4
BRANCH   1   8
ATOM      8  O   LIG    1       -2.996  -3.786   0.128  0.00  0.00    -0.520 OA
ATOM      9  H   LIG    1       -2.533  -4.230  -0.596  0.00  0.00    +0.390 HD
ENDBRANCH   1   8
BRANCH   1  10
ATOM     10  C   LIG    1       -3.716  -1.959  -1.280  0.00  0.00    +0.200 C 
BRANCH  10  11
ATOM     11  C   LIG    1       -5.130  -2.480  -1.270  0.00  0.00    +0.490 C 
ATOM     12  N   LIG    1       -5.358  -3.808  -1.275  0.00  0.00    -0.710 N 
ATOM     13  H   LIG    1       -4.613  -4.429  -1.285  0.00  0.00    +0.400 HD
ATOM     14  O   LIG    1       -6.062  -1.705  -1.257  0.00  0.00    -0.530 OA
BRANCH  12  15
ATOM     15  C   LIG    1       -6.733  -4.316  -1.264  0.00  0.00    +0.250 C 
ATOM     16  C   LIG    1       -6.712  -5.845  -1.273  0.00  0.00    +0.030 C 
ENDBRANCH  12  15
ENDBRANCH  10  11
BRANCH  10  17
ATOM     17  O   LIG    1       -3.735  -0.534  -1.390  0.00  0.00    -0.520 OA
ATOM     18  H   LIG    1       -4.198  -0.090  -0.666  0.00  0.00    +0.390 HD
ENDBRANCH  10  17
ENDBRANCH   1  10
TORSDOF 7
ENDMDL
MODEL      192
REMARK  Name = ZINC000072242770
REMARK                            x       y       z     vdW  Elec       q    Type
REMARK                         _______ _______ _______ _____ _____    ______ ____
ROOT
ATOM      1  C   LIG    1        0.047  -1.812   5.055  0.00  0.00    -0.270 A 
ATOM      2  C   LIG    1       -1.071  -2.050   5.773  0.00  0.00    +0.400 A 
ATOM      3  N   LIG    1       -1.050  -1.893   7.133  0.00  0.00    -0.630 N 
ATOM      4  H   LIG    1       -1.853  -2.064   7.649  0.00  0.00    +0.440 HD
ATOM      5  C   LIG    1        0.075  -1.503   7.760  0.00  0.00    +0.700 A 
ATOM      6  N   LIG    1        1.203  -1.260   7.068  0.00  0.00    -0.660 N 
ATOM      7  H   LIG    1        2.006  -0.979   7.536  0.00  0.00    +0.440 HD
ATOM      8  O   LIG    1        0.071  -1.370   8.968  0.00  0.00    -0.530 OA
ATOM      9  C   LIG    1        1.225  -1.409   5.728  0.00  0.00    +0.550 A 
ATOM     10  O   LIG    1        2.246  -1.189   5.102  0.00  0.00    -0.490 OA
ENDROOT
BRANCH   1  11
ATOM     11  C   LIG    1        0.043  -1.979   3.557  0.00  0.00    +0.210 C 
BRANCH  11  12
ATOM     12  S   LIG    1        0.026  -0.351   2.768  0.00  0.00    +0.050 S 
BRANCH  12  18
ATOM     13  C   LIG    1       -0.018   1.461   0.010  0.00  0.00    +0.390 C 
ATOM     14  N   LIG    1        0.002  -0.004   0.002  0.00  0.00    -0.360 N 
ATOM     15  N   LIG    1        0.009  -0.852  -1.120  0.00  0.00    -0.080 NA
ATOM     16  N   LIG    1        0.027  -2.061  -0.674  0.00  0.00    -0.030 NA
ATOM     17  N   LIG    1        0.032  -2.063   0.610  0.00  0.00    -0.330 NA
ATOM     18  C   LIG    1        0.024  -0.832   1.073  0.00  0.00    +0.210 A 
ENDBRANCH  12  18
ENDBRANCH  11  12
ENDBRANCH   1  11
TORSDOF 3
ENDMDL
MODEL      193
REMARK  Name = ZINC000102305290
REMARK                            x       y       z     vdW  Elec       q    Type
REMARK                         _______ _______ _______ _____ _____    ______ ____
ROOT
ATOM      1  C   LIG    1       -1.150  -2.828  -2.732  0.00  0.00    +0.320 C 
ATOM      2  N   LIG    1       -0.922  -2.758  -1.286  0.00  0.00    -0.580 N 
ATOM      3  C   LIG    1       -1.708  -3.379  -0.398  0.00  0.00    +0.530 C 
ATOM      4  C   LIG    1       -1.196  -3.102   0.999  0.00  0.00    +0.050 C 
ATOM      5  C   LIG    1        0.035  -2.204   0.761  0.00  0.00    +0.190 C 
ATOM      6  O   LIG    1       -2.676  -4.056  -0.669  0.00  0.00    -0.480 OA
ATOM      7  C   LIG    1        0.093  -2.072  -0.745  0.00  0.00    +0.530 C 
ATOM      8  O   LIG    1        0.922  -1.440  -1.364  0.00  0.00    -0.460 OA
ENDROOT
BRANCH   5   9
ATOM      9  N   LIG    1        1.253  -2.850   1.269  0.00  0.00    -0.510 NA
ATOM     10  C   LIG    1        1.453  -4.163   0.642  0.00  0.00    +0.180 C 
ATOM     11  C   LIG    1        2.769  -4.767   1.137  0.00  0.00    +0.190 C 
ATOM     12  N   LIG    1        2.730  -4.886   2.601  0.00  0.00    -0.550 NA
ATOM     13  C   LIG    1        2.530  -3.572   3.228  0.00  0.00    +0.190 C 
ATOM     14  C   LIG    1        3.948  -5.532   3.109  0.00  0.00    +0.190 C 
ATOM     15  C   LIG    1        1.214  -2.969   2.733  0.00  0.00    +0.190 C 
ENDBRANCH   5   9
TORSDOF 1
ENDMDL
MODEL      194
REMARK  Name = ZINC000000202098
REMARK                            x       y       z     vdW  Elec       q    Type
REMARK                         _______ _______ _______ _____ _____    ______ ____
ROOT
ATOM      1  C   LIG    1       -3.014  -2.361   0.018  0.00  0.00    +0.230 C 
ATOM      2  N   LIG    1       -3.024  -3.797  -0.202  0.00  0.00    -0.430 NA
ATOM      3  C   LIG    1       -2.588  -4.478   0.838  0.00  0.00    +0.490 C 
ATOM      4  N   LIG    1       -2.168  -3.846   1.977  0.00  0.00    -0.160 NA
ATOM      5  N   LIG    1       -2.643  -2.733   2.343  0.00  0.00    -0.080 NA
ATOM      6  N   LIG    1       -3.883  -1.477  -0.735  0.00  0.00    -0.600 N 
ATOM      7  C   LIG    1       -4.286  -1.631  -2.135  0.00  0.00    +0.350 C 
ATOM      8  C   LIG    1       -4.261  -0.498   0.121  0.00  0.00    +0.700 C 
ATOM      9  O   LIG    1       -4.798   0.533  -0.232  0.00  0.00    -0.530 OA
ATOM     10  N   LIG    1       -3.962  -0.788   1.418  0.00  0.00    -0.610 N 
ATOM     11  C   LIG    1       -3.960   0.139   2.553  0.00  0.00    +0.360 C 
ATOM     12  C   LIG    1       -3.647  -2.202   1.443  0.00  0.00    +0.290 C 
ENDROOT
BRANCH   1  15
ATOM     13  N   LIG    1       -1.372  -0.511   0.012  0.00  0.00    -0.700 N 
ATOM     14  H   LIG    1       -2.118   0.109   0.023  0.00  0.00    +0.400 HD
ATOM     15  C   LIG    1       -1.601  -1.839   0.007  0.00  0.00    +0.500 C 
ATOM     16  O   LIG    1       -0.668  -2.615  -0.006  0.00  0.00    -0.510 OA
BRANCH  13  18
ATOM     17  C   LIG    1       -0.019   1.526   0.010  0.00  0.00    +0.030 C 
ATOM     18  C   LIG    1        0.002  -0.004   0.002  0.00  0.00    +0.260 C 
ENDBRANCH  13  18
ENDBRANCH   1  15
TORSDOF 2
ENDMDL
MODEL      195
REMARK  Name = ZINC000498047884
REMARK                            x       y       z     vdW  Elec       q    Type
REMARK                         _______ _______ _______ _____ _____    ______ ____
ROOT
ATOM      1  C   LIG    1       -2.547  -2.579   0.635  0.00  0.00    +0.310 C 
ATOM      2  O   LIG    1       -3.572  -1.999   0.369  0.00  0.00    -0.380 OA
ENDROOT
BRANCH   1   3
ATOM      3  C   LIG    1       -1.225  -2.027   0.167  0.00  0.00    +0.120 C 
ATOM      4  C   LIG    1       -0.915  -2.562  -1.232  0.00  0.00    +0.140 C 
BRANCH   3   5
ATOM      5  C   LIG    1       -1.296  -0.522   0.125  0.00  0.00    +0.430 C 
ATOM      6  O   LIG    1       -2.363   0.029  -0.008  0.00  0.00    -0.470 OA
BRANCH   5   8
ATOM      7  C   LIG    1       -0.317   1.650   0.185  0.00  0.00    +0.280 C 
ATOM      8  O   LIG    1       -0.174   0.206   0.235  0.00  0.00    -0.340 OA
ENDBRANCH   5   8
ENDBRANCH   3   5
BRANCH   3   9
ATOM      9  O   LIG    1       -0.194  -2.430   1.071  0.00  0.00    -0.500 OA
ATOM     10  H   LIG    1       -0.284  -2.062   1.960  0.00  0.00    +0.390 HD
ENDBRANCH   3   9
ENDBRANCH   1   3
BRANCH   1  11
ATOM     11  C   LIG    1       -2.589  -3.855   1.436  0.00  0.00    +0.200 C 
BRANCH  11  12
ATOM     12  C   LIG    1       -3.954  -4.482   1.309  0.00  0.00    +0.340 C 
ATOM     13  O   LIG    1       -4.124  -5.409   0.553  0.00  0.00    -0.410 OA
BRANCH  12  14
ATOM     14  C   LIG    1       -5.105  -3.954   2.125  0.00  0.00    +0.200 C 
BRANCH  14  15
ATOM     15  O   LIG    1       -6.252  -4.782   1.922  0.00  0.00    -0.550 OA
ATOM     16  H   LIG    1       -7.033  -4.500   2.418  0.00  0.00    +0.390 HD
ENDBRANCH  14  15
ENDBRANCH  12  14
ENDBRANCH  11  12
BRANCH  11  17
ATOM     17  O   LIG    1       -1.600  -4.760   0.943  0.00  0.00    -0.510 OA
ATOM     18  H   LIG    1       -1.718  -5.003   0.014  0.00  0.00    +0.390 HD
ENDBRANCH  11  17
ENDBRANCH   1  11
TORSDOF 9
ENDMDL
MODEL      196
REMARK  Name = ZINC000100498303
REMARK                            x       y       z     vdW  Elec       q    Type
REMARK                         _______ _______ _______ _____ _____    ______ ____
ROOT
ATOM      1  N   LIG    1       -1.234  -0.536  -0.111  0.00  0.00    -0.430 N 
ATOM      2  C   LIG    1       -2.160  -0.251   0.813  0.00  0.00    +0.510 C 
ATOM      3  C   LIG    1       -3.457  -0.940   0.448  0.00  0.00    +0.060 C 
ATOM      4  C   LIG    1       -3.116  -1.681  -0.861  0.00  0.00    +0.200 C 
ATOM      5  O   LIG    1       -1.988   0.449   1.788  0.00  0.00    -0.480 OA
ATOM      6  C   LIG    1       -1.664  -1.328  -1.101  0.00  0.00    +0.550 C 
ATOM      7  O   LIG    1       -0.994  -1.708  -2.037  0.00  0.00    -0.440 OA
ENDROOT
BRANCH   4   8
ATOM      8  N   LIG    1       -3.954  -1.194  -1.965  0.00  0.00    -0.510 NA
ATOM      9  C   LIG    1       -3.796   0.256  -2.145  0.00  0.00    +0.180 C 
ATOM     10  C   LIG    1       -4.622   0.710  -3.351  0.00  0.00    +0.190 C 
ATOM     11  N   LIG    1       -6.033   0.359  -3.136  0.00  0.00    -0.550 NA
ATOM     12  C   LIG    1       -6.190  -1.091  -2.955  0.00  0.00    +0.190 C 
ATOM     13  C   LIG    1       -6.871   0.847  -4.239  0.00  0.00    +0.190 C 
ATOM     14  C   LIG    1       -5.365  -1.545  -1.749  0.00  0.00    +0.190 C 
ENDBRANCH   4   8
BRANCH   1  16
ATOM     15  C   LIG    1        0.052   1.415  -0.065  0.00  0.00    +0.230 C 
ATOM     16  N   LIG    1        0.042  -0.054  -0.051  0.00  0.00    -0.300 NA
ATOM     17  C   LIG    1        0.746  -0.574   1.129  0.00  0.00    +0.230 C 
ENDBRANCH   1  16
TORSDOF 2
ENDMDL
MODEL      197
REMARK  Name = ZINC000019595379
REMARK                            x       y       z     vdW  Elec       q    Type
REMARK                         _______ _______ _______ _____ _____    ______ ____
ROOT
ATOM      1  C   LIG    1       -0.018   1.461   0.010  0.00  0.00    +0.310 C 
ATOM      2  N   LIG    1        0.002  -0.004   0.002  0.00  0.00    -0.580 N 
ATOM      3  C   LIG    1        0.007  -0.722  -1.128  0.00  0.00    +0.530 C 
ATOM      4  C   LIG    1        0.028  -2.195  -0.781  0.00  0.00    +0.100 C 
ATOM      5  C   LIG    1        0.035  -2.204   0.761  0.00  0.00    +0.190 C 
ATOM      6  O   LIG    1       -0.004  -0.265  -2.251  0.00  0.00    -0.480 OA
ATOM      7  C   LIG    1        0.023  -0.735   1.124  0.00  0.00    +0.500 C 
ATOM      8  O   LIG    1        0.024  -0.290   2.252  0.00  0.00    -0.470 OA
ENDROOT
BRANCH   5   9
ATOM      9  N   LIG    1       -1.160  -2.882   1.280  0.00  0.00    -0.510 NA
ATOM     10  C   LIG    1       -2.386  -2.261   0.760  0.00  0.00    +0.180 C 
ATOM     11  C   LIG    1       -3.603  -3.044   1.258  0.00  0.00    +0.190 C 
ATOM     12  N   LIG    1       -3.605  -3.057   2.728  0.00  0.00    -0.550 NA
ATOM     13  C   LIG    1       -2.379  -3.679   3.248  0.00  0.00    +0.190 C 
ATOM     14  C   LIG    1       -4.800  -3.736   3.247  0.00  0.00    +0.190 C 
ATOM     15  C   LIG    1       -1.162  -2.895   2.749  0.00  0.00    +0.200 C 
ENDBRANCH   5   9
TORSDOF 1
ENDMDL
MODEL      198
REMARK  Name = ZINC000101679681
REMARK                            x       y       z     vdW  Elec       q    Type
REMARK                         _______ _______ _______ _____ _____    ______ ____
ROOT
ATOM      1  C   LIG    1       -0.920  -3.680   1.561  0.00  0.00    +0.060 C 
ATOM      2  C   LIG    1       -0.409  -4.425   2.633  0.00  0.00    +0.050 C 
ATOM      3  C   LIG    1       -1.606  -5.272   2.722  0.00  0.00    +0.360 C 
ATOM      4  O   LIG    1       -1.982  -6.200   3.415  0.00  0.00    -0.410 OA
ATOM      5  C   LIG    1       -2.151  -4.483   1.592  0.00  0.00    +0.350 C 
ATOM      6  O   LIG    1       -3.186  -4.496   0.953  0.00  0.00    -0.420 OA
ENDROOT
BRANCH   1  11
ATOM      7  C   LIG    1       -0.018   1.465   0.010  0.00  0.00    +0.190 C 
ATOM      8  N   LIG    1        0.002  -0.004   0.002  0.00  0.00    -0.540 NA
ATOM      9  C   LIG    1       -1.359  -0.548  -0.091  0.00  0.00    +0.170 C 
ATOM     10  C   LIG    1       -1.286  -2.068  -0.279  0.00  0.00    +0.300 C 
ATOM     11  N   LIG    1       -0.463  -2.633   0.801  0.00  0.00    -0.570 N 
ATOM     12  C   LIG    1        0.864  -2.046   1.044  0.00  0.00    +0.290 C 
ATOM     13  C   LIG    1        0.706  -0.527   1.180  0.00  0.00    +0.170 C 
ENDBRANCH   1  11
BRANCH   2  14
ATOM     14  N   LIG    1        0.769  -4.379   3.336  0.00  0.00    -0.690 N 
ATOM     15  H   LIG    1        1.445  -3.722   3.107  0.00  0.00    +0.400 HD
BRANCH  14  16
ATOM     16  C   LIG    1        1.005  -5.321   4.432  0.00  0.00    +0.280 C 
BRANCH  16  17
ATOM     17  C   LIG    1        2.382  -5.058   5.044  0.00  0.00    +0.190 C 
BRANCH  17  18
ATOM     18  O   LIG    1        2.395  -3.763   5.649  0.00  0.00    -0.570 OA
ATOM     19  H   LIG    1        3.239  -3.529   6.058  0.00  0.00    +0.390 HD
ENDBRANCH  17  18
ENDBRANCH  16  17
ENDBRANCH  14  16
ENDBRANCH   2  14
TORSDOF 5
ENDMDL
MODEL      199
REMARK  Name = ZINC000019732057
REMARK                            x       y       z     vdW  Elec       q    Type
REMARK                         _______ _______ _______ _____ _____    ______ ____
ROOT
ATOM      1  N   LIG    1       -1.264  -0.510  -0.077  0.00  0.00    -0.430 N 
ATOM      2  C   LIG    1       -2.204  -0.258   0.843  0.00  0.00    +0.500 C 
ATOM      3  C   LIG    1       -3.483  -0.967   0.456  0.00  0.00    +0.110 C 
ATOM      4  C   LIG    1       -3.116  -1.681  -0.861  0.00  0.00    +0.200 C 
ATOM      5  O   LIG    1       -2.054   0.431   1.829  0.00  0.00    -0.480 OA
ATOM      6  C   LIG    1       -1.669  -1.296  -1.082  0.00  0.00    +0.510 C 
ATOM      7  O   LIG    1       -0.984  -1.648  -2.018  0.00  0.00    -0.450 OA
ENDROOT
BRANCH   4   8
ATOM      8  N   LIG    1       -3.255  -3.136  -0.716  0.00  0.00    -0.500 NA
ATOM      9  C   LIG    1       -2.440  -3.635   0.401  0.00  0.00    +0.170 C 
ATOM     10  C   LIG    1       -2.673  -5.138   0.568  0.00  0.00    +0.190 C 
ATOM     11  N   LIG    1       -2.325  -5.827  -0.682  0.00  0.00    -0.550 NA
ATOM     12  C   LIG    1       -3.140  -5.329  -1.799  0.00  0.00    +0.200 C 
ATOM     13  C   LIG    1       -2.464  -7.282  -0.537  0.00  0.00    +0.200 C 
ATOM     14  C   LIG    1       -2.907  -3.826  -1.967  0.00  0.00    +0.200 C 
ENDBRANCH   4   8
BRANCH   1  16
ATOM     15  C   LIG    1       -0.018   1.465   0.010  0.00  0.00    +0.220 C 
ATOM     16  N   LIG    1        0.002  -0.004   0.002  0.00  0.00    -0.310 NA
ATOM     17  C   LIG    1        0.706  -0.527   1.180  0.00  0.00    +0.220 C 
ENDBRANCH   1  16
TORSDOF 2
ENDMDL
MODEL      200
REMARK  Name = ZINC000075158223
REMARK                            x       y       z     vdW  Elec       q    Type
REMARK                         _______ _______ _______ _____ _____    ______ ____
ROOT
ATOM      1  O   LIG    1        0.002  -0.004   0.002  0.00  0.00    -0.520 OA
ATOM      2  C   LIG    1       -0.014   1.211   0.009  0.00  0.00    +0.600 C 
ATOM      3  N   LIG    1        1.143   1.901   0.001  0.00  0.00    -0.710 N 
ATOM      4  H   LIG    1        1.130   2.871   0.007  0.00  0.00    +0.410 HD
ENDROOT
BRANCH   2   5
ATOM      5  C   LIG    1       -1.305   1.933   0.019  0.00  0.00    +0.020 A 
ATOM      6  N   LIG    1       -1.320   3.247   0.021  0.00  0.00    -0.180 NA
ATOM      7  N   LIG    1       -2.414   3.920   0.029  0.00  0.00    -0.430 N 
ATOM      8  H   LIG    1       -2.372   4.889   0.030  0.00  0.00    +0.450 HD
ATOM      9  C   LIG    1       -3.618   3.317   0.037  0.00  0.00    +0.480 A 
ATOM     10  C   LIG    1       -3.690   1.906   0.036  0.00  0.00    -0.010 A 
ATOM     11  O   LIG    1       -4.638   3.984   0.044  0.00  0.00    -0.520 OA
ATOM     12  C   LIG    1       -2.520   1.206   0.021  0.00  0.00    +0.140 A 
ENDBRANCH   2   5
BRANCH   3  13
ATOM     13  C   LIG    1        2.422   1.186  -0.015  0.00  0.00    +0.260 C 
ATOM     14  C   LIG    1        2.884   0.913  -1.463  0.00  0.00    +0.270 C 
ATOM     15  N   LIG    1        3.746   2.046  -1.819  0.00  0.00    -0.730 N 
ATOM     16  H   LIG    1        3.994   2.280  -2.727  0.00  0.00    +0.410 HD
ATOM     17  C   LIG    1        4.147   2.717  -0.726  0.00  0.00    +0.520 C 
ATOM     18  O   LIG    1        4.870   3.691  -0.735  0.00  0.00    -0.530 OA
ATOM     19  C   LIG    1        3.564   2.082   0.518  0.00  0.00    +0.080 C 
ENDBRANCH   3  13
TORSDOF 2
ENDMDL
MODEL      201
REMARK  Name = ZINC000075158210
REMARK                            x       y       z     vdW  Elec       q    Type
REMARK                         _______ _______ _______ _____ _____    ______ ____
ROOT
ATOM      1  O   LIG    1       -0.027  -0.004  -0.015  0.00  0.00    -0.540 OA
ATOM      2  C   LIG    1       -0.014   1.212   0.009  0.00  0.00    +0.580 C 
ATOM      3  N   LIG    1        1.160   1.874   0.018  0.00  0.00    -0.710 N 
ATOM      4  H   LIG    1        1.171   2.842  -0.038  0.00  0.00    +0.420 HD
ENDROOT
BRANCH   2   5
ATOM      5  C   LIG    1       -1.281   1.961   0.020  0.00  0.00    -0.280 A 
ATOM      6  C   LIG    1       -2.498   1.292   0.126  0.00  0.00    +0.220 A 
ATOM      7  C   LIG    1       -3.679   2.035   0.133  0.00  0.00    -0.080 A 
ATOM      8  C   LIG    1       -3.632   3.389   0.038  0.00  0.00    +0.350 A 
ATOM      9  N   LIG    1       -2.452   4.045  -0.066  0.00  0.00    -0.600 N 
ATOM     10  H   LIG    1       -2.449   5.013  -0.133  0.00  0.00    +0.420 HD
ATOM     11  C   LIG    1       -1.283   3.377  -0.071  0.00  0.00    +0.530 A 
ATOM     12  O   LIG    1       -0.231   3.985  -0.164  0.00  0.00    -0.550 OA
ENDBRANCH   2   5
BRANCH   3  13
ATOM     13  C   LIG    1        2.419   1.131   0.114  0.00  0.00    +0.240 C 
ATOM     14  C   LIG    1        2.828   0.924   1.589  0.00  0.00    +0.260 C 
ATOM     15  N   LIG    1        4.291   1.036   1.609  0.00  0.00    -0.730 N 
ATOM     16  H   LIG    1        4.854   0.724   2.336  0.00  0.00    +0.410 HD
ATOM     17  C   LIG    1        4.751   1.625   0.492  0.00  0.00    +0.520 C 
ATOM     18  O   LIG    1        5.920   1.846   0.255  0.00  0.00    -0.530 OA
ATOM     19  C   LIG    1        3.599   1.971  -0.426  0.00  0.00    +0.060 C 
ENDBRANCH   3  13
TORSDOF 2
ENDMDL
MODEL      202
REMARK  Name = ZINC000002292863
REMARK                            x       y       z     vdW  Elec       q    Type
REMARK                         _______ _______ _______ _____ _____    ______ ____
ROOT
ATOM      1  C   LIG    1       -0.923  -3.688   1.566  0.00  0.00    +0.510 A 
ATOM      2  N   LIG    1       -2.083  -4.277   1.420  0.00  0.00    -0.470 NA
ATOM      3  C   LIG    1       -2.201  -5.270   2.340  0.00  0.00    -0.110 A 
ATOM      4  C   LIG    1       -1.025  -5.281   3.096  0.00  0.00    +0.300 A 
ATOM      5  N   LIG    1       -0.879  -6.173   4.082  0.00  0.00    -0.580 NA
ATOM      6  C   LIG    1       -1.824  -7.045   4.356  0.00  0.00    +0.650 A 
ATOM      7  N   LIG    1       -2.992  -7.083   3.654  0.00  0.00    -0.650 N 
ATOM      8  H   LIG    1       -3.670  -7.738   3.881  0.00  0.00    +0.420 HD
ATOM      9  C   LIG    1       -3.209  -6.212   2.644  0.00  0.00    +0.590 A 
ATOM     10  O   LIG    1       -4.251  -6.238   2.010  0.00  0.00    -0.510 OA
ATOM     11  N   LIG    1       -0.233  -4.281   2.589  0.00  0.00    -0.580 N 
ATOM     12  H   LIG    1        0.651  -4.035   2.902  0.00  0.00    +0.420 HD
ENDROOT
BRANCH   1  17
ATOM     13  C   LIG    1       -0.018   1.465   0.010  0.00  0.00    +0.190 C 
ATOM     14  N   LIG    1        0.002  -0.004   0.002  0.00  0.00    -0.540 NA
ATOM     15  C   LIG    1       -1.359  -0.548  -0.091  0.00  0.00    +0.170 C 
ATOM     16  C   LIG    1       -1.286  -2.068  -0.279  0.00  0.00    +0.330 C 
ATOM     17  N   LIG    1       -0.463  -2.633   0.801  0.00  0.00    -0.600 N 
ATOM     18  C   LIG    1        0.864  -2.046   1.044  0.00  0.00    +0.280 C 
ATOM     19  C   LIG    1        0.706  -0.527   1.180  0.00  0.00    +0.170 C 
ENDBRANCH   1  17
BRANCH   6  20
ATOM     20  N   LIG    1       -1.629  -7.942   5.377  0.00  0.00    -0.820 N 
ATOM     21  H   LIG    1       -2.318  -8.591   5.590  0.00  0.00    +0.420 HD
ATOM     22  H   LIG    1       -0.804  -7.926   5.886  0.00  0.00    +0.430 HD
ENDBRANCH   6  20
TORSDOF 2
ENDMDL
MODEL      203
REMARK  Name = ZINC000075158224
REMARK                            x       y       z     vdW  Elec       q    Type
REMARK                         _______ _______ _______ _____ _____    ______ ____
ROOT
ATOM      1  O   LIG    1        0.002  -0.004   0.002  0.00  0.00    -0.510 OA
ATOM      2  C   LIG    1       -0.014   1.211   0.009  0.00  0.00    +0.600 C 
ATOM      3  N   LIG    1        1.143   1.901   0.001  0.00  0.00    -0.700 N 
ATOM      4  H   LIG    1        1.130   2.871   0.007  0.00  0.00    +0.410 HD
ENDROOT
BRANCH   2   5
ATOM      5  C   LIG    1       -1.305   1.933   0.019  0.00  0.00    +0.020 A 
ATOM      6  N   LIG    1       -1.320   3.247   0.021  0.00  0.00    -0.180 NA
ATOM      7  N   LIG    1       -2.414   3.920   0.029  0.00  0.00    -0.430 N 
ATOM      8  H   LIG    1       -2.372   4.889   0.030  0.00  0.00    +0.450 HD
ATOM      9  C   LIG    1       -3.618   3.317   0.037  0.00  0.00    +0.480 A 
ATOM     10  C   LIG    1       -3.690   1.906   0.036  0.00  0.00    -0.010 A 
ATOM     11  O   LIG    1       -4.638   3.984   0.044  0.00  0.00    -0.510 OA
ATOM     12  C   LIG    1       -2.520   1.206   0.021  0.00  0.00    +0.140 A 
ENDBRANCH   2   5
BRANCH   3  13
ATOM     13  C   LIG    1        2.422   1.186  -0.015  0.00  0.00    +0.250 C 
ATOM     14  C   LIG    1        2.912   0.897   1.422  0.00  0.00    +0.260 C 
ATOM     15  N   LIG    1        4.371   1.044   1.375  0.00  0.00    -0.730 N 
ATOM     16  H   LIG    1        4.978   0.702   2.050  0.00  0.00    +0.420 HD
ATOM     17  C   LIG    1        4.759   1.714   0.276  0.00  0.00    +0.520 C 
ATOM     18  O   LIG    1        5.909   1.980  -0.006  0.00  0.00    -0.520 OA
ATOM     19  C   LIG    1        3.554   2.088  -0.559  0.00  0.00    +0.070 C 
ENDBRANCH   3  13
TORSDOF 2
ENDMDL
MODEL      204
REMARK  Name = ZINC000075158209
REMARK                            x       y       z     vdW  Elec       q    Type
REMARK                         _______ _______ _______ _____ _____    ______ ____
ROOT
ATOM      1  O   LIG    1       -0.029  -0.004  -0.015  0.00  0.00    -0.550 OA
ATOM      2  C   LIG    1       -0.014   1.212   0.009  0.00  0.00    +0.580 C 
ATOM      3  N   LIG    1        1.161   1.872   0.018  0.00  0.00    -0.710 N 
ATOM      4  H   LIG    1        1.174   2.841  -0.038  0.00  0.00    +0.420 HD
ENDROOT
BRANCH   2   5
ATOM      5  C   LIG    1       -1.279   1.963   0.020  0.00  0.00    -0.280 A 
ATOM      6  C   LIG    1       -2.498   1.296   0.126  0.00  0.00    +0.220 A 
ATOM      7  C   LIG    1       -3.677   2.041   0.133  0.00  0.00    -0.080 A 
ATOM      8  C   LIG    1       -3.629   3.394   0.038  0.00  0.00    +0.350 A 
ATOM      9  N   LIG    1       -2.448   4.049  -0.065  0.00  0.00    -0.600 N 
ATOM     10  H   LIG    1       -2.443   5.017  -0.133  0.00  0.00    +0.420 HD
ATOM     11  C   LIG    1       -1.280   3.379  -0.070  0.00  0.00    +0.530 A 
ATOM     12  O   LIG    1       -0.227   3.986  -0.164  0.00  0.00    -0.540 OA
ENDBRANCH   2   5
BRANCH   3  13
ATOM     13  C   LIG    1        2.418   1.127   0.114  0.00  0.00    +0.250 C 
ATOM     14  C   LIG    1        2.946   0.750  -1.288  0.00  0.00    +0.260 C 
ATOM     15  N   LIG    1        3.855   1.838  -1.669  0.00  0.00    -0.730 N 
ATOM     16  H   LIG    1        4.155   2.007  -2.576  0.00  0.00    +0.410 HD
ATOM     17  C   LIG    1        4.218   2.568  -0.601  0.00  0.00    +0.520 C 
ATOM     18  O   LIG    1        4.967   3.522  -0.634  0.00  0.00    -0.530 OA
ATOM     19  C   LIG    1        3.556   2.028   0.648  0.00  0.00    +0.070 C 
ENDBRANCH   3  13
TORSDOF 2
ENDMDL
MODEL      205
REMARK  Name = ZINC000003870075
REMARK                            x       y       z     vdW  Elec       q    Type
REMARK                         _______ _______ _______ _____ _____    ______ ____
ROOT
ATOM      1  C   LIG    1       -1.136  -2.159   0.001  0.00  0.00    +0.250 C 
ATOM      2  C   LIG    1       -0.868  -2.674   1.418  0.00  0.00    +0.340 C 
ATOM      3  O   LIG    1       -1.929  -2.262   2.282  0.00  0.00    -0.390 OA
ATOM      4  C   LIG    1       -3.213  -2.764   1.910  0.00  0.00    +0.150 C 
ATOM      5  C   LIG    1       -3.576  -2.252   0.514  0.00  0.00    +0.120 C 
ATOM      6  C   LIG    1       -2.491  -2.686  -0.479  0.00  0.00    +0.180 C 
ENDROOT
BRANCH   1   9
ATOM      7  C   LIG    1       -0.825   1.498  -1.089  0.00  0.00    +0.090 C 
ATOM      8  C   LIG    1       -0.804  -0.009  -1.097  0.00  0.00    +0.520 C 
ATOM      9  N   LIG    1       -1.156  -0.694   0.009  0.00  0.00    -0.690 N 
ATOM     10  H   LIG    1       -1.422  -0.217   0.811  0.00  0.00    +0.410 HD
ATOM     11  O   LIG    1       -0.471  -0.605  -2.099  0.00  0.00    -0.540 OA
ENDBRANCH   1   9
BRANCH   5  12
ATOM     12  O   LIG    1       -3.661  -0.826   0.535  0.00  0.00    -0.530 OA
ATOM     13  H   LIG    1       -4.326  -0.481   1.147  0.00  0.00    +0.370 HD
ENDBRANCH   5  12
BRANCH   2  14
ATOM     14  O   LIG    1        0.369  -2.141   1.893  0.00  0.00    -0.530 OA
ATOM     15  H   LIG    1        0.604  -2.426   2.787  0.00  0.00    +0.390 HD
ENDBRANCH   2  14
BRANCH   6  16
ATOM     16  O   LIG    1       -2.785  -2.152  -1.772  0.00  0.00    -0.530 OA
ATOM     17  H   LIG    1       -3.634  -2.441  -2.133  0.00  0.00    +0.380 HD
ENDBRANCH   6  16
BRANCH   4  18
ATOM     18  C   LIG    1       -4.260  -2.284   2.917  0.00  0.00    +0.210 C 
BRANCH  18  19
ATOM     19  O   LIG    1       -3.987  -2.856   4.198  0.00  0.00    -0.560 OA
ATOM     20  H   LIG    1       -4.612  -2.595   4.887  0.00  0.00    +0.390 HD
ENDBRANCH  18  19
ENDBRANCH   4  18
TORSDOF 6
ENDMDL
MODEL      206
REMARK  Name = ZINC000000105120
REMARK                            x       y       z     vdW  Elec       q    Type
REMARK                         _______ _______ _______ _____ _____    ______ ____
ROOT
ATOM      1  C   LIG    1       -0.013   1.504   0.012  0.00  0.00    +0.140 C 
ATOM      2  C   LIG    1        0.005  -0.003   0.003  0.00  0.00    +0.550 C 
ATOM      3  N   LIG    1        0.003  -0.670  -1.168  0.00  0.00    -0.590 N 
ATOM      4  C   LIG    1       -0.009  -0.104  -2.382  0.00  0.00    +0.710 C 
ATOM      5  N   LIG    1       -0.008  -0.983  -3.392  0.00  0.00    -0.720 N 
ATOM      6  H   LIG    1       -0.016  -0.755  -4.334  0.00  0.00    +0.440 HD
ATOM      7  C   LIG    1        0.006  -2.349  -2.848  0.00  0.00    +0.490 C 
ATOM      8  N   LIG    1        1.302  -2.981  -3.133  0.00  0.00    -0.590 N 
ATOM      9  C   LIG    1        1.748  -3.359  -4.347  0.00  0.00    +0.540 C 
ATOM     10  O   LIG    1        2.877  -3.781  -4.473  0.00  0.00    -0.460 OA
ATOM     11  C   LIG    1        0.843  -3.257  -5.548  0.00  0.00    +0.130 C 
ATOM     12  C   LIG    1        1.982  -3.116  -1.975  0.00  0.00    +0.700 C 
ATOM     13  O   LIG    1        3.091  -3.609  -1.915  0.00  0.00    -0.510 OA
ATOM     14  N   LIG    1        1.325  -2.663  -0.899  0.00  0.00    -0.720 N 
ATOM     15  H   LIG    1        1.660  -2.682   0.011  0.00  0.00    +0.450 HD
ATOM     16  O   LIG    1       -0.019   1.099  -2.551  0.00  0.00    -0.530 OA
ATOM     17  C   LIG    1        0.019  -2.133  -1.314  0.00  0.00    +0.480 C 
ATOM     18  O   LIG    1        0.022  -0.616   1.049  0.00  0.00    -0.500 OA
ENDROOT
TORSDOF 0
ENDMDL
MODEL      207
REMARK  Name = ZINC000000202103
REMARK                            x       y       z     vdW  Elec       q    Type
REMARK                         _______ _______ _______ _____ _____    ______ ____
ROOT
ATOM      1  C   LIG    1       -2.992  -2.410  -0.082  0.00  0.00    +0.230 C 
ATOM      2  N   LIG    1       -3.799  -1.630  -1.005  0.00  0.00    -0.430 NA
ATOM      3  C   LIG    1       -4.134  -0.452  -0.523  0.00  0.00    +0.490 C 
ATOM      4  N   LIG    1       -3.725  -0.049   0.720  0.00  0.00    -0.160 NA
ATOM      5  N   LIG    1       -3.517  -0.868   1.658  0.00  0.00    -0.080 NA
ATOM      6  N   LIG    1       -2.939  -3.857  -0.164  0.00  0.00    -0.600 N 
ATOM      7  C   LIG    1       -2.985  -4.667  -1.385  0.00  0.00    +0.350 C 
ATOM      8  C   LIG    1       -2.861  -4.306   1.111  0.00  0.00    +0.700 C 
ATOM      9  O   LIG    1       -2.568  -5.449   1.404  0.00  0.00    -0.530 OA
ATOM     10  N   LIG    1       -3.132  -3.337   2.028  0.00  0.00    -0.620 N 
ATOM     11  C   LIG    1       -2.865  -3.383   3.468  0.00  0.00    +0.360 C 
ATOM     12  C   LIG    1       -3.740  -2.251   1.286  0.00  0.00    +0.290 C 
ENDROOT
BRANCH   1  15
ATOM     13  N   LIG    1       -0.651  -2.486   0.712  0.00  0.00    -0.710 N 
ATOM     14  H   LIG    1       -0.881  -3.279   1.222  0.00  0.00    +0.400 HD
ATOM     15  C   LIG    1       -1.601  -1.839   0.007  0.00  0.00    +0.500 C 
ATOM     16  O   LIG    1       -1.335  -0.798  -0.555  0.00  0.00    -0.500 OA
BRANCH  13  18
ATOM     17  C   LIG    1        1.598  -2.900   1.581  0.00  0.00    +0.030 C 
ATOM     18  C   LIG    1        0.728  -1.991   0.709  0.00  0.00    +0.260 C 
ENDBRANCH  13  18
ENDBRANCH   1  15
TORSDOF 2
ENDMDL
MODEL      208
REMARK  Name = ZINC000005472050
REMARK                            x       y       z     vdW  Elec       q    Type
REMARK                         _______ _______ _______ _____ _____    ______ ____
ROOT
ATOM      1  C   LIG    1       -3.014  -2.361   0.018  0.00  0.00    +0.200 C 
ENDROOT
BRANCH   1   4
ATOM      2  N   LIG    1       -1.372  -0.511   0.012  0.00  0.00    -0.720 N 
ATOM      3  H   LIG    1       -2.118   0.109   0.023  0.00  0.00    +0.400 HD
ATOM      4  C   LIG    1       -1.601  -1.839   0.007  0.00  0.00    +0.490 C 
ATOM      5  O   LIG    1       -0.668  -2.615  -0.006  0.00  0.00    -0.520 OA
BRANCH   2   7
ATOM      6  C   LIG    1       -0.019   1.526   0.010  0.00  0.00    +0.030 C 
ATOM      7  C   LIG    1        0.002  -0.004   0.002  0.00  0.00    +0.250 C 
ENDBRANCH   2   7
ENDBRANCH   1   4
BRANCH   1   8
ATOM      8  O   LIG    1       -2.996  -3.786   0.128  0.00  0.00    -0.520 OA
ATOM      9  H   LIG    1       -2.533  -4.230  -0.596  0.00  0.00    +0.390 HD
ENDBRANCH   1   8
BRANCH   1  10
ATOM     10  C   LIG    1       -3.716  -1.959  -1.280  0.00  0.00    +0.200 C 
BRANCH  10  11
ATOM     11  C   LIG    1       -5.087  -2.583  -1.325  0.00  0.00    +0.490 C 
ATOM     12  N   LIG    1       -6.022  -2.220  -0.424  0.00  0.00    -0.720 N 
ATOM     13  H   LIG    1       -5.812  -1.558   0.253  0.00  0.00    +0.400 HD
ATOM     14  O   LIG    1       -5.349  -3.411  -2.171  0.00  0.00    -0.520 OA
BRANCH  12  15
ATOM     15  C   LIG    1       -7.355  -2.827  -0.467  0.00  0.00    +0.250 C 
ATOM     16  C   LIG    1       -8.216  -2.246   0.656  0.00  0.00    +0.030 C 
ENDBRANCH  12  15
ENDBRANCH  10  11
BRANCH  10  17
ATOM     17  O   LIG    1       -2.950  -2.414  -2.397  0.00  0.00    -0.520 OA
ATOM     18  H   LIG    1       -2.826  -3.372  -2.425  0.00  0.00    +0.390 HD
ENDBRANCH  10  17
ENDBRANCH   1  10
TORSDOF 7
ENDMDL
MODEL      209
REMARK  Name = ZINC000000330380
REMARK                            x       y       z     vdW  Elec       q    Type
REMARK                         _______ _______ _______ _____ _____    ______ ____
ROOT
ATOM      1  C   LIG    1       -0.018   1.461   0.010  0.00  0.00    +0.370 C 
ATOM      2  N   LIG    1        0.002  -0.004   0.002  0.00  0.00    -0.380 N 
ATOM      3  C   LIG    1        0.009  -0.810  -1.098  0.00  0.00    +0.170 A 
ATOM      4  N   LIG    1        0.027  -2.071  -0.712  0.00  0.00    -0.430 NA
ATOM      5  C   LIG    1        0.034  -2.133   0.616  0.00  0.00    +0.300 A 
ATOM      6  N   LIG    1        0.051  -3.176   1.529  0.00  0.00    -0.510 N 
ATOM      7  C   LIG    1        0.061  -4.560   1.047  0.00  0.00    +0.350 C 
ATOM      8  C   LIG    1        0.049  -2.933   2.851  0.00  0.00    +0.710 A 
ATOM      9  O   LIG    1        0.060  -3.875   3.619  0.00  0.00    -0.530 OA
ATOM     10  N   LIG    1        0.040  -1.688   3.356  0.00  0.00    -0.650 N 
ATOM     11  H   LIG    1        0.043  -1.563   4.318  0.00  0.00    +0.440 HD
ATOM     12  C   LIG    1        0.027  -0.609   2.544  0.00  0.00    +0.600 A 
ATOM     13  O   LIG    1        0.019   0.517   3.006  0.00  0.00    -0.500 OA
ATOM     14  C   LIG    1        0.024  -0.824   1.096  0.00  0.00    -0.120 A 
ENDROOT
BRANCH   3  15
ATOM     15  C   LIG    1       -0.003  -0.345  -2.495  0.00  0.00    +0.560 C 
ATOM     16  O   LIG    1        0.004  -1.151  -3.402  0.00  0.00    -0.400 OA
ENDBRANCH   3  15
TORSDOF 1
ENDMDL
MODEL      210
REMARK  Name = ZINC000002471283
REMARK                            x       y       z     vdW  Elec       q    Type
REMARK                         _______ _______ _______ _____ _____    ______ ____
ROOT
ATOM      1  C   LIG    1       -1.056  -2.140   0.001  0.00  0.00    +0.220 C 
ENDROOT
BRANCH   1   2
ATOM      2  C   LIG    1       -1.036  -2.633  -1.423  0.00  0.00    +0.510 C 
ATOM      3  O   LIG    1       -1.097  -1.842  -2.340  0.00  0.00    -0.510 OA
ATOM      4  N   LIG    1       -0.951  -3.954  -1.677  0.00  0.00    -0.850 N 
ATOM      5  H   LIG    1       -0.939  -4.272  -2.594  0.00  0.00    +0.410 HD
ATOM      6  H   LIG    1       -0.902  -4.587  -0.944  0.00  0.00    +0.400 HD
ENDBRANCH   1   2
BRANCH   1   7
ATOM      7  O   LIG    1       -1.151  -0.691   0.009  0.00  0.00    -0.310 OA
BRANCH   7   9
ATOM      8  C   LIG    1       -0.018   1.503   0.010  0.00  0.00    +0.170 C 
ATOM      9  C   LIG    1        0.002  -0.004   0.002  0.00  0.00    +0.470 C 
ATOM     10  O   LIG    1        1.056  -0.594  -0.011  0.00  0.00    -0.510 OA
ENDBRANCH   7   9
ENDBRANCH   1   7
BRANCH   1  11
ATOM     11  C   LIG    1       -2.261  -2.735   0.730  0.00  0.00    +0.220 C 
BRANCH  11  12
ATOM     12  C   LIG    1       -2.351  -2.147   2.115  0.00  0.00    +0.510 C 
ATOM     13  O   LIG    1       -3.298  -1.452   2.418  0.00  0.00    -0.510 OA
ATOM     14  N   LIG    1       -1.380  -2.393   3.016  0.00  0.00    -0.850 N 
ATOM     15  H   LIG    1       -1.437  -2.015   3.907  0.00  0.00    +0.410 HD
ATOM     16  H   LIG    1       -0.623  -2.949   2.773  0.00  0.00    +0.400 HD
ENDBRANCH  11  12
BRANCH  11  17
ATOM     17  O   LIG    1       -3.474  -2.425  -0.006  0.00  0.00    -0.310 OA
BRANCH  17  18
ATOM     18  C   LIG    1       -4.482  -3.307   0.082  0.00  0.00    +0.460 C 
ATOM     19  O   LIG    1       -4.356  -4.304   0.752  0.00  0.00    -0.510 OA
ATOM     20  C   LIG    1       -5.772  -3.053  -0.656  0.00  0.00    +0.170 C 
ENDBRANCH  17  18
ENDBRANCH  11  17
ENDBRANCH   1  11
TORSDOF 7
ENDMDL
MODEL      211
REMARK  Name = ZINC000026125510
REMARK                            x       y       z     vdW  Elec       q    Type
REMARK                         _______ _______ _______ _____ _____    ______ ____
ROOT
ATOM      1  N   LIG    1        0.000  -0.219   2.523  0.00  0.00    -0.490 NA
ENDROOT
BRANCH   1   2
ATOM      2  C   LIG    1        0.917  -0.028   1.391  0.00  0.00    +0.190 C 
BRANCH   2   4
ATOM      3  C   LIG    1       -0.058   2.206   0.842  0.00  0.00    +0.030 C 
ATOM      4  C   LIG    1        0.223   0.800   0.307  0.00  0.00    -0.020 C 
ATOM      5  C   LIG    1        1.130   0.894  -0.921  0.00  0.00    +0.020 C 
ENDBRANCH   2   4
ENDBRANCH   1   2
BRANCH   1   6
ATOM      6  C   LIG    1        0.701  -0.801   3.675  0.00  0.00    +0.230 C 
BRANCH   6   7
ATOM      7  C   LIG    1       -0.126  -0.602   4.919  0.00  0.00    +0.510 C 
ATOM      8  N   LIG    1        0.253  -1.173   6.079  0.00  0.00    -0.690 N 
ATOM      9  H   LIG    1        1.058  -1.713   6.114  0.00  0.00    +0.410 HD
ATOM     10  C   LIG    1       -0.487  -0.995   7.192  0.00  0.00    +0.700 C 
ATOM     11  O   LIG    1       -1.496  -0.319   7.149  0.00  0.00    -0.530 OA
ATOM     12  N   LIG    1       -0.107  -1.567   8.352  0.00  0.00    -0.860 N 
ATOM     13  H   LIG    1       -0.640  -1.439   9.152  0.00  0.00    +0.420 HD
ATOM     14  H   LIG    1        0.698  -2.107   8.386  0.00  0.00    +0.400 HD
ATOM     15  O   LIG    1       -1.133   0.073   4.877  0.00  0.00    -0.450 OA
ENDBRANCH   6   7
ENDBRANCH   1   6
BRANCH   1  16
ATOM     16  C   LIG    1       -1.151  -1.044   2.135  0.00  0.00    +0.250 C 
BRANCH  16  17
ATOM     17  C   LIG    1       -0.669  -2.403   1.695  0.00  0.00    +0.490 C 
ATOM     18  O   LIG    1        0.513  -2.671   1.740  0.00  0.00    -0.550 OA
ATOM     19  N   LIG    1       -1.552  -3.320   1.252  0.00  0.00    -0.850 N 
ATOM     20  H   LIG    1       -1.242  -4.194   0.968  0.00  0.00    +0.400 HD
ATOM     21  H   LIG    1       -2.497  -3.106   1.216  0.00  0.00    +0.400 HD
ENDBRANCH  16  17
ENDBRANCH   1  16
TORSDOF 6
ENDMDL
MODEL      212
REMARK  Name = ZINC000002471289
REMARK                            x       y       z     vdW  Elec       q    Type
REMARK                         _______ _______ _______ _____ _____    ______ ____
ROOT
ATOM      1  C   LIG    1       -1.056  -2.140   0.001  0.00  0.00    +0.220 C 
ENDROOT
BRANCH   1   2
ATOM      2  C   LIG    1       -1.009  -2.649   1.418  0.00  0.00    +0.510 C 
ATOM      3  O   LIG    1       -1.143  -1.877   2.344  0.00  0.00    -0.510 OA
ATOM      4  N   LIG    1       -0.818  -3.961   1.657  0.00  0.00    -0.850 N 
ATOM      5  H   LIG    1       -0.788  -4.289   2.570  0.00  0.00    +0.410 HD
ATOM      6  H   LIG    1       -0.711  -4.578   0.917  0.00  0.00    +0.400 HD
ENDBRANCH   1   2
BRANCH   1   7
ATOM      7  O   LIG    1       -1.151  -0.691   0.009  0.00  0.00    -0.310 OA
BRANCH   7   9
ATOM      8  C   LIG    1       -0.018   1.503   0.010  0.00  0.00    +0.170 C 
ATOM      9  C   LIG    1        0.002  -0.004   0.002  0.00  0.00    +0.460 C 
ATOM     10  O   LIG    1        1.056  -0.594  -0.011  0.00  0.00    -0.510 OA
ENDBRANCH   7   9
ENDBRANCH   1   7
BRANCH   1  11
ATOM     11  C   LIG    1       -2.275  -2.727  -0.712  0.00  0.00    +0.220 C 
BRANCH  11  12
ATOM     12  C   LIG    1       -2.391  -2.124  -2.088  0.00  0.00    +0.510 C 
ATOM     13  O   LIG    1       -3.344  -1.426  -2.366  0.00  0.00    -0.510 OA
ATOM     14  N   LIG    1       -1.437  -2.361  -3.010  0.00  0.00    -0.850 N 
ATOM     15  H   LIG    1       -1.512  -1.973  -3.896  0.00  0.00    +0.410 HD
ATOM     16  H   LIG    1       -0.676  -2.919  -2.788  0.00  0.00    +0.400 HD
ENDBRANCH  11  12
BRANCH  11  17
ATOM     17  O   LIG    1       -3.473  -2.426   0.051  0.00  0.00    -0.310 OA
BRANCH  17  18
ATOM     18  C   LIG    1       -4.483  -3.307  -0.027  0.00  0.00    +0.460 C 
ATOM     19  O   LIG    1       -4.370  -4.297  -0.711  0.00  0.00    -0.510 OA
ATOM     20  C   LIG    1       -5.758  -3.061   0.737  0.00  0.00    +0.170 C 
ENDBRANCH  17  18
ENDBRANCH  11  17
ENDBRANCH   1  11
TORSDOF 7
ENDMDL
MODEL      213
REMARK  Name = ZINC000000052038
REMARK                            x       y       z     vdW  Elec       q    Type
REMARK                         _______ _______ _______ _____ _____    ______ ____
ROOT
ATOM      1  C   LIG    1       -0.018   1.461   0.010  0.00  0.00    +0.330 C 
ATOM      2  N   LIG    1        0.002  -0.004   0.002  0.00  0.00    -0.640 N 
ATOM      3  C   LIG    1        0.008  -0.772  -1.095  0.00  0.00    +0.710 C 
ATOM      4  N   LIG    1        0.027  -2.086  -0.838  0.00  0.00    -0.620 N 
ATOM      5  C   LIG    1        0.036  -2.298   0.617  0.00  0.00    +0.470 C 
ATOM      6  N   LIG    1       -1.254  -2.860   1.042  0.00  0.00    -0.630 N 
ATOM      7  C   LIG    1       -1.925  -1.933   1.748  0.00  0.00    +0.710 C 
ATOM      8  O   LIG    1       -3.027  -2.132   2.221  0.00  0.00    -0.560 OA
ATOM      9  N   LIG    1       -1.271  -0.772   1.883  0.00  0.00    -0.630 N 
ATOM     10  C   LIG    1       -1.771   0.402   2.602  0.00  0.00    +0.340 C 
ATOM     11  O   LIG    1       -0.003  -0.318  -2.222  0.00  0.00    -0.560 OA
ATOM     12  C   LIG    1        0.025  -0.860   1.196  0.00  0.00    +0.470 C 
ENDROOT
BRANCH   6  13
ATOM     13  C   LIG    1       -1.736  -4.211   0.745  0.00  0.00    +0.490 C 
BRANCH  13  14
ATOM     14  O   LIG    1       -2.736  -4.146  -0.274  0.00  0.00    -0.580 OA
ATOM     15  H   LIG    1       -3.100  -5.006  -0.522  0.00  0.00    +0.400 HD
ENDBRANCH  13  14
ENDBRANCH   6  13
BRANCH   4  16
ATOM     16  C   LIG    1        0.038  -3.147  -1.848  0.00  0.00    +0.480 C 
BRANCH  16  17
ATOM     17  O   LIG    1        1.338  -3.233  -2.434  0.00  0.00    -0.590 OA
ATOM     18  H   LIG    1        1.419  -3.916  -3.114  0.00  0.00    +0.400 HD
ENDBRANCH  16  17
ENDBRANCH   4  16
TORSDOF 4
ENDMDL
MODEL      214
REMARK  Name = ZINC000005114223
REMARK                            x       y       z     vdW  Elec       q    Type
REMARK                         _______ _______ _______ _____ _____    ______ ____
ROOT
ATOM      1  C   LIG    1       -4.861  -1.039   0.034  0.00  0.00    +0.300 C 
ENDROOT
BRANCH   1   4
ATOM      2  C   LIG    1       -1.257  -0.754   0.010  0.00  0.00    +0.110 A 
ATOM      3  N   LIG    1       -2.468  -0.232   0.019  0.00  0.00    -0.410 NA
ATOM      4  C   LIG    1       -3.364  -1.213   0.024  0.00  0.00    -0.030 A 
ATOM      5  C   LIG    1       -2.702  -2.398   0.019  0.00  0.00    +0.190 A 
ATOM      6  N   LIG    1       -1.379  -2.117   0.004  0.00  0.00    -0.520 N 
ATOM      7  H   LIG    1       -0.653  -2.761  -0.003  0.00  0.00    +0.430 HD
BRANCH   2   9
ATOM      8  C   LIG    1       -0.018   1.503   0.010  0.00  0.00    +0.110 C 
ATOM      9  C   LIG    1        0.002  -0.004   0.002  0.00  0.00    +0.440 C 
ATOM     10  O   LIG    1        1.061  -0.596  -0.011  0.00  0.00    -0.460 OA
ENDBRANCH   2   9
ENDBRANCH   1   4
BRANCH   1  11
ATOM     11  O   LIG    1       -5.488  -2.318   0.154  0.00  0.00    -0.540 OA
ATOM     12  H   LIG    1       -5.251  -2.798   0.960  0.00  0.00    +0.370 HD
ENDBRANCH   1  11
BRANCH   1  13
ATOM     13  C   LIG    1       -5.264  -0.160   1.220  0.00  0.00    +0.180 C 
BRANCH  13  14
ATOM     14  O   LIG    1       -4.748  -0.722   2.428  0.00  0.00    -0.540 OA
ATOM     15  H   LIG    1       -5.067  -1.616   2.613  0.00  0.00    +0.370 HD
ENDBRANCH  13  14
BRANCH  13  16
ATOM     16  C   LIG    1       -6.790  -0.086   1.304  0.00  0.00    +0.190 C 
BRANCH  16  17
ATOM     17  O   LIG    1       -7.307   0.477   0.096  0.00  0.00    -0.540 OA
ATOM     18  H   LIG    1       -6.988   1.370  -0.090  0.00  0.00    +0.370 HD
ENDBRANCH  16  17
BRANCH  16  19
ATOM     19  C   LIG    1       -7.194   0.793   2.489  0.00  0.00    +0.150 C 
BRANCH  19  20
ATOM     20  O   LIG    1       -8.615   0.769   2.639  0.00  0.00    -0.570 OA
ATOM     21  H   LIG    1       -8.942   1.306   3.373  0.00  0.00    +0.380 HD
ENDBRANCH  19  20
ENDBRANCH  16  19
ENDBRANCH  13  16
ENDBRANCH   1  13
TORSDOF 9
ENDMDL
MODEL      215
REMARK  Name = ZINC000004159923
REMARK                            x       y       z     vdW  Elec       q    Type
REMARK                         _______ _______ _______ _____ _____    ______ ____
ROOT
ATOM      1  C   LIG    1       -0.019   1.526   0.010  0.00  0.00    +0.080 C 
ATOM      2  C   LIG    1        0.002  -0.004   0.002  0.00  0.00    +0.250 C 
ATOM      3  O   LIG    1        0.684  -0.469  -1.169  0.00  0.00    -0.360 OA
ATOM      4  C   LIG    1        1.796  -1.276  -0.737  0.00  0.00    +0.360 C 
ATOM      5  O   LIG    1        2.951  -0.427  -0.597  0.00  0.00    -0.370 OA
ATOM      6  C   LIG    1        3.740  -0.934   0.489  0.00  0.00    +0.110 C 
ATOM      7  C   LIG    1        2.791  -1.695   1.432  0.00  0.00    +0.180 C 
ATOM      8  C   LIG    1        1.407  -1.660   0.725  0.00  0.00    +0.160 C 
ATOM      9  C   LIG    1       -1.432  -0.537   0.004  0.00  0.00    +0.050 C 
ATOM     10  O   LIG    1        0.696  -0.483   1.165  0.00  0.00    -0.350 OA
ENDROOT
BRANCH   7  11
ATOM     11  O   LIG    1        3.222  -3.049   1.586  0.00  0.00    -0.550 OA
ATOM     12  H   LIG    1        4.102  -3.140   1.976  0.00  0.00    +0.390 HD
ENDBRANCH   7  11
BRANCH   6  13
ATOM     13  C   LIG    1        4.400   0.226   1.237  0.00  0.00    +0.230 C 
BRANCH  13  14
ATOM     14  O   LIG    1        3.391   1.051   1.823  0.00  0.00    -0.540 OA
ATOM     15  H   LIG    1        2.777   1.436   1.183  0.00  0.00    +0.380 HD
ENDBRANCH  13  14
BRANCH  13  16
ATOM     16  C   LIG    1        5.232   1.057   0.258  0.00  0.00    +0.160 C 
BRANCH  16  17
ATOM     17  O   LIG    1        5.941   2.069   0.975  0.00  0.00    -0.570 OA
ATOM     18  H   LIG    1        6.491   2.635   0.416  0.00  0.00    +0.380 HD
ENDBRANCH  16  17
ENDBRANCH  13  16
ENDBRANCH   6  13
TORSDOF 5
ENDMDL
MODEL      216
REMARK  Name = ZINC000000052917
REMARK                            x       y       z     vdW  Elec       q    Type
REMARK                         _______ _______ _______ _____ _____    ______ ____
ROOT
ATOM      1  C   LIG    1       -0.067   1.542  -0.085  0.00  0.00    +0.140 C 
ATOM      2  C   LIG    1       -0.016   0.036  -0.079  0.00  0.00    +0.550 C 
ATOM      3  N   LIG    1       -1.159  -0.677  -0.035  0.00  0.00    -0.600 N 
ATOM      4  C   LIG    1       -2.394  -0.161  -0.001  0.00  0.00    +0.700 C 
ATOM      5  N   LIG    1       -3.366  -1.082   0.038  0.00  0.00    -0.600 N 
ATOM      6  C   LIG    1       -2.762  -2.423   0.032  0.00  0.00    +0.430 C 
ATOM      7  C   LIG    1       -4.688  -0.821   0.078  0.00  0.00    +0.530 C 
ATOM      8  O   LIG    1       -5.077   0.323   0.179  0.00  0.00    -0.460 OA
ATOM      9  C   LIG    1       -5.682  -1.951  -0.004  0.00  0.00    +0.140 C 
ATOM     10  O   LIG    1       -2.614   1.034  -0.006  0.00  0.00    -0.490 OA
ATOM     11  C   LIG    1       -1.247  -2.145  -0.025  0.00  0.00    +0.430 C 
ATOM     12  O   LIG    1        1.054  -0.534  -0.113  0.00  0.00    -0.500 OA
ENDROOT
BRANCH   6  13
ATOM     13  O   LIG    1       -3.105  -3.133   1.224  0.00  0.00    -0.540 OA
ATOM     14  H   LIG    1       -4.045  -3.345   1.299  0.00  0.00    +0.400 HD
ENDBRANCH   6  13
BRANCH  11  15
ATOM     15  O   LIG    1       -0.680  -2.700  -1.213  0.00  0.00    -0.540 OA
ATOM     16  H   LIG    1        0.272  -2.555  -1.299  0.00  0.00    +0.410 HD
ENDBRANCH  11  15
TORSDOF 2
ENDMDL
MODEL      217
REMARK  Name = ZINC000003983907
REMARK                            x       y       z     vdW  Elec       q    Type
REMARK                         _______ _______ _______ _____ _____    ______ ____
ROOT
ATOM      1  C   LIG    1       -1.136  -2.159   0.001  0.00  0.00    +0.240 C 
ATOM      2  C   LIG    1       -0.993  -2.676   1.435  0.00  0.00    +0.320 C 
ATOM      3  O   LIG    1       -1.032  -4.105   1.430  0.00  0.00    -0.390 OA
ATOM      4  C   LIG    1       -2.252  -4.653   0.927  0.00  0.00    +0.150 C 
ATOM      5  C   LIG    1       -2.446  -4.215  -0.526  0.00  0.00    +0.130 C 
ATOM      6  C   LIG    1       -2.444  -2.685  -0.596  0.00  0.00    +0.180 C 
ENDROOT
BRANCH   1   9
ATOM      7  C   LIG    1       -0.018   1.503   0.010  0.00  0.00    +0.100 C 
ATOM      8  C   LIG    1        0.002  -0.004   0.002  0.00  0.00    +0.510 C 
ATOM      9  N   LIG    1       -1.156  -0.694   0.009  0.00  0.00    -0.720 N 
ATOM     10  H   LIG    1       -2.002  -0.220   0.020  0.00  0.00    +0.400 HD
ATOM     11  O   LIG    1        1.060  -0.596  -0.011  0.00  0.00    -0.520 OA
ENDBRANCH   1   9
BRANCH   5  12
ATOM     12  O   LIG    1       -3.692  -4.716  -1.014  0.00  0.00    -0.560 OA
ATOM     13  H   LIG    1       -3.763  -5.680  -0.995  0.00  0.00    +0.390 HD
ENDBRANCH   5  12
BRANCH   2  14
ATOM     14  O   LIG    1        0.253  -2.235   1.979  0.00  0.00    -0.520 OA
ATOM     15  H   LIG    1        0.411  -2.527   2.887  0.00  0.00    +0.390 HD
ENDBRANCH   2  14
BRANCH   6  16
ATOM     16  O   LIG    1       -2.553  -2.268  -1.959  0.00  0.00    -0.550 OA
ATOM     17  H   LIG    1       -3.358  -2.573  -2.400  0.00  0.00    +0.390 HD
ENDBRANCH   6  16
BRANCH   4  18
ATOM     18  C   LIG    1       -2.191  -6.181   0.997  0.00  0.00    +0.200 C 
BRANCH  18  19
ATOM     19  O   LIG    1       -2.126  -6.593   2.363  0.00  0.00    -0.560 OA
ATOM     20  H   LIG    1       -2.085  -7.552   2.483  0.00  0.00    +0.390 HD
ENDBRANCH  18  19
ENDBRANCH   4  18
TORSDOF 6
ENDMDL
MODEL      218
REMARK  Name = ZINC000003861733
REMARK                            x       y       z     vdW  Elec       q    Type
REMARK                         _______ _______ _______ _____ _____    ______ ____
ROOT
ATOM      1  C   LIG    1       -1.136  -2.159   0.001  0.00  0.00    +0.260 C 
ATOM      2  C   LIG    1       -0.993  -2.676   1.435  0.00  0.00    +0.310 C 
ATOM      3  O   LIG    1       -1.032  -4.105   1.430  0.00  0.00    -0.380 OA
ATOM      4  C   LIG    1       -2.252  -4.653   0.927  0.00  0.00    +0.150 C 
ATOM      5  C   LIG    1       -2.446  -4.215  -0.526  0.00  0.00    +0.130 C 
ATOM      6  C   LIG    1       -2.444  -2.685  -0.596  0.00  0.00    +0.190 C 
ENDROOT
BRANCH   1   9
ATOM      7  C   LIG    1       -0.018   1.503   0.010  0.00  0.00    +0.100 C 
ATOM      8  C   LIG    1        0.002  -0.004   0.002  0.00  0.00    +0.510 C 
ATOM      9  N   LIG    1       -1.156  -0.694   0.009  0.00  0.00    -0.720 N 
ATOM     10  H   LIG    1       -2.002  -0.220   0.020  0.00  0.00    +0.400 HD
ATOM     11  O   LIG    1        1.060  -0.596  -0.011  0.00  0.00    -0.520 OA
ENDBRANCH   1   9
BRANCH   5  12
ATOM     12  O   LIG    1       -1.379  -4.731  -1.327  0.00  0.00    -0.540 OA
ATOM     13  H   LIG    1       -1.318  -5.696  -1.326  0.00  0.00    +0.380 HD
ENDBRANCH   5  12
BRANCH   2  14
ATOM     14  O   LIG    1        0.253  -2.235   1.979  0.00  0.00    -0.520 OA
ATOM     15  H   LIG    1        0.411  -2.527   2.887  0.00  0.00    +0.380 HD
ENDBRANCH   2  14
BRANCH   6  16
ATOM     16  O   LIG    1       -2.553  -2.268  -1.959  0.00  0.00    -0.540 OA
ATOM     17  H   LIG    1       -3.358  -2.573  -2.400  0.00  0.00    +0.380 HD
ENDBRANCH   6  16
BRANCH   4  18
ATOM     18  C   LIG    1       -2.191  -6.181   0.997  0.00  0.00    +0.210 C 
BRANCH  18  19
ATOM     19  O   LIG    1       -2.126  -6.593   2.363  0.00  0.00    -0.560 OA
ATOM     20  H   LIG    1       -2.085  -7.552   2.483  0.00  0.00    +0.390 HD
ENDBRANCH  18  19
ENDBRANCH   4  18
TORSDOF 6
ENDMDL
MODEL      219
REMARK  Name = ZINC000003881902
REMARK                            x       y       z     vdW  Elec       q    Type
REMARK                         _______ _______ _______ _____ _____    ______ ____
ROOT
ATOM      1  C   LIG    1       -1.136  -2.159   0.001  0.00  0.00    +0.260 C 
ATOM      2  C   LIG    1       -0.993  -2.676   1.435  0.00  0.00    +0.350 C 
ATOM      3  O   LIG    1       -1.032  -4.105   1.430  0.00  0.00    -0.380 OA
ATOM      4  C   LIG    1       -2.252  -4.653   0.927  0.00  0.00    +0.150 C 
ATOM      5  C   LIG    1       -2.446  -4.215  -0.526  0.00  0.00    +0.130 C 
ATOM      6  C   LIG    1       -2.444  -2.685  -0.596  0.00  0.00    +0.180 C 
ENDROOT
BRANCH   1   9
ATOM      7  C   LIG    1       -0.018   1.503   0.010  0.00  0.00    +0.100 C 
ATOM      8  C   LIG    1        0.002  -0.004   0.002  0.00  0.00    +0.510 C 
ATOM      9  N   LIG    1       -1.156  -0.694   0.009  0.00  0.00    -0.710 N 
ATOM     10  H   LIG    1       -2.002  -0.220   0.020  0.00  0.00    +0.410 HD
ATOM     11  O   LIG    1        1.060  -0.596  -0.011  0.00  0.00    -0.550 OA
ENDBRANCH   1   9
BRANCH   5  12
ATOM     12  O   LIG    1       -3.692  -4.716  -1.014  0.00  0.00    -0.560 OA
ATOM     13  H   LIG    1       -3.763  -5.680  -0.995  0.00  0.00    +0.390 HD
ENDBRANCH   5  12
BRANCH   2  14
ATOM     14  O   LIG    1       -2.066  -2.172   2.233  0.00  0.00    -0.550 OA
ATOM     15  H   LIG    1       -2.039  -2.461   3.155  0.00  0.00    +0.380 HD
ENDBRANCH   2  14
BRANCH   6  16
ATOM     16  O   LIG    1       -3.551  -2.172   0.148  0.00  0.00    -0.540 OA
ATOM     17  H   LIG    1       -4.413  -2.471  -0.171  0.00  0.00    +0.380 HD
ENDBRANCH   6  16
BRANCH   4  18
ATOM     18  C   LIG    1       -2.191  -6.181   0.997  0.00  0.00    +0.200 C 
BRANCH  18  19
ATOM     19  O   LIG    1       -2.126  -6.593   2.363  0.00  0.00    -0.560 OA
ATOM     20  H   LIG    1       -2.085  -7.552   2.483  0.00  0.00    +0.380 HD
ENDBRANCH  18  19
ENDBRANCH   4  18
TORSDOF 6
ENDMDL
MODEL      220
REMARK  Name = ZINC000005915162
REMARK                            x       y       z     vdW  Elec       q    Type
REMARK                         _______ _______ _______ _____ _____    ______ ____
ROOT
ATOM      1  C   LIG    1       -0.019   1.526   0.010  0.00  0.00    +0.080 C 
ATOM      2  C   LIG    1        0.002  -0.004   0.002  0.00  0.00    +0.250 C 
ATOM      3  O   LIG    1        0.704  -0.474  -1.158  0.00  0.00    -0.350 OA
ATOM      4  C   LIG    1        1.289  -1.734  -0.773  0.00  0.00    +0.350 C 
ATOM      5  O   LIG    1        0.280  -2.756  -0.932  0.00  0.00    -0.360 OA
ATOM      6  C   LIG    1        0.540  -3.738   0.090  0.00  0.00    +0.100 C 
ATOM      7  C   LIG    1        0.931  -2.915   1.337  0.00  0.00    +0.160 C 
ATOM      8  C   LIG    1        1.505  -1.593   0.755  0.00  0.00    +0.160 C 
ATOM      9  C   LIG    1       -1.431  -0.541  -0.006  0.00  0.00    +0.040 C 
ATOM     10  O   LIG    1        0.694  -0.486   1.160  0.00  0.00    -0.340 OA
ENDROOT
BRANCH   7  11
ATOM     11  O   LIG    1       -0.216  -2.661   2.150  0.00  0.00    -0.530 OA
ATOM     12  H   LIG    1       -0.641  -3.460   2.492  0.00  0.00    +0.390 HD
ENDBRANCH   7  11
BRANCH   6  13
ATOM     13  C   LIG    1       -0.717  -4.565   0.368  0.00  0.00    +0.230 C 
BRANCH  13  14
ATOM     14  O   LIG    1       -0.448  -5.508   1.407  0.00  0.00    -0.540 OA
ATOM     15  H   LIG    1        0.263  -6.130   1.198  0.00  0.00    +0.380 HD
ENDBRANCH  13  14
BRANCH  13  16
ATOM     16  C   LIG    1       -1.129  -5.310  -0.904  0.00  0.00    +0.170 C 
BRANCH  16  17
ATOM     17  O   LIG    1       -2.366  -5.988  -0.679  0.00  0.00    -0.560 OA
ATOM     18  H   LIG    1       -2.688  -6.483  -1.445  0.00  0.00    +0.380 HD
ENDBRANCH  16  17
ENDBRANCH  13  16
ENDBRANCH   6  13
TORSDOF 5
ENDMDL
MODEL      221
REMARK  Name = ZINC000013509963
REMARK                            x       y       z     vdW  Elec       q    Type
REMARK                         _______ _______ _______ _____ _____    ______ ____
ROOT
ATOM      1  C   LIG    1       -0.018   1.503   0.010  0.00  0.00    +0.150 C 
ATOM      2  C   LIG    1        0.002  -0.004   0.002  0.00  0.00    +0.230 A 
ATOM      3  C   LIG    1       -1.157  -0.704   0.004  0.00  0.00    -0.170 A 
ATOM      4  C   LIG    1       -1.104  -2.113  -0.004  0.00  0.00    +0.500 A 
ATOM      5  N   LIG    1        0.073  -2.725  -0.013  0.00  0.00    -0.620 NA
ATOM      6  C   LIG    1        1.205  -2.022  -0.015  0.00  0.00    +0.660 A 
ATOM      7  O   LIG    1        2.275  -2.608  -0.023  0.00  0.00    -0.550 OA
ATOM      8  N   LIG    1        1.187  -0.677  -0.013  0.00  0.00    -0.650 N 
ATOM      9  H   LIG    1        2.022  -0.183  -0.014  0.00  0.00    +0.420 HD
ENDROOT
BRANCH   4  10
ATOM     10  N   LIG    1       -2.266  -2.849  -0.003  0.00  0.00    -0.560 N 
BRANCH  10  11
ATOM     11  C   LIG    1       -3.563  -2.170   0.006  0.00  0.00    +0.330 C 
BRANCH  11  12
ATOM     12  C   LIG    1       -4.021  -1.925  -1.433  0.00  0.00    +0.160 C 
BRANCH  12  13
ATOM     13  O   LIG    1       -4.256  -3.179  -2.078  0.00  0.00    -0.570 OA
ATOM     14  H   LIG    1       -4.550  -3.100  -2.996  0.00  0.00    +0.380 HD
ENDBRANCH  12  13
ENDBRANCH  11  12
ENDBRANCH  10  11
BRANCH  10  15
ATOM     15  C   LIG    1       -2.206  -4.313  -0.011  0.00  0.00    +0.320 C 
BRANCH  15  16
ATOM     16  C   LIG    1       -2.178  -4.831   1.428  0.00  0.00    +0.170 C 
BRANCH  16  17
ATOM     17  O   LIG    1       -3.411  -4.506   2.074  0.00  0.00    -0.570 OA
ATOM     18  H   LIG    1       -3.464  -4.805   2.993  0.00  0.00    +0.380 HD
ENDBRANCH  16  17
ENDBRANCH  15  16
ENDBRANCH  10  15
ENDBRANCH   4  10
TORSDOF 7
ENDMDL
MODEL      222
REMARK  Name = ZINC000618256963
REMARK                            x       y       z     vdW  Elec       q    Type
REMARK                         _______ _______ _______ _____ _____    ______ ____
ROOT
ATOM      1  C   LIG    1       -1.476  -3.349   0.302  0.00  0.00    +0.200 C 
ENDROOT
BRANCH   1   2
ATOM      2  N   LIG    1       -1.173  -4.650  -0.309  0.00  0.00    -0.530 NA
ATOM      3  C   LIG    1       -1.167  -4.556  -1.778  0.00  0.00    +0.170 C 
ATOM      4  C   LIG    1       -0.552  -5.834  -2.350  0.00  0.00    +0.270 C 
ATOM      5  N   LIG    1       -1.190  -7.005  -1.758  0.00  0.00    -0.720 N 
ATOM      6  H   LIG    1       -1.098  -7.860  -2.207  0.00  0.00    +0.400 HD
ATOM      7  C   LIG    1       -1.897  -6.953  -0.623  0.00  0.00    +0.520 C 
ATOM      8  O   LIG    1       -2.368  -7.980  -0.184  0.00  0.00    -0.550 OA
ATOM      9  C   LIG    1       -2.131  -5.674   0.130  0.00  0.00    +0.240 C 
ENDBRANCH   1   2
BRANCH   1  13
ATOM     10  C   LIG    1        0.694   1.171   0.759  0.00  0.00    +0.290 C 
ATOM     11  N   LIG    1        0.498  -0.266   0.551  0.00  0.00    -0.630 N 
ATOM     12  C   LIG    1       -0.810  -0.905   0.367  0.00  0.00    +0.270 C 
ATOM     13  C   LIG    1       -0.508  -2.294  -0.239  0.00  0.00    +0.000 C 
ATOM     14  C   LIG    1        0.931  -2.552   0.265  0.00  0.00    +0.070 C 
ATOM     15  C   LIG    1        1.494  -1.167   0.498  0.00  0.00    +0.510 C 
ATOM     16  O   LIG    1        2.672  -0.909   0.626  0.00  0.00    -0.530 OA
ENDBRANCH   1  13
TORSDOF 2
ENDMDL
MODEL      223
REMARK  Name = ZINC000002227500
REMARK                            x       y       z     vdW  Elec       q    Type
REMARK                         _______ _______ _______ _____ _____    ______ ____
ROOT
ATOM      1  N   LIG    1       -1.372  -0.511   0.012  0.00  0.00    -0.480 N 
ATOM      2  C   LIG    1       -2.188  -0.492   1.155  0.00  0.00    +0.320 A 
ATOM      3  N   LIG    1       -1.865  -0.349   2.397  0.00  0.00    -0.270 NA
ATOM      4  O   LIG    1       -3.060  -0.401   3.164  0.00  0.00    +0.050 OA
ATOM      5  N   LIG    1       -4.143  -0.589   2.264  0.00  0.00    -0.280 NA
ATOM      6  C   LIG    1       -3.656  -0.647   1.069  0.00  0.00    +0.320 A 
ATOM      7  N   LIG    1       -4.314  -0.823  -0.159  0.00  0.00    -0.480 N 
ATOM      8  C   LIG    1       -3.463  -1.217  -1.204  0.00  0.00    +0.320 A 
ATOM      9  N   LIG    1       -3.751  -1.745  -2.347  0.00  0.00    -0.270 NA
ATOM     10  O   LIG    1       -2.533  -1.956  -3.046  0.00  0.00    +0.050 OA
ATOM     11  N   LIG    1       -1.475  -1.503  -2.215  0.00  0.00    -0.280 NA
ATOM     12  C   LIG    1       -1.997  -1.056  -1.121  0.00  0.00    +0.320 A 
ENDROOT
BRANCH   1  13
ATOM     13  C   LIG    1        0.002  -0.004   0.002  0.00  0.00    +0.510 C 
BRANCH  13  14
ATOM     14  O   LIG    1       -0.017   1.425   0.010  0.00  0.00    -0.580 OA
ATOM     15  H   LIG    1        0.861   1.830   0.004  0.00  0.00    +0.410 HD
ENDBRANCH  13  14
ENDBRANCH   1  13
BRANCH   7  16
ATOM     16  C   LIG    1       -5.753  -0.614  -0.333  0.00  0.00    +0.510 C 
BRANCH  16  17
ATOM     17  O   LIG    1       -5.976   0.618  -1.022  0.00  0.00    -0.580 OA
ATOM     18  H   LIG    1       -6.909   0.822  -1.173  0.00  0.00    +0.410 HD
ENDBRANCH  16  17
ENDBRANCH   7  16
TORSDOF 4
ENDMDL
MODEL      224
REMARK  Name = ZINC000001438251
REMARK                            x       y       z     vdW  Elec       q    Type
REMARK                         _______ _______ _______ _____ _____    ______ ____
ROOT
ATOM      1  C   LIG    1       -1.995  -0.841  -1.174  0.00  0.00    +0.660 A 
ATOM      2  N   LIG    1       -1.346  -0.704  -2.326  0.00  0.00    -0.670 NA
ATOM      3  C   LIG    1       -1.946  -1.022  -3.469  0.00  0.00    +0.660 A 
ATOM      4  N   LIG    1       -3.195  -1.478  -3.460  0.00  0.00    -0.670 NA
ATOM      5  C   LIG    1       -3.844  -1.615  -2.308  0.00  0.00    +0.660 A 
ATOM      6  N   LIG    1       -3.242  -1.302  -1.165  0.00  0.00    -0.670 NA
ENDROOT
BRANCH   1   7
ATOM      7  N   LIG    1       -1.372  -0.511   0.012  0.00  0.00    -0.680 N 
ATOM      8  H   LIG    1       -1.845  -0.615   0.853  0.00  0.00    +0.420 HD
BRANCH   7   9
ATOM      9  C   LIG    1        0.002  -0.004   0.002  0.00  0.00    +0.460 C 
BRANCH   9  10
ATOM     10  O   LIG    1       -0.017   1.425   0.010  0.00  0.00    -0.590 OA
ATOM     11  H   LIG    1        0.861   1.830   0.004  0.00  0.00    +0.390 HD
ENDBRANCH   9  10
ENDBRANCH   7   9
ENDBRANCH   1   7
BRANCH   5  12
ATOM     12  N   LIG    1       -5.140  -2.087  -2.299  0.00  0.00    -0.680 N 
ATOM     13  H   LIG    1       -5.578  -2.320  -3.133  0.00  0.00    +0.420 HD
BRANCH  12  14
ATOM     14  C   LIG    1       -5.856  -2.239  -1.029  0.00  0.00    +0.460 C 
BRANCH  14  15
ATOM     15  O   LIG    1       -6.642  -1.071  -0.784  0.00  0.00    -0.590 OA
ATOM     16  H   LIG    1       -7.144  -1.101   0.042  0.00  0.00    +0.390 HD
ENDBRANCH  14  15
ENDBRANCH  12  14
ENDBRANCH   5  12
BRANCH   3  17
ATOM     17  N   LIG    1       -1.272  -0.880  -4.665  0.00  0.00    -0.680 N 
ATOM     18  H   LIG    1       -0.360  -0.548  -4.671  0.00  0.00    +0.420 HD
BRANCH  17  19
ATOM     19  C   LIG    1       -1.933  -1.231  -5.924  0.00  0.00    +0.460 C 
BRANCH  19  20
ATOM     20  O   LIG    1       -2.509  -0.058  -6.502  0.00  0.00    -0.590 OA
ATOM     21  H   LIG    1       -2.965  -0.215  -7.341  0.00  0.00    +0.390 HD
ENDBRANCH  19  20
ENDBRANCH  17  19
ENDBRANCH   3  17
TORSDOF 9
ENDMDL
MODEL      225
REMARK  Name = ZINC000026421499
REMARK                            x       y       z     vdW  Elec       q    Type
REMARK                         _______ _______ _______ _____ _____    ______ ____
ROOT
ATOM      1  C   LIG    1       -0.018   1.461   0.010  0.00  0.00    +0.350 C 
ATOM      2  N   LIG    1        0.002  -0.004   0.002  0.00  0.00    -0.560 N 
ATOM      3  C   LIG    1        0.005  -0.666  -1.177  0.00  0.00    +0.570 A 
ATOM      4  C   LIG    1        0.025  -2.129  -1.145  0.00  0.00    -0.370 A 
ATOM      5  C   LIG    1        0.040  -2.776   0.092  0.00  0.00    +0.460 A 
ATOM      6  N   LIG    1        0.035  -2.016   1.232  0.00  0.00    -0.540 N 
ATOM      7  C   LIG    1        0.050  -2.676   2.540  0.00  0.00    +0.350 C 
ATOM      8  N   LIG    1        0.058  -4.130   0.141  0.00  0.00    -0.590 N 
ATOM      9  H   LIG    1        0.069  -4.571   1.005  0.00  0.00    +0.420 HD
ATOM     10  C   LIG    1        0.063  -4.888  -0.987  0.00  0.00    +0.320 A 
ATOM     11  C   LIG    1        0.050  -4.346  -2.220  0.00  0.00    -0.090 A 
ATOM     12  C   LIG    1        0.030  -2.933  -2.366  0.00  0.00    +0.430 A 
ATOM     13  O   LIG    1        0.017  -2.411  -3.469  0.00  0.00    -0.470 OA
ATOM     14  O   LIG    1       -0.007  -0.063  -2.234  0.00  0.00    -0.470 OA
ATOM     15  C   LIG    1        0.022  -0.674   1.166  0.00  0.00    +0.710 A 
ATOM     16  O   LIG    1        0.019  -0.040   2.203  0.00  0.00    -0.530 OA
ENDROOT
TORSDOF 0
ENDMDL
MODEL      226
REMARK  Name = ZINC000037228427
REMARK                            x       y       z     vdW  Elec       q    Type
REMARK                         _______ _______ _______ _____ _____    ______ ____
ROOT
ATOM      1  N   LIG    1       -2.860  -2.307   0.119  0.00  0.00    -0.570 N 
ATOM      2  C   LIG    1       -4.008  -1.388   0.131  0.00  0.00    +0.270 C 
ATOM      3  C   LIG    1       -5.026  -1.868  -0.909  0.00  0.00    +0.180 C 
ATOM      4  N   LIG    1       -5.355  -3.277  -0.655  0.00  0.00    -0.520 NA
ATOM      5  C   LIG    1       -4.175  -4.137  -0.813  0.00  0.00    +0.190 C 
ATOM      6  C   LIG    1       -3.122  -3.751   0.225  0.00  0.00    +0.330 C 
ENDROOT
BRANCH   1   7
ATOM      7  C   LIG    1       -1.601  -1.839   0.007  0.00  0.00    +0.560 C 
ATOM      8  S   LIG    1       -0.292  -2.932  -0.146  0.00  0.00    -0.650 S 
BRANCH   7   9
ATOM      9  N   LIG    1       -1.372  -0.511   0.017  0.00  0.00    -0.690 N 
ATOM     10  H   LIG    1       -2.117   0.109   0.031  0.00  0.00    +0.390 HD
BRANCH   9  12
ATOM     11  C   LIG    1       -0.018   1.525   0.020  0.00  0.00    +0.030 C 
ATOM     12  C   LIG    1        0.003  -0.004   0.006  0.00  0.00    +0.300 C 
ENDBRANCH   9  12
ENDBRANCH   7   9
ENDBRANCH   1   7
BRANCH   4  13
ATOM     13  C   LIG    1       -6.453  -3.726  -1.521  0.00  0.00    +0.210 C 
BRANCH  13  14
ATOM     14  C   LIG    1       -6.926  -5.083  -1.069  0.00  0.00    +0.520 C 
ATOM     15  O   LIG    1       -6.401  -5.624  -0.119  0.00  0.00    -0.520 OA
ATOM     16  N   LIG    1       -7.934  -5.697  -1.721  0.00  0.00    -0.860 N 
ATOM     17  H   LIG    1       -8.238  -6.571  -1.430  0.00  0.00    +0.410 HD
ATOM     18  H   LIG    1       -8.354  -5.265  -2.481  0.00  0.00    +0.400 HD
ENDBRANCH  13  14
ENDBRANCH   4  13
TORSDOF 5
ENDMDL
MODEL      227
REMARK  Name = ZINC000154375551
REMARK                            x       y       z     vdW  Elec       q    Type
REMARK                         _______ _______ _______ _____ _____    ______ ____
ROOT
ATOM      1  C   LIG    1       -1.293  -0.775   0.010  0.00  0.00    +0.150 C 
ATOM      2  C   LIG    1       -2.056  -0.508  -1.292  0.00  0.00    +0.280 C 
ATOM      3  N   LIG    1       -3.217  -1.410  -1.343  0.00  0.00    -0.620 N 
ATOM      4  C   LIG    1       -2.990  -2.844  -1.106  0.00  0.00    +0.260 C 
ATOM      5  C   LIG    1       -2.180  -2.998   0.187  0.00  0.00    +0.230 C 
ATOM      6  C   LIG    1       -4.453  -0.937  -1.599  0.00  0.00    +0.530 C 
ATOM      7  O   LIG    1       -4.621   0.248  -1.792  0.00  0.00    -0.520 OA
ATOM      8  O   LIG    1       -1.015  -2.174   0.115  0.00  0.00    -0.350 OA
ENDROOT
BRANCH   6   9
ATOM      9  C   LIG    1       -5.627  -1.881  -1.646  0.00  0.00    +0.180 C 
ATOM     10  C   LIG    1       -6.085  -2.197  -0.220  0.00  0.00    -0.010 C 
ATOM     11  C   LIG    1       -7.289  -3.140  -0.274  0.00  0.00    +0.020 C 
ATOM     12  C   LIG    1       -8.405  -2.485  -1.093  0.00  0.00    -0.030 C 
ATOM     13  C   LIG    1       -7.880  -2.161  -2.493  0.00  0.00    +0.220 C 
ATOM     14  N   LIG    1       -6.729  -1.256  -2.388  0.00  0.00    -0.670 NA
ATOM     15  H   LIG    1       -6.996  -0.378  -1.967  0.00  0.00    +0.350 HD
ENDBRANCH   6   9
BRANCH   1  19
ATOM     16  N   LIG    1       -0.016   1.344   0.009  0.00  0.00    -0.850 N 
ATOM     17  H   LIG    1       -0.863   1.817   0.016  0.00  0.00    +0.400 HD
ATOM     18  H   LIG    1        0.817   1.840   0.004  0.00  0.00    +0.410 HD
ATOM     19  C   LIG    1        0.002  -0.004   0.002  0.00  0.00    +0.530 C 
ATOM     20  O   LIG    1        1.060  -0.596  -0.011  0.00  0.00    -0.510 OA
ENDBRANCH   1  19
TORSDOF 2
ENDMDL
MODEL      228
REMARK  Name = ZINC000040091359
REMARK                            x       y       z     vdW  Elec       q    Type
REMARK                         _______ _______ _______ _____ _____    ______ ____
ROOT
ATOM      1  N   LIG    1        0.711  -0.489   1.189  0.00  0.00    -0.990 NA
ENDROOT
BRANCH   1   2
ATOM      2  S   LIG    1        2.322  -0.861   1.097  0.00  0.00    +2.780 S 
ATOM      3  O   LIG    1        2.591  -1.147  -0.269  0.00  0.00    -0.970 OA
ATOM      4  O   LIG    1        2.582  -1.780   2.150  0.00  0.00    -0.970 OA
BRANCH   2   5
ATOM      5  N   LIG    1        3.164   0.518   1.460  0.00  0.00    -1.010 NA
ATOM      6  C   LIG    1        3.541   1.448   0.394  0.00  0.00    +0.290 C 
ATOM      7  C   LIG    1        3.533   0.807   2.849  0.00  0.00    +0.290 C 
ENDBRANCH   2   5
ENDBRANCH   1   2
BRANCH   1   9
ATOM      8  C   LIG    1       -0.019   1.526   0.010  0.00  0.00    +0.010 C 
ATOM      9  C   LIG    1        0.002  -0.004   0.002  0.00  0.00    +0.290 C 
ENDBRANCH   1   9
BRANCH   1  10
ATOM     10  C   LIG    1       -0.006  -0.646   2.457  0.00  0.00    +0.330 C 
BRANCH  10  11
ATOM     11  C   LIG    1       -0.683  -1.992   2.488  0.00  0.00    +0.490 C 
ATOM     12  N   LIG    1       -1.406  -2.358   3.565  0.00  0.00    -0.740 N 
ATOM     13  H   LIG    1       -1.491  -1.754   4.320  0.00  0.00    +0.400 HD
ATOM     14  C   LIG    1       -2.064  -3.666   3.596  0.00  0.00    +0.290 C 
ATOM     15  O   LIG    1       -0.577  -2.746   1.544  0.00  0.00    -0.520 OA
ENDBRANCH  10  11
ENDBRANCH   1  10
TORSDOF 5
ENDMDL
MODEL      229
REMARK  Name = ZINC000005224402
REMARK                            x       y       z     vdW  Elec       q    Type
REMARK                         _______ _______ _______ _____ _____    ______ ____
ROOT
ATOM      1  C   LIG    1       -0.019   1.526   0.010  0.00  0.00    +0.050 C 
ATOM      2  C   LIG    1        0.002  -0.004   0.002  0.00  0.00    +0.250 C 
ATOM      3  O   LIG    1        0.689  -0.472  -1.170  0.00  0.00    -0.350 OA
ATOM      4  C   LIG    1        2.053  -0.691  -0.744  0.00  0.00    +0.370 C 
ATOM      5  O   LIG    1        2.712   0.573  -0.614  0.00  0.00    -0.360 OA
ATOM      6  C   LIG    1        3.365   0.672   0.656  0.00  0.00    +0.120 C 
ATOM      7  C   LIG    1        3.106  -0.644   1.418  0.00  0.00    +0.170 C 
ATOM      8  C   LIG    1        1.843  -1.224   0.709  0.00  0.00    +0.160 C 
ATOM      9  C   LIG    1       -1.432  -0.538   0.002  0.00  0.00    +0.080 C 
ATOM     10  O   LIG    1        0.695  -0.483   1.162  0.00  0.00    -0.350 OA
ENDROOT
BRANCH   7  11
ATOM     11  O   LIG    1        2.848  -0.386   2.800  0.00  0.00    -0.530 OA
ATOM     12  H   LIG    1        3.582   0.039   3.265  0.00  0.00    +0.380 HD
ENDBRANCH   7  11
BRANCH   6  13
ATOM     13  C   LIG    1        4.868   0.868   0.453  0.00  0.00    +0.210 C 
BRANCH  13  14
ATOM     14  O   LIG    1        5.516   0.932   1.725  0.00  0.00    -0.540 OA
ATOM     15  H   LIG    1        5.208   1.655   2.288  0.00  0.00    +0.380 HD
ENDBRANCH  13  14
BRANCH  13  16
ATOM     16  C   LIG    1        5.114   2.171  -0.311  0.00  0.00    +0.170 C 
BRANCH  16  17
ATOM     17  O   LIG    1        6.507   2.297  -0.602  0.00  0.00    -0.570 OA
ATOM     18  H   LIG    1        6.737   3.102  -1.086  0.00  0.00    +0.380 HD
ENDBRANCH  16  17
ENDBRANCH  13  16
ENDBRANCH   6  13
TORSDOF 5
ENDMDL
MODEL      230
REMARK  Name = ZINC000005191266
REMARK                            x       y       z     vdW  Elec       q    Type
REMARK                         _______ _______ _______ _____ _____    ______ ____
ROOT
ATOM      1  C   LIG    1       -0.019   1.526   0.010  0.00  0.00    +0.070 C 
ATOM      2  C   LIG    1        0.002  -0.004   0.002  0.00  0.00    +0.250 C 
ATOM      3  O   LIG    1        0.685  -0.481  -1.194  0.00  0.00    -0.350 OA
ATOM      4  C   LIG    1        2.022  -0.646  -0.743  0.00  0.00    +0.100 C 
ATOM      5  C   LIG    1        2.919  -1.719  -1.348  0.00  0.00    +0.190 C 
ATOM      6  C   LIG    1        3.575  -2.368  -0.096  0.00  0.00    +0.130 C 
ATOM      7  O   LIG    1        2.958  -1.746   1.071  0.00  0.00    -0.330 OA
ATOM      8  C   LIG    1        1.701  -1.337   0.635  0.00  0.00    +0.280 C 
ATOM      9  C   LIG    1       -1.430  -0.541   0.030  0.00  0.00    +0.090 C 
ATOM     10  O   LIG    1        0.735  -0.493   1.161  0.00  0.00    -0.340 OA
ENDROOT
BRANCH   5  11
ATOM     11  O   LIG    1        3.909  -1.131  -2.195  0.00  0.00    -0.540 OA
ATOM     12  H   LIG    1        4.506  -1.772  -2.605  0.00  0.00    +0.390 HD
ENDBRANCH   5  11
BRANCH   6  13
ATOM     13  C   LIG    1        5.082  -2.103  -0.097  0.00  0.00    +0.240 C 
BRANCH  13  14
ATOM     14  O   LIG    1        5.663  -2.663  -1.276  0.00  0.00    -0.540 OA
ATOM     15  H   LIG    1        5.542  -3.619  -1.358  0.00  0.00    +0.380 HD
ENDBRANCH  13  14
BRANCH  13  16
ATOM     16  C   LIG    1        5.714  -2.747   1.139  0.00  0.00    +0.170 C 
BRANCH  16  17
ATOM     17  O   LIG    1        7.099  -2.402   1.200  0.00  0.00    -0.560 OA
ATOM     18  H   LIG    1        7.565  -2.776   1.960  0.00  0.00    +0.380 HD
ENDBRANCH  16  17
ENDBRANCH  13  16
ENDBRANCH   6  13
TORSDOF 5
ENDMDL
MODEL      231
REMARK  Name = ZINC000019168859
REMARK                            x       y       z     vdW  Elec       q    Type
REMARK                         _______ _______ _______ _____ _____    ______ ____
ROOT
ATOM      1  C   LIG    1       -0.017   1.429   0.010  0.00  0.00    +0.230 C 
ATOM      2  C   LIG    1        1.431   1.916  -0.001  0.00  0.00    +0.170 C 
ATOM      3  N   LIG    1        2.156   1.365  -1.152  0.00  0.00    -0.380 NA
ATOM      4  C   LIG    1        3.584   1.695  -1.012  0.00  0.00    +0.400 C 
ATOM      5  N   LIG    1        4.425   0.935  -1.888  0.00  0.00    -0.490 NA
ATOM      6  C   LIG    1        5.603   1.635  -2.413  0.00  0.00    +0.430 C 
ATOM      7  O   LIG    1        6.581   0.639  -2.751  0.00  0.00    -0.380 OA
ATOM      8  C   LIG    1        6.122  -0.346  -3.678  0.00  0.00    +0.230 C 
ATOM      9  C   LIG    1        4.847  -1.017  -3.152  0.00  0.00    +0.160 C 
ATOM     10  N   LIG    1        3.858   0.058  -2.878  0.00  0.00    -0.340 NA
ATOM     11  C   LIG    1        2.550  -0.504  -2.574  0.00  0.00    +0.370 C 
ATOM     12  N   LIG    1        2.026  -0.083  -1.265  0.00  0.00    -0.410 NA
ATOM     13  C   LIG    1        0.630  -0.532  -1.163  0.00  0.00    +0.380 C 
ATOM     14  O   LIG    1        0.002  -0.004   0.002  0.00  0.00    -0.370 OA
ENDROOT
TORSDOF 0
ENDMDL
MODEL      232
REMARK  Name = ZINC000005227259
REMARK                            x       y       z     vdW  Elec       q    Type
REMARK                         _______ _______ _______ _____ _____    ______ ____
ROOT
ATOM      1  C   LIG    1       -0.019   1.526   0.010  0.00  0.00    +0.040 C 
ATOM      2  C   LIG    1        0.002  -0.004   0.002  0.00  0.00    +0.250 C 
ATOM      3  O   LIG    1        0.689  -0.472  -1.170  0.00  0.00    -0.360 OA
ATOM      4  C   LIG    1        2.053  -0.691  -0.744  0.00  0.00    +0.370 C 
ATOM      5  O   LIG    1        2.712   0.573  -0.614  0.00  0.00    -0.370 OA
ATOM      6  C   LIG    1        3.365   0.672   0.656  0.00  0.00    +0.120 C 
ATOM      7  C   LIG    1        3.106  -0.644   1.418  0.00  0.00    +0.180 C 
ATOM      8  C   LIG    1        1.843  -1.224   0.709  0.00  0.00    +0.160 C 
ATOM      9  C   LIG    1       -1.432  -0.538   0.002  0.00  0.00    +0.080 C 
ATOM     10  O   LIG    1        0.695  -0.483   1.162  0.00  0.00    -0.350 OA
ENDROOT
BRANCH   7  11
ATOM     11  O   LIG    1        2.848  -0.386   2.800  0.00  0.00    -0.530 OA
ATOM     12  H   LIG    1        3.582   0.039   3.265  0.00  0.00    +0.380 HD
ENDBRANCH   7  11
BRANCH   6  13
ATOM     13  C   LIG    1        4.868   0.868   0.453  0.00  0.00    +0.220 C 
BRANCH  13  14
ATOM     14  O   LIG    1        5.416  -0.283  -0.193  0.00  0.00    -0.550 OA
ATOM     15  H   LIG    1        5.032  -0.466  -1.062  0.00  0.00    +0.380 HD
ENDBRANCH  13  14
BRANCH  13  16
ATOM     16  C   LIG    1        5.108   2.104  -0.417  0.00  0.00    +0.160 C 
BRANCH  16  17
ATOM     17  O   LIG    1        6.512   2.355  -0.510  0.00  0.00    -0.570 OA
ATOM     18  H   LIG    1        6.739   3.126  -1.048  0.00  0.00    +0.380 HD
ENDBRANCH  16  17
ENDBRANCH  13  16
ENDBRANCH   6  13
TORSDOF 5
ENDMDL
MODEL      233
REMARK  Name = ZINC000005197896
REMARK                            x       y       z     vdW  Elec       q    Type
REMARK                         _______ _______ _______ _____ _____    ______ ____
ROOT
ATOM      1  C   LIG    1       -2.404  -4.193  -0.527  0.00  0.00    +0.260 C 
ENDROOT
BRANCH   1   3
ATOM      2  C   LIG    1       -1.312  -2.034  -0.243  0.00  0.00    +0.520 C 
ATOM      3  N   LIG    1       -2.453  -2.750  -0.279  0.00  0.00    -0.730 N 
ATOM      4  H   LIG    1       -3.306  -2.311  -0.140  0.00  0.00    +0.400 HD
ATOM      5  O   LIG    1       -0.245  -2.583  -0.416  0.00  0.00    -0.520 OA
BRANCH   2   6
ATOM      6  C   LIG    1       -1.362  -0.549   0.012  0.00  0.00    +0.210 C 
BRANCH   6   8
ATOM      7  C   LIG    1       -0.018   1.465   0.010  0.00  0.00    +0.190 C 
ATOM      8  N   LIG    1        0.002  -0.004   0.002  0.00  0.00    -0.530 NA
ATOM      9  C   LIG    1        0.786  -0.526   1.129  0.00  0.00    +0.200 C 
ENDBRANCH   6   8
ENDBRANCH   2   6
ENDBRANCH   1   3
BRANCH   1  10
ATOM     10  C   LIG    1       -3.825  -4.761  -0.516  0.00  0.00    +0.260 C 
BRANCH  10  11
ATOM     11  N   LIG    1       -3.776  -6.204  -0.764  0.00  0.00    -0.730 N 
ATOM     12  H   LIG    1       -2.922  -6.644  -0.903  0.00  0.00    +0.400 HD
ATOM     13  C   LIG    1       -4.917  -6.920  -0.800  0.00  0.00    +0.520 C 
ATOM     14  O   LIG    1       -5.984  -6.371  -0.627  0.00  0.00    -0.520 OA
BRANCH  13  15
ATOM     15  C   LIG    1       -4.866  -8.405  -1.055  0.00  0.00    +0.210 C 
BRANCH  15  16
ATOM     16  N   LIG    1       -6.230  -8.950  -1.045  0.00  0.00    -0.530 NA
ATOM     17  C   LIG    1       -6.829  -8.845   0.292  0.00  0.00    +0.200 C 
ATOM     18  C   LIG    1       -6.246 -10.339  -1.522  0.00  0.00    +0.190 C 
ENDBRANCH  15  16
ENDBRANCH  13  15
ENDBRANCH  10  11
ENDBRANCH   1  10
TORSDOF 7
ENDMDL
MODEL      234
REMARK  Name = ZINC000005274097
REMARK                            x       y       z     vdW  Elec       q    Type
REMARK                         _______ _______ _______ _____ _____    ______ ____
ROOT
ATOM      1  C   VAL A  1       -1.413  -2.041   0.005  0.00  0.00    +0.500 C 
ATOM      2  N   THR A  2       -1.212  -2.705  -1.150  0.00  0.00    -0.660 N 
ATOM      3  H   THR A  2       -1.081  -2.214  -1.976  0.00  0.00    +0.400 HD
ATOM      4  O   VAL A  1       -1.577  -2.655   1.037  0.00  0.00    -0.540 OA
ENDROOT
BRANCH   1   5
ATOM      5  CA  VAL A  1       -1.433  -0.534   0.013  0.00  0.00    +0.170 C 
BRANCH   5   6
ATOM      6  N   VAL A  1       -2.121  -0.060   1.222  0.00  0.00    -0.620 N 
ATOM      7  H1  VAL A  1       -1.633  -0.394   2.039  0.00  0.00    +0.440 HD
ATOM      8  H2  VAL A  1       -3.067  -0.409   1.229  0.00  0.00    +0.440 HD
ATOM      9  H3  VAL A  1       -2.135   0.949   1.227  0.00  0.00    +0.430 HD
ENDBRANCH   5   6
BRANCH   5  11
ATOM     10  CG1 VAL A  1       -0.019   1.526   0.010  0.00  0.00    +0.050 C 
ATOM     11  CB  VAL A  1        0.002  -0.004   0.002  0.00  0.00    +0.010 C 
ATOM     12  CG2 VAL A  1        0.742  -0.511   1.242  0.00  0.00    +0.040 C 
ENDBRANCH   5  11
ENDBRANCH   1   5
BRANCH   2  13
ATOM     13  CA  THR A  2       -1.192  -4.170  -1.159  0.00  0.00    +0.130 C 
BRANCH  13  14
ATOM     14  C   THR A  2       -2.602  -4.691  -1.272  0.00  0.00    +0.490 C 
ATOM     15  OXT THR A  2       -2.827  -5.879  -1.113  0.00  0.00    -0.670 OA
ATOM     16  O   THR A  2       -3.517  -3.925  -1.522  0.00  0.00    -0.680 OA
ENDBRANCH  13  14
BRANCH  13  17
ATOM     17  CB  THR A  2       -0.369  -4.662  -2.351  0.00  0.00    +0.200 C 
ATOM     18  CG2 THR A  2       -0.244  -6.186  -2.289  0.00  0.00    +0.020 C 
BRANCH  17  19
ATOM     19  OG1 THR A  2       -1.020  -4.287  -3.566  0.00  0.00    -0.570 OA
ATOM     20  HG1 THR A  2       -1.910  -4.650  -3.664  0.00  0.00    +0.390 HD
ENDBRANCH  17  19
ENDBRANCH  13  17
ENDBRANCH   2  13
TORSDOF 7
ENDMDL
MODEL      235
REMARK  Name = ZINC000016052637
REMARK                            x       y       z     vdW  Elec       q    Type
REMARK                         _______ _______ _______ _____ _____    ______ ____
ROOT
ATOM      1  C   LIG    1        0.857  -1.841   1.398  0.00  0.00    +0.440 C 
ATOM      2  N   LIG    1        1.454  -2.373   2.405  0.00  0.00    -0.600 NA
ATOM      3  C   LIG    1        1.579  -3.824   2.485  0.00  0.00    +0.200 C 
ATOM      4  C   LIG    1        0.827  -4.486   1.354  0.00  0.00    +0.260 C 
ATOM      5  O   LIG    1        1.416  -5.503   0.623  0.00  0.00    -0.320 OA
ATOM      6  C   LIG    1        2.816  -5.668   0.589  0.00  0.00    +0.140 C 
ATOM      7  C   LIG    1        3.419  -5.505   1.973  0.00  0.00    +0.130 C 
ATOM      8  C   LIG    1        3.045  -4.189   2.581  0.00  0.00    +0.200 C 
ATOM      9  S   LIG    1        0.244  -3.108   0.325  0.00  0.00    -0.210 S 
ENDROOT
BRANCH   1  10
ATOM     10  N   LIG    1        0.711  -0.489   1.189  0.00  0.00    -0.690 N 
ATOM     11  H   LIG    1        1.077   0.142   1.827  0.00  0.00    +0.410 HD
BRANCH  10  13
ATOM     12  C   LIG    1       -0.019   1.526   0.010  0.00  0.00    +0.060 C 
ATOM     13  C   LIG    1        0.002  -0.004   0.002  0.00  0.00    +0.260 C 
ENDBRANCH  10  13
ENDBRANCH   1  10
BRANCH   7  14
ATOM     14  O   LIG    1        4.842  -5.594   1.877  0.00  0.00    -0.550 OA
ATOM     15  H   LIG    1        5.160  -6.435   1.521  0.00  0.00    +0.390 HD
ENDBRANCH   7  14
BRANCH   8  16
ATOM     16  O   LIG    1        3.413  -4.207   3.962  0.00  0.00    -0.550 OA
ATOM     17  H   LIG    1        4.357  -4.344   4.115  0.00  0.00    +0.390 HD
ENDBRANCH   8  16
BRANCH   6  18
ATOM     18  C   LIG    1        3.144  -7.066   0.061  0.00  0.00    +0.210 C 
BRANCH  18  19
ATOM     19  O   LIG    1        2.714  -7.176  -1.298  0.00  0.00    -0.560 OA
ATOM     20  H   LIG    1        2.891  -8.038  -1.698  0.00  0.00    +0.390 HD
ENDBRANCH  18  19
ENDBRANCH   6  18
TORSDOF 6
ENDMDL
MODEL      236
REMARK  Name = ZINC000253392654
REMARK                            x       y       z     vdW  Elec       q    Type
REMARK                         _______ _______ _______ _____ _____    ______ ____
ROOT
ATOM      1  N   LIG    1        0.903  -1.771   1.258  0.00  0.00    -0.490 NA
ENDROOT
BRANCH   1   2
ATOM      2  C   LIG    1        0.881  -2.426   2.573  0.00  0.00    +0.190 C 
ATOM      3  C   LIG    1        0.004  -3.695   2.533  0.00  0.00    +0.100 C 
ATOM      4  C   LIG    1        0.974  -4.807   2.869  0.00  0.00    +0.520 C 
ATOM      5  N   LIG    1        2.190  -4.286   3.068  0.00  0.00    -0.580 N 
ATOM      6  C   LIG    1        3.357  -5.103   3.412  0.00  0.00    +0.320 C 
ATOM      7  O   LIG    1        0.693  -5.984   2.945  0.00  0.00    -0.470 OA
ATOM      8  C   LIG    1        2.255  -2.952   2.929  0.00  0.00    +0.490 C 
ATOM      9  O   LIG    1        3.254  -2.280   3.065  0.00  0.00    -0.470 OA
ENDBRANCH   1   2
BRANCH   1  10
ATOM     10  C   LIG    1        1.647  -0.505   1.314  0.00  0.00    +0.180 C 
BRANCH  10  12
ATOM     11  C   LIG    1        1.973   1.717   0.220  0.00  0.00    +0.010 C 
ATOM     12  C   LIG    1        1.240   0.377   0.132  0.00  0.00    +0.030 C 
ENDBRANCH  10  12
ENDBRANCH   1  10
BRANCH   1  13
ATOM     13  C   LIG    1        1.461  -2.665   0.234  0.00  0.00    +0.190 C 
BRANCH  13  14
ATOM     14  C   LIG    1        0.881  -2.311  -1.111  0.00  0.00    +0.520 C 
ATOM     15  O   LIG    1       -0.015  -1.496  -1.190  0.00  0.00    -0.510 OA
ATOM     16  N   LIG    1        1.357  -2.898  -2.226  0.00  0.00    -0.860 N 
ATOM     17  H   LIG    1        0.984  -2.670  -3.092  0.00  0.00    +0.410 HD
ATOM     18  H   LIG    1        2.073  -3.550  -2.163  0.00  0.00    +0.400 HD
ENDBRANCH  13  14
ENDBRANCH   1  13
TORSDOF 5
ENDMDL
MODEL      237
REMARK  Name = ZINC000169783061
REMARK                            x       y       z     vdW  Elec       q    Type
REMARK                         _______ _______ _______ _____ _____    ______ ____
ROOT
ATOM      1  C   LIG    1       -2.883  -2.333   0.017  0.00  0.00    +0.510 C 
ATOM      2  N   LIG    1       -3.215  -3.639   0.013  0.00  0.00    -0.610 N 
ATOM      3  C   LIG    1       -2.135  -4.614   0.004  0.00  0.00    +0.310 C 
ATOM      4  C   LIG    1       -2.100  -5.378   1.336  0.00  0.00    +0.170 C 
ATOM      5  C   LIG    1       -3.226  -6.391   1.314  0.00  0.00    +0.270 A 
ATOM      6  N   LIG    1       -3.144  -7.673   1.286  0.00  0.00    -0.270 NA
ATOM      7  N   LIG    1       -4.447  -8.194   1.273  0.00  0.00    -0.550 N 
ATOM      8  H   LIG    1       -4.691  -9.133   1.253  0.00  0.00    +0.460 HD
ATOM      9  C   LIG    1       -5.302  -7.146   1.294  0.00  0.00    +0.650 A 
ATOM     10  O   LIG    1       -6.518  -7.207   1.288  0.00  0.00    -0.550 OA
ATOM     11  N   LIG    1       -4.563  -6.030   1.320  0.00  0.00    -0.560 N 
ATOM     12  C   LIG    1       -5.017  -4.631   1.354  0.00  0.00    +0.330 C 
ATOM     13  C   LIG    1       -4.628  -3.979   0.025  0.00  0.00    +0.290 C 
ATOM     14  O   LIG    1       -3.751  -1.486   0.030  0.00  0.00    -0.510 OA
ENDROOT
BRANCH   1  15
ATOM     15  C   LIG    1       -1.432  -1.925   0.005  0.00  0.00    +0.200 C 
BRANCH  15  16
ATOM     16  O   LIG    1       -1.339  -0.499   0.012  0.00  0.00    -0.370 OA
BRANCH  16  18
ATOM     17  C   LIG    1       -0.019   1.526   0.010  0.00  0.00    +0.060 C 
ATOM     18  C   LIG    1        0.002  -0.004   0.002  0.00  0.00    +0.160 C 
ENDBRANCH  16  18
ENDBRANCH  15  16
ENDBRANCH   1  15
TORSDOF 3
ENDMDL
MODEL      238
REMARK  Name = ZINC000253392650
REMARK                            x       y       z     vdW  Elec       q    Type
REMARK                         _______ _______ _______ _____ _____    ______ ____
ROOT
ATOM      1  N   LIG    1        0.775  -1.969   1.221  0.00  0.00    -0.490 NA
ENDROOT
BRANCH   1   2
ATOM      2  C   LIG    1        1.415  -2.394   2.473  0.00  0.00    +0.160 C 
ATOM      3  C   LIG    1        1.641  -3.919   2.478  0.00  0.00    +0.090 C 
ATOM      4  C   LIG    1        0.818  -4.396   3.654  0.00  0.00    +0.530 C 
ATOM      5  N   LIG    1        0.223  -3.345   4.231  0.00  0.00    -0.570 N 
ATOM      6  C   LIG    1       -0.648  -3.470   5.402  0.00  0.00    +0.320 C 
ATOM      7  O   LIG    1        0.714  -5.548   4.018  0.00  0.00    -0.480 OA
ATOM      8  C   LIG    1        0.491  -2.165   3.649  0.00  0.00    +0.540 C 
ATOM      9  O   LIG    1        0.058  -1.091   4.008  0.00  0.00    -0.470 OA
ENDBRANCH   1   2
BRANCH   1  10
ATOM     10  C   LIG    1        0.597  -0.511   1.189  0.00  0.00    +0.190 C 
BRANCH  10  12
ATOM     11  C   LIG    1       -0.473   1.387  -0.034  0.00  0.00    +0.020 C 
ATOM     12  C   LIG    1       -0.287  -0.132  -0.000  0.00  0.00    +0.010 C 
ENDBRANCH  10  12
ENDBRANCH   1  10
BRANCH   1  13
ATOM     13  C   LIG    1        1.540  -2.432   0.056  0.00  0.00    +0.260 C 
BRANCH  13  14
ATOM     14  C   LIG    1        2.906  -1.796   0.067  0.00  0.00    +0.490 C 
ATOM     15  O   LIG    1        3.249  -1.112   1.008  0.00  0.00    -0.540 OA
ATOM     16  N   LIG    1        3.747  -1.988  -0.969  0.00  0.00    -0.850 N 
ATOM     17  H   LIG    1        4.627  -1.579  -0.962  0.00  0.00    +0.400 HD
ATOM     18  H   LIG    1        3.473  -2.535  -1.722  0.00  0.00    +0.400 HD
ENDBRANCH  13  14
ENDBRANCH   1  13
TORSDOF 5
ENDMDL
MODEL      239
REMARK  Name = ZINC000034027757
REMARK                            x       y       z     vdW  Elec       q    Type
REMARK                         _______ _______ _______ _____ _____    ______ ____
ROOT
ATOM      1  C   LIG    1       -1.136  -2.159   0.001  0.00  0.00    +0.270 C 
ATOM      2  C   LIG    1       -1.021  -2.662  -1.441  0.00  0.00    +0.160 C 
ATOM      3  C   LIG    1       -1.081  -4.191  -1.446  0.00  0.00    +0.340 C 
ATOM      4  O   LIG    1       -2.298  -4.622  -0.834  0.00  0.00    -0.380 OA
ATOM      5  C   LIG    1       -2.439  -4.221   0.530  0.00  0.00    +0.150 C 
ATOM      6  C   LIG    1       -2.433  -2.692   0.617  0.00  0.00    +0.150 C 
ENDROOT
BRANCH   1   9
ATOM      7  C   LIG    1       -0.018   1.503   0.010  0.00  0.00    +0.100 C 
ATOM      8  C   LIG    1        0.002  -0.004   0.002  0.00  0.00    +0.510 C 
ATOM      9  N   LIG    1       -1.156  -0.694   0.009  0.00  0.00    -0.720 N 
ATOM     10  H   LIG    1       -2.002  -0.220   0.020  0.00  0.00    +0.400 HD
ATOM     11  O   LIG    1        1.060  -0.596  -0.011  0.00  0.00    -0.520 OA
ENDBRANCH   1   9
BRANCH   3  12
ATOM     12  O   LIG    1        0.031  -4.714  -0.715  0.00  0.00    -0.560 OA
ATOM     13  H   LIG    1        0.057  -5.680  -0.677  0.00  0.00    +0.390 HD
ENDBRANCH   3  12
BRANCH   2  14
ATOM     14  O   LIG    1        0.220  -2.229  -2.001  0.00  0.00    -0.520 OA
ATOM     15  H   LIG    1        0.360  -2.512  -2.914  0.00  0.00    +0.380 HD
ENDBRANCH   2  14
BRANCH   6  16
ATOM     16  O   LIG    1       -2.517  -2.291   1.986  0.00  0.00    -0.550 OA
ATOM     17  H   LIG    1       -3.314  -2.599   2.438  0.00  0.00    +0.380 HD
ENDBRANCH   6  16
BRANCH   5  18
ATOM     18  C   LIG    1       -3.759  -4.758   1.087  0.00  0.00    +0.200 C 
BRANCH  18  19
ATOM     19  O   LIG    1       -3.717  -6.187   1.115  0.00  0.00    -0.560 OA
ATOM     20  H   LIG    1       -4.523  -6.597   1.457  0.00  0.00    +0.380 HD
ENDBRANCH  18  19
ENDBRANCH   5  18
TORSDOF 6
ENDMDL
MODEL      240
REMARK  Name = ZINC000002601203
REMARK                            x       y       z     vdW  Elec       q    Type
REMARK                         _______ _______ _______ _____ _____    ______ ____
ROOT
ATOM      1  C   LIG    1       -0.019   1.526   0.010  0.00  0.00    +0.080 C 
ATOM      2  C   LIG    1        0.002  -0.004   0.002  0.00  0.00    +0.260 C 
ATOM      3  N   LIG    1       -1.368  -0.500  -0.009  0.00  0.00    -0.700 N 
ATOM      4  H   LIG    1       -1.855  -0.500  -0.847  0.00  0.00    +0.430 HD
ATOM      5  C   LIG    1       -1.983  -0.954   1.088  0.00  0.00    +0.530 C 
ATOM      6  C   LIG    1       -1.318  -0.996   2.431  0.00  0.00    +0.310 C 
ATOM      7  N   LIG    1        0.132  -0.941   2.305  0.00  0.00    -0.730 N 
ATOM      8  H   LIG    1        0.674  -1.243   3.051  0.00  0.00    +0.420 HD
ATOM      9  O   LIG    1       -3.126  -1.347   0.992  0.00  0.00    -0.470 OA
ATOM     10  C   LIG    1        0.747  -0.491   1.208  0.00  0.00    +0.530 C 
ATOM     11  O   LIG    1        1.960  -0.477   1.186  0.00  0.00    -0.500 OA
ENDROOT
BRANCH   6  12
ATOM     12  C   LIG    1       -1.793   0.197   3.263  0.00  0.00    +0.420 C 
ATOM     13  F   LIG    1       -1.456   1.386   2.609  0.00  0.00    -0.170 F 
ATOM     14  F   LIG    1       -1.177   0.164   4.519  0.00  0.00    -0.170 F 
ATOM     15  F   LIG    1       -3.182   0.130   3.423  0.00  0.00    -0.150 F 
ENDBRANCH   6  12
BRANCH   6  16
ATOM     16  O   LIG    1       -1.685  -2.206   3.096  0.00  0.00    -0.500 OA
ATOM     17  H   LIG    1       -1.292  -2.307   3.974  0.00  0.00    +0.400 HD
ENDBRANCH   6  16
TORSDOF 2
ENDMDL
MODEL      241
REMARK  Name = ZINC000035976077
REMARK                            x       y       z     vdW  Elec       q    Type
REMARK                         _______ _______ _______ _____ _____    ______ ____
ROOT
ATOM      1  C   LIG    1       -0.019   1.526   0.010  0.00  0.00    +0.050 C 
ATOM      2  C   LIG    1        0.002  -0.004   0.002  0.00  0.00    +0.240 C 
ATOM      3  O   LIG    1        0.670  -0.465  -1.174  0.00  0.00    -0.340 OA
ATOM      4  C   LIG    1        1.838  -1.185  -0.775  0.00  0.00    +0.150 C 
ATOM      5  C   LIG    1        1.628  -2.674  -0.876  0.00  0.00    +0.470 C 
ATOM      6  O   LIG    1        1.597  -3.213   0.351  0.00  0.00    -0.330 OA
ATOM      7  C   LIG    1        2.252  -2.322   1.301  0.00  0.00    +0.160 C 
ATOM      8  O   LIG    1        1.506  -3.289  -1.909  0.00  0.00    -0.420 OA
ATOM      9  C   LIG    1        2.009  -0.887   0.738  0.00  0.00    +0.170 C 
ATOM     10  C   LIG    1       -1.433  -0.534   0.013  0.00  0.00    +0.060 C 
ATOM     11  O   LIG    1        0.693  -0.477   1.160  0.00  0.00    -0.320 OA
ENDROOT
BRANCH   7  12
ATOM     12  C   LIG    1        1.626  -2.471   2.690  0.00  0.00    +0.260 C 
BRANCH  12  13
ATOM     13  O   LIG    1        0.258  -2.063   2.642  0.00  0.00    -0.520 OA
ATOM     14  H   LIG    1       -0.285  -2.577   2.029  0.00  0.00    +0.370 HD
ENDBRANCH  12  13
BRANCH  12  15
ATOM     15  C   LIG    1        1.707  -3.933   3.132  0.00  0.00    +0.160 C 
BRANCH  15  16
ATOM     16  O   LIG    1        1.230  -4.053   4.474  0.00  0.00    -0.560 OA
ATOM     17  H   LIG    1        1.253  -4.955   4.820  0.00  0.00    +0.380 HD
ENDBRANCH  15  16
ENDBRANCH  12  15
ENDBRANCH   7  12
TORSDOF 4
ENDMDL
MODEL      242
REMARK  Name = ZINC000005383063
REMARK                            x       y       z     vdW  Elec       q    Type
REMARK                         _______ _______ _______ _____ _____    ______ ____
ROOT
ATOM      1  C   LIG    1        0.679  -2.115   1.088  0.00  0.00    +0.290 C 
ATOM      2  C   LIG    1        1.771  -2.609   0.114  0.00  0.00    -0.260 C 
ATOM      3  S   LIG    1        2.453  -4.057   1.024  0.00  0.00    +2.390 S 
ATOM      4  C   LIG    1        2.163  -3.294   2.672  0.00  0.00    -0.060 C 
ATOM      5  O   LIG    1        3.849  -4.169   0.780  0.00  0.00    -0.900 OA
ATOM      6  O   LIG    1        1.602  -5.181   0.853  0.00  0.00    -0.900 OA
ATOM      7  N   LIG    1        0.926  -2.521   2.464  0.00  0.00    -0.590 N 
ATOM      8  C   LIG    1        0.085  -2.213   3.471  0.00  0.00    +0.540 C 
ATOM      9  O   LIG    1       -0.921  -1.574   3.246  0.00  0.00    -0.520 OA
ATOM     10  C   LIG    1        0.393  -2.665   4.875  0.00  0.00    +0.120 C 
ENDROOT
BRANCH   1  11
ATOM     11  C   LIG    1        0.618  -0.611   1.029  0.00  0.00    +0.460 C 
ATOM     12  O   LIG    1        1.124   0.049   1.905  0.00  0.00    -0.490 OA
BRANCH  11  14
ATOM     13  C   LIG    1       -0.018   1.448   0.010  0.00  0.00    +0.290 C 
ATOM     14  O   LIG    1        0.002  -0.004   0.002  0.00  0.00    -0.350 OA
ENDBRANCH  11  14
ENDBRANCH   1  11
TORSDOF 2
ENDMDL
MODEL      243
REMARK  Name = ZINC000002575140
REMARK                            x       y       z     vdW  Elec       q    Type
REMARK                         _______ _______ _______ _____ _____    ______ ____
ROOT
ATOM      1  C   LIG    1       -4.315  -4.371   0.504  0.00  0.00    +0.230 C 
ENDROOT
BRANCH   1   2
ATOM      2  O   LIG    1       -5.007  -4.044  -0.702  0.00  0.00    -0.540 OA
ATOM      3  H   LIG    1       -4.658  -4.486  -1.488  0.00  0.00    +0.370 HD
ENDBRANCH   1   2
BRANCH   1   4
ATOM      4  C   LIG    1       -2.845  -3.966   0.374  0.00  0.00    +0.150 C 
BRANCH   4   5
ATOM      5  O   LIG    1       -2.751  -2.545   0.258  0.00  0.00    -0.360 OA
BRANCH   5   6
ATOM      6  C   LIG    1       -1.413  -2.059   0.130  0.00  0.00    +0.150 C 
BRANCH   6   7
ATOM      7  C   LIG    1       -1.433  -0.534   0.013  0.00  0.00    +0.220 C 
BRANCH   7   8
ATOM      8  O   LIG    1       -2.089  -0.158  -1.200  0.00  0.00    -0.540 OA
ATOM      9  H   LIG    1       -1.665  -0.500  -1.999  0.00  0.00    +0.370 HD
ENDBRANCH   7   8
BRANCH   7  10
ATOM     10  C   LIG    1        0.002  -0.004   0.002  0.00  0.00    +0.160 C 
BRANCH  10  11
ATOM     11  O   LIG    1       -0.017   1.425   0.010  0.00  0.00    -0.560 OA
ATOM     12  H   LIG    1        0.861   1.830   0.004  0.00  0.00    +0.380 HD
ENDBRANCH  10  11
ENDBRANCH   7  10
ENDBRANCH   6   7
ENDBRANCH   5   6
ENDBRANCH   4   5
ENDBRANCH   1   4
BRANCH   1  13
ATOM     13  C   LIG    1       -4.408  -5.877   0.754  0.00  0.00    +0.150 C 
BRANCH  13  14
ATOM     14  O   LIG    1       -5.771  -6.237   0.991  0.00  0.00    -0.360 OA
BRANCH  14  15
ATOM     15  C   LIG    1       -5.970  -7.631   1.237  0.00  0.00    +0.150 C 
BRANCH  15  16
ATOM     16  C   LIG    1       -7.457  -7.899   1.476  0.00  0.00    +0.230 C 
BRANCH  16  17
ATOM     17  O   LIG    1       -7.873  -7.241   2.674  0.00  0.00    -0.540 OA
ATOM     18  H   LIG    1       -7.400  -7.529   3.466  0.00  0.00    +0.370 HD
ENDBRANCH  16  17
BRANCH  16  19
ATOM     19  C   LIG    1       -7.687  -9.405   1.615  0.00  0.00    +0.160 C 
BRANCH  19  20
ATOM     20  O   LIG    1       -9.088  -9.665   1.722  0.00  0.00    -0.560 OA
ATOM     21  H   LIG    1       -9.309 -10.602   1.814  0.00  0.00    +0.380 HD
ENDBRANCH  19  20
ENDBRANCH  16  19
ENDBRANCH  15  16
ENDBRANCH  14  15
ENDBRANCH  13  14
ENDBRANCH   1  13
TORSDOF 15
ENDMDL
MODEL      244
REMARK  Name = ZINC000040163931
REMARK                            x       y       z     vdW  Elec       q    Type
REMARK                         _______ _______ _______ _____ _____    ______ ____
ROOT
ATOM      1  C   LIG    1       -0.018   1.503   0.010  0.00  0.00    +0.180 C 
ATOM      2  C   LIG    1        0.002  -0.004   0.002  0.00  0.00    +0.290 A 
ATOM      3  N   LIG    1       -0.093  -0.653  -1.132  0.00  0.00    -0.450 NA
ATOM      4  C   LIG    1       -0.077  -1.992  -1.170  0.00  0.00    +0.460 A 
ATOM      5  N   LIG    1       -0.160  -2.858  -2.173  0.00  0.00    -0.520 NA
ATOM      6  C   LIG    1       -0.096  -4.097  -1.704  0.00  0.00    +0.510 A 
ATOM      7  N   LIG    1        0.028  -4.069  -0.399  0.00  0.00    -0.330 NA
ATOM      8  N   LIG    1        0.044  -2.720  -0.018  0.00  0.00    -0.330 N 
ATOM      9  C   LIG    1        0.151  -2.094   1.179  0.00  0.00    +0.250 A 
ATOM     10  C   LIG    1        0.306  -2.891   2.445  0.00  0.00    +0.150 C 
ATOM     11  C   LIG    1        1.613  -2.558   3.097  0.00  0.00    +0.330 C 
ATOM     12  N   LIG    1        1.868  -1.402   3.547  0.00  0.00    -0.250 NA
ATOM     13  N   LIG    1        0.990  -0.333   3.511  0.00  0.00    -0.540 N 
ATOM     14  H   LIG    1        0.934   0.217   4.309  0.00  0.00    +0.440 HD
ATOM     15  C   LIG    1        0.217   0.012   2.490  0.00  0.00    +0.570 C 
ATOM     16  O   LIG    1       -0.472   1.006   2.616  0.00  0.00    -0.510 OA
ATOM     17  C   LIG    1        0.130  -0.716   1.219  0.00  0.00    -0.240 A 
ENDROOT
TORSDOF 0
ENDMDL
MODEL      245
REMARK  Name = ZINC000002262056
REMARK                            x       y       z     vdW  Elec       q    Type
REMARK                         _______ _______ _______ _____ _____    ______ ____
ROOT
ATOM      1  N   SER A  1       -1.175   3.240  -0.667  0.00  0.00    -0.470 N 
ATOM      2  H1  SER A  1       -0.420   3.759  -0.243  0.00  0.00    +0.440 HD
ATOM      3  H2  SER A  1       -2.031   3.768  -0.589  0.00  0.00    +0.410 HD
ENDROOT
BRANCH   1   4
ATOM      4  C   UNK A  0       -0.871   3.007  -2.086  0.00  0.00    +0.210 C 
ATOM      5  C   UNK A  0       -2.082   2.353  -2.773  0.00  0.00    +0.090 C 
ATOM      6  C   UNK A  0       -1.827   2.442  -4.300  0.00  0.00    -0.270 C 
ATOM      7  S   UNK A  0       -1.171   4.142  -4.496  0.00  0.00    +2.410 S 
ATOM      8  O   UNK A  0       -2.248   5.037  -4.736  0.00  0.00    -0.920 OA
ATOM      9  O   UNK A  0       -0.059   4.118  -5.382  0.00  0.00    -0.910 OA
ATOM     10  C   UNK A  0       -0.577   4.351  -2.781  0.00  0.00    -0.320 C 
ENDBRANCH   1   4
BRANCH   1  11
ATOM     11  CA  SER A  1       -1.330   1.951   0.019  0.00  0.00    +0.080 C 
BRANCH  11  13
ATOM     12  O   SER A  1        0.002  -0.004   0.002  0.00  0.00    -0.640 OA
ATOM     13  C   SER A  1       -0.015   1.215   0.009  0.00  0.00    +0.500 C 
ATOM     14  OXT SER A  1        1.033   1.839   0.002  0.00  0.00    -0.650 OA
ENDBRANCH  11  13
BRANCH  11  15
ATOM     15  CB  SER A  1       -1.768   2.192   1.465  0.00  0.00    +0.220 C 
BRANCH  15  16
ATOM     16  OG  SER A  1       -0.729   2.873   2.170  0.00  0.00    -0.560 OA
ATOM     17  H   SER A  1       -0.938   3.059   3.096  0.00  0.00    +0.390 HD
ENDBRANCH  15  16
ENDBRANCH  11  15
ENDBRANCH   1  11
TORSDOF 5
ENDMDL
MODEL      246
REMARK  Name = ZINC000040545112
REMARK                            x       y       z     vdW  Elec       q    Type
REMARK                         _______ _______ _______ _____ _____    ______ ____
ROOT
ATOM      1  N   LIG    1        0.022  -2.192  -1.047  0.00  0.00    -0.560 N 
ATOM      2  C   LIG    1        1.199  -2.838  -0.933  0.00  0.00    +0.710 A 
ATOM      3  N   LIG    1        1.220  -4.165  -0.694  0.00  0.00    -0.560 N 
ATOM      4  C   LIG    1        0.063  -4.844  -0.569  0.00  0.00    +0.700 A 
ATOM      5  N   LIG    1       -1.115  -4.198  -0.682  0.00  0.00    -0.560 N 
ATOM      6  C   LIG    1       -2.372  -4.937  -0.546  0.00  0.00    +0.380 C 
ATOM      7  O   LIG    1        0.081  -6.040  -0.352  0.00  0.00    -0.510 OA
ATOM      8  C   LIG    1        2.499  -4.867  -0.570  0.00  0.00    +0.370 C 
ATOM      9  O   LIG    1        2.242  -2.225  -1.046  0.00  0.00    -0.510 OA
ATOM     10  C   LIG    1       -1.135  -2.871  -0.917  0.00  0.00    +0.710 A 
ATOM     11  O   LIG    1       -2.196  -2.288  -1.020  0.00  0.00    -0.510 OA
ENDROOT
BRANCH   1  12
ATOM     12  C   LIG    1       -0.000  -0.750  -1.307  0.00  0.00    +0.350 C 
BRANCH  12  14
ATOM     13  C   LIG    1       -0.018   1.503   0.010  0.00  0.00    +0.080 C 
ATOM     14  C   LIG    1        0.002  -0.004   0.002  0.00  0.00    +0.340 C 
ATOM     15  O   LIG    1        0.020  -0.613   1.044  0.00  0.00    -0.450 OA
ENDBRANCH  12  14
ENDBRANCH   1  12
TORSDOF 2
ENDMDL
MODEL      247
REMARK  Name = ZINC000169790026
REMARK                            x       y       z     vdW  Elec       q    Type
REMARK                         _______ _______ _______ _____ _____    ______ ____
ROOT
ATOM      1  C   LIG    1        0.614  -2.074  -1.042  0.00  0.00    +0.510 C 
ATOM      2  N   LIG    1        1.170  -2.825  -2.014  0.00  0.00    -0.610 N 
ATOM      3  C   LIG    1        1.800  -2.135  -3.129  0.00  0.00    +0.310 C 
ATOM      4  C   LIG    1        3.320  -2.355  -3.098  0.00  0.00    +0.170 C 
ATOM      5  C   LIG    1        3.590  -3.755  -3.607  0.00  0.00    +0.270 A 
ATOM      6  N   LIG    1        4.184  -4.108  -4.691  0.00  0.00    -0.270 NA
ATOM      7  N   LIG    1        4.201  -5.511  -4.743  0.00  0.00    -0.550 N 
ATOM      8  H   LIG    1        4.585  -6.055  -5.449  0.00  0.00    +0.460 HD
ATOM      9  C   LIG    1        3.584  -5.964  -3.629  0.00  0.00    +0.650 A 
ATOM     10  O   LIG    1        3.407  -7.131  -3.326  0.00  0.00    -0.550 OA
ATOM     11  N   LIG    1        3.205  -4.894  -2.920  0.00  0.00    -0.560 N 
ATOM     12  C   LIG    1        2.500  -4.852  -1.629  0.00  0.00    +0.330 C 
ATOM     13  C   LIG    1        1.106  -4.270  -1.873  0.00  0.00    +0.290 C 
ATOM     14  O   LIG    1        0.082  -2.608  -0.092  0.00  0.00    -0.510 OA
ENDROOT
BRANCH   1  15
ATOM     15  C   LIG    1        0.652  -0.570  -1.138  0.00  0.00    +0.200 C 
BRANCH  15  17
ATOM     16  C   LIG    1       -0.017   1.425   0.010  0.00  0.00    +0.220 C 
ATOM     17  O   LIG    1        0.002  -0.004   0.002  0.00  0.00    -0.370 OA
ENDBRANCH  15  17
ENDBRANCH   1  15
TORSDOF 2
ENDMDL
MODEL      248
REMARK  Name = ZINC000027977679
REMARK                            x       y       z     vdW  Elec       q    Type
REMARK                         _______ _______ _______ _____ _____    ______ ____
ROOT
ATOM      1  N   LIG    1        0.690  -0.478  -1.207  0.00  0.00    -0.540 NA
ATOM      2  C   LIG    1        0.226   0.250  -2.395  0.00  0.00    +0.170 C 
ATOM      3  C   LIG    1        1.090  -0.142  -3.599  0.00  0.00    +0.300 C 
ATOM      4  N   LIG    1        1.079  -1.607  -3.724  0.00  0.00    -0.610 N 
ATOM      5  C   LIG    1        1.400  -2.409  -2.534  0.00  0.00    +0.290 C 
ATOM      6  C   LIG    1        0.784  -2.200  -4.898  0.00  0.00    +0.500 C 
ATOM      7  O   LIG    1        0.523  -1.523  -5.870  0.00  0.00    -0.510 OA
ATOM      8  C   LIG    1        0.525  -1.928  -1.372  0.00  0.00    +0.170 C 
ENDROOT
BRANCH   1  10
ATOM      9  C   LIG    1       -0.019   1.526   0.010  0.00  0.00    +0.030 C 
ATOM     10  C   LIG    1        0.002  -0.004   0.002  0.00  0.00    +0.170 C 
ENDBRANCH   1  10
BRANCH   6  11
ATOM     11  C   LIG    1        0.780  -3.703  -5.004  0.00  0.00    +0.380 C 
BRANCH  11  12
ATOM     12  N   LIG    1        0.431  -4.095  -6.372  0.00  0.00    -0.310 N 
ATOM     13  C   LIG    1        1.148  -4.899  -7.179  0.00  0.00    +0.400 A 
ATOM     14  N   LIG    1        0.484  -4.988  -8.306  0.00  0.00    -0.300 NA
ATOM     15  N   LIG    1       -0.585  -4.276  -8.196  0.00  0.00    -0.070 NA
ATOM     16  N   LIG    1       -0.622  -3.740  -7.026  0.00  0.00    -0.070 NA
ENDBRANCH  11  12
ENDBRANCH   6  11
TORSDOF 3
ENDMDL
MODEL      249
REMARK  Name = ZINC000064219141
REMARK                            x       y       z     vdW  Elec       q    Type
REMARK                         _______ _______ _______ _____ _____    ______ ____
ROOT
ATOM      1  C   LIG    1       -1.136  -2.159   0.001  0.00  0.00    +0.240 C 
ATOM      2  C   LIG    1       -1.146  -2.662  -1.444  0.00  0.00    +0.340 C 
ATOM      3  O   LIG    1       -2.353  -2.243  -2.085  0.00  0.00    -0.400 OA
ATOM      4  C   LIG    1       -3.542  -2.750  -1.477  0.00  0.00    +0.150 C 
ATOM      5  C   LIG    1       -3.629  -2.250  -0.033  0.00  0.00    +0.120 C 
ATOM      6  C   LIG    1       -2.374  -2.691   0.729  0.00  0.00    +0.180 C 
ENDROOT
BRANCH   1   9
ATOM      7  C   LIG    1       -0.617   1.489   1.041  0.00  0.00    +0.090 C 
ATOM      8  C   LIG    1       -0.596  -0.018   1.032  0.00  0.00    +0.520 C 
ATOM      9  N   LIG    1       -1.156  -0.694   0.009  0.00  0.00    -0.700 N 
ATOM     10  H   LIG    1       -1.572  -0.210  -0.722  0.00  0.00    +0.400 HD
ATOM     11  O   LIG    1       -0.076  -0.622   1.946  0.00  0.00    -0.540 OA
ENDBRANCH   1   9
BRANCH   2  12
ATOM     12  N   LIG    1        0.009  -2.109  -2.164  0.00  0.00    -0.800 NA
ATOM     13  H   LIG    1        0.015  -1.101  -2.118  0.00  0.00    +0.350 HD
ATOM     14  H   LIG    1        0.025  -2.427  -3.121  0.00  0.00    +0.360 HD
ENDBRANCH   2  12
BRANCH   5  15
ATOM     15  O   LIG    1       -3.716  -0.824  -0.026  0.00  0.00    -0.530 OA
ATOM     16  H   LIG    1       -4.486  -0.474  -0.495  0.00  0.00    +0.370 HD
ENDBRANCH   5  15
BRANCH   6  17
ATOM     17  O   LIG    1       -2.413  -2.168   2.058  0.00  0.00    -0.530 OA
ATOM     18  H   LIG    1       -3.177  -2.460   2.574  0.00  0.00    +0.370 HD
ENDBRANCH   6  17
BRANCH   4  19
ATOM     19  C   LIG    1       -4.763  -2.263  -2.260  0.00  0.00    +0.200 C 
BRANCH  19  20
ATOM     20  O   LIG    1       -4.742  -2.824  -3.574  0.00  0.00    -0.560 OA
ATOM     21  H   LIG    1       -5.488  -2.557  -4.128  0.00  0.00    +0.380 HD
ENDBRANCH  19  20
ENDBRANCH   4  19
TORSDOF 6
ENDMDL
MODEL      250
REMARK  Name = ZINC000005861418
REMARK                            x       y       z     vdW  Elec       q    Type
REMARK                         _______ _______ _______ _____ _____    ______ ____
ROOT
ATOM      1  C   LIG    1        0.746  -1.888  -1.280  0.00  0.00    +0.300 C 
ATOM      2  O   LIG    1        1.556  -2.403  -0.221  0.00  0.00    -0.380 OA
ATOM      3  C   LIG    1        1.676  -3.827  -0.218  0.00  0.00    +0.190 C 
ATOM      4  C   LIG    1        2.335  -4.284  -1.522  0.00  0.00    +0.170 C 
ATOM      5  C   LIG    1        1.499  -3.792  -2.708  0.00  0.00    +0.160 C 
ATOM      6  C   LIG    1        1.367  -2.268  -2.627  0.00  0.00    +0.140 C 
ENDROOT
BRANCH   5   7
ATOM      7  O   LIG    1        2.144  -4.153  -3.930  0.00  0.00    -0.560 OA
ATOM      8  H   LIG    1        1.669  -3.871  -4.724  0.00  0.00    +0.400 HD
ENDBRANCH   5   7
BRANCH   4   9
ATOM      9  O   LIG    1        2.405  -5.711  -1.547  0.00  0.00    -0.550 OA
ATOM     10  H   LIG    1        2.812  -6.072  -2.346  0.00  0.00    +0.390 HD
ENDBRANCH   4   9
BRANCH   6  11
ATOM     11  O   LIG    1        0.529  -1.804  -3.688  0.00  0.00    -0.560 OA
ATOM     12  H   LIG    1        0.402  -0.846  -3.698  0.00  0.00    +0.400 HD
ENDBRANCH   6  11
BRANCH   1  13
ATOM     13  O   LIG    1        0.671  -0.465  -1.174  0.00  0.00    -0.370 OA
BRANCH  13  15
ATOM     14  C   LIG    1       -0.019   1.526   0.010  0.00  0.00    +0.050 C 
ATOM     15  C   LIG    1        0.002  -0.004   0.002  0.00  0.00    +0.170 C 
ENDBRANCH  13  15
ENDBRANCH   1  13
BRANCH   3  16
ATOM     16  C   LIG    1        2.537  -4.264   0.969  0.00  0.00    +0.230 C 
BRANCH  16  17
ATOM     17  O   LIG    1        1.867  -3.939   2.188  0.00  0.00    -0.570 OA
ATOM     18  H   LIG    1        2.356  -4.188   2.985  0.00  0.00    +0.380 HD
ENDBRANCH  16  17
ENDBRANCH   3  16
TORSDOF 7
ENDMDL
MODEL      251
REMARK  Name = ZINC000029019636
REMARK                            x       y       z     vdW  Elec       q    Type
REMARK                         _______ _______ _______ _____ _____    ______ ____
ROOT
ATOM      1  O   LIG    1       -0.066   0.015   0.217  0.00  0.00    -0.520 OA
ATOM      2  C   LIG    1       -0.014   1.212   0.009  0.00  0.00    +0.580 C 
ATOM      3  N   LIG    1        1.175   1.809  -0.207  0.00  0.00    -0.470 N 
ATOM      4  H   LIG    1        1.211   2.751  -0.436  0.00  0.00    +0.440 HD
ENDROOT
BRANCH   2   5
ATOM      5  C   LIG    1       -1.251   2.008  -0.014  0.00  0.00    -0.280 A 
ATOM      6  C   LIG    1       -2.495   1.388   0.080  0.00  0.00    +0.240 A 
ATOM      7  C   LIG    1       -3.646   2.175   0.055  0.00  0.00    -0.080 A 
ATOM      8  C   LIG    1       -3.546   3.524  -0.060  0.00  0.00    +0.350 A 
ATOM      9  N   LIG    1       -2.340   4.134  -0.152  0.00  0.00    -0.600 N 
ATOM     10  H   LIG    1       -2.299   5.100  -0.234  0.00  0.00    +0.430 HD
ATOM     11  C   LIG    1       -1.198   3.422  -0.127  0.00  0.00    +0.540 A 
ATOM     12  O   LIG    1       -0.122   3.988  -0.211  0.00  0.00    -0.550 OA
ENDBRANCH   2   5
BRANCH   3  13
ATOM     13  N   LIG    1        2.359   1.069  -0.099  0.00  0.00    -0.430 N 
ATOM     14  C   LIG    1        3.329   1.116   1.009  0.00  0.00    +0.330 C 
ATOM     15  C   LIG    1        4.394   0.120   0.593  0.00  0.00    +0.540 C 
ATOM     16  N   LIG    1        3.992  -0.368  -0.597  0.00  0.00    -0.670 N 
ATOM     17  H   LIG    1        4.482  -1.030  -1.108  0.00  0.00    +0.440 HD
ATOM     18  O   LIG    1        5.399  -0.175   1.204  0.00  0.00    -0.460 OA
ATOM     19  C   LIG    1        2.830   0.172  -0.984  0.00  0.00    +0.710 C 
ATOM     20  O   LIG    1        2.267  -0.112  -2.023  0.00  0.00    -0.520 OA
ENDBRANCH   3  13
TORSDOF 2
ENDMDL
MODEL      252
REMARK  Name = ZINC000085902748
REMARK                            x       y       z     vdW  Elec       q    Type
REMARK                         _______ _______ _______ _____ _____    ______ ____
ROOT
ATOM      1  C   LIG    1       -0.921  -3.081   0.888  0.00  0.00    -0.860 A 
ATOM      2  C   LIG    1        0.226  -3.747   0.637  0.00  0.00    +0.530 A 
ATOM      3  N   LIG    1        0.797  -4.508   1.621  0.00  0.00    -0.630 N 
ATOM      4  H   LIG    1        1.621  -4.986   1.441  0.00  0.00    +0.450 HD
ATOM      5  C   LIG    1        0.225  -4.600   2.835  0.00  0.00    +0.700 A 
ATOM      6  N   LIG    1       -0.919  -3.946   3.112  0.00  0.00    -0.650 N 
ATOM      7  H   LIG    1       -1.319  -4.024   3.993  0.00  0.00    +0.440 HD
ATOM      8  O   LIG    1        0.748  -5.282   3.694  0.00  0.00    -0.520 OA
ATOM      9  C   LIG    1       -1.510  -3.181   2.171  0.00  0.00    +0.590 A 
ATOM     10  O   LIG    1       -2.544  -2.590   2.421  0.00  0.00    -0.480 OA
ENDROOT
BRANCH   1  11
ATOM     11  S   LIG    1       -1.673  -2.095  -0.364  0.00  0.00    +2.730 S 
ATOM     12  O   LIG    1       -0.964  -2.364  -1.566  0.00  0.00    -0.960 OA
ATOM     13  O   LIG    1       -3.076  -2.280  -0.232  0.00  0.00    -0.930 OA
BRANCH  11  14
ATOM     14  N   LIG    1       -1.372  -0.511   0.012  0.00  0.00    -1.110 NA
ATOM     15  H   LIG    1       -2.106   0.081   0.240  0.00  0.00    +0.420 HD
BRANCH  14  17
ATOM     16  C   LIG    1       -0.019   1.526   0.010  0.00  0.00    +0.040 C 
ATOM     17  C   LIG    1        0.002  -0.004   0.002  0.00  0.00    +0.250 C 
ENDBRANCH  14  17
ENDBRANCH  11  14
ENDBRANCH   1  11
TORSDOF 3
ENDMDL
MODEL      253
REMARK  Name = ZINC000058306235
REMARK                            x       y       z     vdW  Elec       q    Type
REMARK                         _______ _______ _______ _____ _____    ______ ____
ROOT
ATOM      1  N   LIG    1        0.688  -0.476  -1.203  0.00  0.00    -1.110 NA
ATOM      2  H   LIG    1        0.197  -0.571  -2.035  0.00  0.00    +0.430 HD
ENDROOT
BRANCH   1   3
ATOM      3  S   LIG    1        2.300  -0.849  -1.146  0.00  0.00    +2.790 S 
ATOM      4  O   LIG    1        2.942   0.244  -0.503  0.00  0.00    -0.970 OA
ATOM      5  O   LIG    1        2.654  -1.302  -2.446  0.00  0.00    -0.970 OA
BRANCH   3   6
ATOM      6  N   LIG    1        2.468  -2.150  -0.136  0.00  0.00    -1.010 NA
ATOM      7  C   LIG    1        2.688  -1.940   1.298  0.00  0.00    +0.300 C 
ATOM      8  C   LIG    1        2.395  -3.510  -0.674  0.00  0.00    +0.310 C 
ENDBRANCH   3   6
ENDBRANCH   1   3
BRANCH   1  10
ATOM      9  C   LIG    1       -0.019   1.526   0.010  0.00  0.00    +0.060 C 
ATOM     10  C   LIG    1        0.002  -0.004   0.002  0.00  0.00    +0.250 C 
BRANCH  10  11
ATOM     11  C   LIG    1       -1.412  -0.526   0.013  0.00  0.00    +0.510 C 
ATOM     12  N   LIG    1       -2.236  -0.217   1.033  0.00  0.00    -0.620 N 
ATOM     13  C   LIG    1       -1.758   0.626   2.132  0.00  0.00    +0.300 C 
ATOM     14  C   LIG    1       -3.611  -0.724   1.044  0.00  0.00    +0.290 C 
ATOM     15  O   LIG    1       -1.808  -1.223  -0.897  0.00  0.00    -0.530 OA
ENDBRANCH  10  11
ENDBRANCH   1  10
TORSDOF 4
ENDMDL
MODEL      254
REMARK  Name = ZINC000003142463
REMARK                            x       y       z     vdW  Elec       q    Type
REMARK                         _______ _______ _______ _____ _____    ______ ____
ROOT
ATOM      1  C   LIG    1       -0.942  -3.269   0.777  0.00  0.00    -0.870 A 
ATOM      2  C   LIG    1       -1.677  -3.680   1.833  0.00  0.00    +0.350 A 
ATOM      3  N   LIG    1       -1.056  -4.252   2.910  0.00  0.00    -0.630 N 
ATOM      4  H   LIG    1       -1.584  -4.547   3.668  0.00  0.00    +0.440 HD
ATOM      5  C   LIG    1        0.280  -4.407   2.927  0.00  0.00    +0.700 A 
ATOM      6  N   LIG    1        1.037  -4.007   1.889  0.00  0.00    -0.660 N 
ATOM      7  H   LIG    1        1.999  -4.127   1.917  0.00  0.00    +0.440 HD
ATOM      8  O   LIG    1        0.811  -4.917   3.895  0.00  0.00    -0.520 OA
ATOM      9  C   LIG    1       -3.175  -3.511   1.824  0.00  0.00    +0.180 C 
ATOM     10  C   LIG    1        0.462  -3.445   0.806  0.00  0.00    +0.590 A 
ATOM     11  O   LIG    1        1.146  -3.083  -0.135  0.00  0.00    -0.470 OA
ENDROOT
BRANCH   1  12
ATOM     12  S   LIG    1       -1.721  -2.531  -0.620  0.00  0.00    +2.720 S 
ATOM     13  O   LIG    1       -0.793  -2.624  -1.692  0.00  0.00    -0.920 OA
ATOM     14  O   LIG    1       -3.034  -3.072  -0.680  0.00  0.00    -0.960 OA
BRANCH  12  15
ATOM     15  N   LIG    1       -1.894  -0.918  -0.289  0.00  0.00    -1.120 NA
ATOM     16  H   LIG    1       -2.780  -0.533  -0.201  0.00  0.00    +0.420 HD
BRANCH  15  18
ATOM     17  C   LIG    1       -1.120   1.401  -0.207  0.00  0.00    +0.040 C 
ATOM     18  C   LIG    1       -0.709  -0.071  -0.130  0.00  0.00    +0.260 C 
ENDBRANCH  15  18
ENDBRANCH  12  15
ENDBRANCH   1  12
TORSDOF 3
ENDMDL
MODEL      255
REMARK  Name = ZINC000091690052
REMARK                            x       y       z     vdW  Elec       q    Type
REMARK                         _______ _______ _______ _____ _____    ______ ____
ROOT
ATOM      1  C   LIG    1       -3.814   1.688   0.029  0.00  0.00    +0.260 C 
ATOM      2  N   LIG    1       -3.964   2.421   1.295  0.00  0.00    -0.740 N 
ATOM      3  H   LIG    1       -3.798   3.376   1.339  0.00  0.00    +0.410 HD
ATOM      4  C   LIG    1       -4.346   1.715   2.425  0.00  0.00    +0.340 C 
ATOM      5  N   LIG    1       -5.086   0.662   2.307  0.00  0.00    -0.320 NA
ATOM      6  N   LIG    1       -5.497   0.201   1.053  0.00  0.00    -0.550 N 
ATOM      7  H   LIG    1       -6.181  -0.484   0.994  0.00  0.00    +0.430 HD
ATOM      8  C   LIG    1       -4.953   0.700  -0.078  0.00  0.00    +0.490 C 
ATOM      9  O   LIG    1       -5.373   0.358  -1.164  0.00  0.00    -0.510 OA
ENDROOT
BRANCH   4  10
ATOM     10  C   LIG    1       -3.899   2.175   3.789  0.00  0.00    +0.090 C 
ATOM     11  C   LIG    1       -5.029   2.785   4.638  0.00  0.00    +0.330 C 
ATOM     12  N   LIG    1       -4.452   2.028   5.771  0.00  0.00    -0.530 N 
ATOM     13  H   LIG    1       -5.154   1.621   6.370  0.00  0.00    +0.430 HD
ATOM     14  H   LIG    1       -3.763   2.555   6.286  0.00  0.00    +0.440 HD
ATOM     15  C   LIG    1       -3.853   1.049   4.838  0.00  0.00    +0.340 C 
ENDBRANCH   4  10
BRANCH   1  16
ATOM     16  C   LIG    1       -2.479   0.941   0.019  0.00  0.00    +0.050 C 
BRANCH  16  17
ATOM     17  C   LIG    1       -1.330   1.951   0.019  0.00  0.00    -0.060 C 
BRANCH  17  19
ATOM     18  O   LIG    1        0.002  -0.004   0.002  0.00  0.00    -0.700 OA
ATOM     19  C   LIG    1       -0.015   1.215   0.009  0.00  0.00    +0.490 C 
ATOM     20  O   LIG    1        1.033   1.839   0.002  0.00  0.00    -0.700 OA
ENDBRANCH  17  19
ENDBRANCH  16  17
ENDBRANCH   1  16
TORSDOF 4
ENDMDL
MODEL      256
REMARK  Name = ZINC000091690055
REMARK                            x       y       z     vdW  Elec       q    Type
REMARK                         _______ _______ _______ _____ _____    ______ ____
ROOT
ATOM      1  C   LIG    1       -3.814   1.688   0.029  0.00  0.00    +0.260 C 
ATOM      2  N   LIG    1       -3.975   2.434  -1.227  0.00  0.00    -0.740 N 
ATOM      3  H   LIG    1       -3.811   3.390  -1.262  0.00  0.00    +0.410 HD
ATOM      4  C   LIG    1       -4.369   1.741  -2.361  0.00  0.00    +0.340 C 
ATOM      5  N   LIG    1       -5.107   0.687  -2.247  0.00  0.00    -0.320 NA
ATOM      6  N   LIG    1       -5.507   0.212  -0.994  0.00  0.00    -0.550 N 
ATOM      7  H   LIG    1       -6.190  -0.473  -0.937  0.00  0.00    +0.430 HD
ATOM      8  C   LIG    1       -4.952   0.698   0.137  0.00  0.00    +0.490 C 
ATOM      9  O   LIG    1       -5.361   0.345   1.223  0.00  0.00    -0.510 OA
ENDROOT
BRANCH   4  10
ATOM     10  C   LIG    1       -3.934   2.215  -3.724  0.00  0.00    +0.080 C 
ATOM     11  C   LIG    1       -2.877   1.313  -4.386  0.00  0.00    +0.330 C 
ATOM     12  N   LIG    1       -3.647   1.495  -5.636  0.00  0.00    -0.530 N 
ATOM     13  H   LIG    1       -3.714   0.650  -6.183  0.00  0.00    +0.430 HD
ATOM     14  H   LIG    1       -3.334   2.285  -6.180  0.00  0.00    +0.440 HD
ATOM     15  C   LIG    1       -4.875   1.778  -4.861  0.00  0.00    +0.340 C 
ENDBRANCH   4  10
BRANCH   1  16
ATOM     16  C   LIG    1       -2.479   0.941   0.019  0.00  0.00    +0.040 C 
BRANCH  16  17
ATOM     17  C   LIG    1       -1.330   1.951   0.019  0.00  0.00    -0.060 C 
BRANCH  17  19
ATOM     18  O   LIG    1        0.002  -0.004   0.002  0.00  0.00    -0.700 OA
ATOM     19  C   LIG    1       -0.015   1.215   0.009  0.00  0.00    +0.490 C 
ATOM     20  O   LIG    1        1.033   1.839   0.002  0.00  0.00    -0.700 OA
ENDBRANCH  17  19
ENDBRANCH  16  17
ENDBRANCH   1  16
TORSDOF 4
ENDMDL
MODEL      257
REMARK  Name = ZINC000019321188
REMARK                            x       y       z     vdW  Elec       q    Type
REMARK                         _______ _______ _______ _____ _____    ______ ____
ROOT
ATOM      1  C   LIG    1       -0.018   1.503   0.010  0.00  0.00    +0.180 C 
ATOM      2  C   LIG    1        0.002  -0.004   0.002  0.00  0.00    +0.150 C 
ATOM      3  N   LIG    1        0.007  -0.725  -1.052  0.00  0.00    -0.200 N 
ATOM      4  C   LIG    1        0.016  -2.171  -0.732  0.00  0.00    +0.290 C 
ATOM      5  C   LIG    1       -1.437  -2.643  -0.742  0.00  0.00    +0.090 C 
ATOM      6  C   LIG    1       -1.556  -4.119  -0.351  0.00  0.00    +0.220 C 
ATOM      7  C   LIG    1       -0.883  -4.286   0.980  0.00  0.00    +0.040 A 
ATOM      8  N   LIG    1       -0.998  -5.160   1.919  0.00  0.00    -0.040 N 
ATOM      9  O   LIG    1       -0.243  -4.859   2.826  0.00  0.00    +0.290 OA
ATOM     10  N   LIG    1        0.411  -3.854   2.624  0.00  0.00    -0.270 NA
ATOM     11  O   LIG    1       -1.859  -6.285   1.900  0.00  0.00    -0.440 OA
ATOM     12  C   LIG    1        0.104  -3.379   1.459  0.00  0.00    +0.030 A 
ATOM     13  C   LIG    1        0.604  -2.201   0.700  0.00  0.00    +0.210 C 
ATOM     14  O   LIG    1        0.006  -0.205  -2.369  0.00  0.00    -0.520 OA
ATOM     15  C   LIG    1        0.026  -0.876   1.247  0.00  0.00    +0.120 C 
ENDROOT
BRANCH   4  16
ATOM     16  N   LIG    1        0.852  -2.928  -1.673  0.00  0.00    -0.790 NA
ATOM     17  H   LIG    1        1.815  -2.633  -1.620  0.00  0.00    +0.370 HD
ATOM     18  H   LIG    1        0.500  -2.847  -2.615  0.00  0.00    +0.370 HD
ENDBRANCH   4  16
BRANCH  13  19
ATOM     19  O   LIG    1        2.032  -2.179   0.673  0.00  0.00    -0.510 OA
ATOM     20  H   LIG    1        2.442  -2.143   1.548  0.00  0.00    +0.400 HD
ENDBRANCH  13  19
TORSDOF 2
ENDMDL
MODEL      258
REMARK  Name = ZINC000026421466
REMARK                            x       y       z     vdW  Elec       q    Type
REMARK                         _______ _______ _______ _____ _____    ______ ____
ROOT
ATOM      1  C   LIG    1        1.382  -4.096  -2.383  0.00  0.00    -0.450 A 
ATOM      2  C   LIG    1        1.936  -4.678  -3.536  0.00  0.00    +0.560 A 
ATOM      3  N   LIG    1        2.011  -6.039  -3.618  0.00  0.00    -0.550 N 
ATOM      4  C   LIG    1        1.569  -6.823  -2.623  0.00  0.00    +0.710 A 
ATOM      5  N   LIG    1        1.031  -6.325  -1.498  0.00  0.00    -0.560 N 
ATOM      6  C   LIG    1        0.569  -7.239  -0.451  0.00  0.00    +0.340 C 
ATOM      7  O   LIG    1        1.658  -8.029  -2.744  0.00  0.00    -0.530 OA
ATOM      8  C   LIG    1        2.587  -6.655  -4.816  0.00  0.00    +0.350 C 
ATOM      9  C   LIG    1        0.916  -4.993  -1.317  0.00  0.00    +0.580 A 
ATOM     10  O   LIG    1        0.429  -4.544  -0.296  0.00  0.00    -0.500 OA
ENDROOT
BRANCH   2  11
ATOM     11  N   LIG    1        2.390  -3.898  -4.555  0.00  0.00    -0.790 N 
ATOM     12  H   LIG    1        2.698  -4.307  -5.379  0.00  0.00    +0.410 HD
ATOM     13  H   LIG    1        2.405  -2.933  -4.457  0.00  0.00    +0.440 HD
ENDBRANCH   2  11
BRANCH   1  14
ATOM     14  C   LIG    1        1.283  -2.694  -2.250  0.00  0.00    +0.450 C 
ATOM     15  O   LIG    1        1.774  -1.968  -3.091  0.00  0.00    -0.520 OA
BRANCH  14  16
ATOM     16  C   LIG    1        0.568  -2.098  -1.065  0.00  0.00    +0.070 C 
BRANCH  16  17
ATOM     17  C   LIG    1        0.604  -0.572  -1.163  0.00  0.00    +0.170 C 
BRANCH  17  19
ATOM     18  C   LIG    1       -0.099   1.422  -0.033  0.00  0.00    +0.200 C 
ATOM     19  O   LIG    1       -0.074  -0.007  -0.039  0.00  0.00    -0.390 OA
ENDBRANCH  17  19
ENDBRANCH  16  17
ENDBRANCH  14  16
ENDBRANCH   1  14
TORSDOF 5
ENDMDL
MODEL      259
REMARK  Name = ZINC000019321186
REMARK                            x       y       z     vdW  Elec       q    Type
REMARK                         _______ _______ _______ _____ _____    ______ ____
ROOT
ATOM      1  C   LIG    1       -0.018   1.503   0.010  0.00  0.00    +0.190 C 
ATOM      2  C   LIG    1        0.002  -0.004   0.002  0.00  0.00    +0.150 C 
ATOM      3  N   LIG    1        0.008  -0.740  -1.066  0.00  0.00    -0.190 N 
ATOM      4  C   LIG    1        0.065  -2.128  -0.699  0.00  0.00    +0.280 C 
ATOM      5  C   LIG    1       -0.459  -3.234  -1.561  0.00  0.00    +0.110 C 
ATOM      6  C   LIG    1        0.155  -4.561  -1.060  0.00  0.00    +0.210 C 
ATOM      7  C   LIG    1        0.201  -4.570   0.441  0.00  0.00    +0.080 A 
ATOM      8  N   LIG    1        0.533  -5.500   1.278  0.00  0.00    -0.050 N 
ATOM      9  O   LIG    1        0.444  -5.064   2.411  0.00  0.00    +0.280 OA
ATOM     10  N   LIG    1        0.070  -3.907   2.477  0.00  0.00    -0.270 NA
ATOM     11  O   LIG    1        0.935  -6.812   0.932  0.00  0.00    -0.450 OA
ATOM     12  C   LIG    1       -0.131  -3.465   1.288  0.00  0.00    +0.030 A 
ATOM     13  C   LIG    1       -0.606  -2.181   0.708  0.00  0.00    +0.200 C 
ATOM     14  O   LIG    1       -0.036  -0.250  -2.393  0.00  0.00    -0.510 OA
ATOM     15  C   LIG    1        0.026  -0.886   1.252  0.00  0.00    +0.130 C 
ENDROOT
BRANCH   4  16
ATOM     16  N   LIG    1        1.483  -2.435  -0.469  0.00  0.00    -0.830 NA
ATOM     17  H   LIG    1        1.851  -1.891   0.296  0.00  0.00    +0.350 HD
ATOM     18  H   LIG    1        2.024  -2.292  -1.308  0.00  0.00    +0.380 HD
ENDBRANCH   4  16
BRANCH  13  19
ATOM     19  O   LIG    1       -2.032  -2.119   0.642  0.00  0.00    -0.510 OA
ATOM     20  H   LIG    1       -2.470  -2.207   1.500  0.00  0.00    +0.400 HD
ENDBRANCH  13  19
TORSDOF 2
ENDMDL
MODEL      260
REMARK  Name = ZINC000019321183
REMARK                            x       y       z     vdW  Elec       q    Type
REMARK                         _______ _______ _______ _____ _____    ______ ____
ROOT
ATOM      1  C   LIG    1        0.146   1.302   0.679  0.00  0.00    +0.190 C 
ATOM      2  C   LIG    1        0.111  -0.176   0.387  0.00  0.00    +0.150 C 
ATOM      3  N   LIG    1        0.043  -0.697  -0.799  0.00  0.00    -0.190 N 
ATOM      4  C   LIG    1       -0.009  -2.129  -0.699  0.00  0.00    +0.280 C 
ATOM      5  C   LIG    1        0.459  -3.052  -1.780  0.00  0.00    +0.110 C 
ATOM      6  C   LIG    1       -0.141  -4.450  -1.508  0.00  0.00    +0.210 C 
ATOM      7  C   LIG    1       -0.110  -4.743  -0.036  0.00  0.00    +0.080 A 
ATOM      8  N   LIG    1       -0.407  -5.814   0.627  0.00  0.00    -0.050 N 
ATOM      9  O   LIG    1       -0.255  -5.600   1.815  0.00  0.00    +0.280 OA
ATOM     10  N   LIG    1        0.133  -4.477   2.080  0.00  0.00    -0.270 NA
ATOM     11  O   LIG    1       -0.839  -7.038   0.061  0.00  0.00    -0.450 OA
ATOM     12  C   LIG    1        0.276  -3.818   0.986  0.00  0.00    +0.040 A 
ATOM     13  C   LIG    1        0.733  -2.447   0.635  0.00  0.00    +0.200 C 
ATOM     14  O   LIG    1        0.023   0.036  -2.010  0.00  0.00    -0.510 OA
ATOM     15  C   LIG    1        0.156  -1.280   1.447  0.00  0.00    +0.130 C 
ENDROOT
BRANCH   4  16
ATOM     16  N   LIG    1       -1.416  -2.474  -0.457  0.00  0.00    -0.830 NA
ATOM     17  H   LIG    1       -1.976  -2.308  -1.280  0.00  0.00    +0.380 HD
ATOM     18  H   LIG    1       -1.781  -1.970   0.337  0.00  0.00    +0.350 HD
ENDBRANCH   4  16
BRANCH  13  19
ATOM     19  O   LIG    1        2.154  -2.373   0.508  0.00  0.00    -0.510 OA
ATOM     20  H   LIG    1        2.635  -2.622   1.310  0.00  0.00    +0.400 HD
ENDBRANCH  13  19
TORSDOF 2
ENDMDL
MODEL      261
REMARK  Name = ZINC000019320485
REMARK                            x       y       z     vdW  Elec       q    Type
REMARK                         _______ _______ _______ _____ _____    ______ ____
ROOT
ATOM      1  C   LIG    1       -0.018   1.503   0.010  0.00  0.00    +0.190 C 
ATOM      2  C   LIG    1        0.002  -0.004   0.002  0.00  0.00    +0.160 C 
ATOM      3  N   LIG    1        0.007  -0.726  -1.053  0.00  0.00    -0.170 N 
ATOM      4  C   LIG    1        0.029  -2.156  -0.733  0.00  0.00    +0.300 C 
ATOM      5  C   LIG    1        0.876  -2.941  -1.716  0.00  0.00    +0.080 C 
ATOM      6  C   LIG    1        2.256  -2.299  -1.907  0.00  0.00    +0.200 C 
ATOM      7  C   LIG    1        2.855  -2.104  -0.544  0.00  0.00    +0.040 A 
ATOM      8  N   LIG    1        4.071  -1.933  -0.145  0.00  0.00    -0.040 N 
ATOM      9  O   LIG    1        4.071  -1.831   1.069  0.00  0.00    +0.290 OA
ATOM     10  N   LIG    1        2.969  -1.907   1.581  0.00  0.00    -0.270 NA
ATOM     11  O   LIG    1        5.214  -1.875  -0.979  0.00  0.00    -0.440 OA
ATOM     12  C   LIG    1        2.088  -2.080   0.651  0.00  0.00    +0.010 A 
ATOM     13  C   LIG    1        0.595  -2.219   0.707  0.00  0.00    +0.220 C 
ATOM     14  O   LIG    1       -0.006  -0.206  -2.371  0.00  0.00    -0.510 OA
ATOM     15  C   LIG    1        0.026  -0.874   1.245  0.00  0.00    +0.120 C 
ENDROOT
BRANCH   4  16
ATOM     16  N   LIG    1       -1.341  -2.685  -0.748  0.00  0.00    -0.820 NA
ATOM     17  H   LIG    1       -1.360  -3.647  -0.445  0.00  0.00    +0.380 HD
ATOM     18  H   LIG    1       -1.757  -2.585  -1.662  0.00  0.00    +0.370 HD
ENDBRANCH   4  16
BRANCH  13  19
ATOM     19  O   LIG    1        0.168  -3.373   1.434  0.00  0.00    -0.500 OA
ATOM     20  H   LIG    1        0.467  -3.392   2.353  0.00  0.00    +0.400 HD
ENDBRANCH  13  19
TORSDOF 2
ENDMDL
MODEL      262
REMARK  Name = ZINC000019606478
REMARK                            x       y       z     vdW  Elec       q    Type
REMARK                         _______ _______ _______ _____ _____    ______ ____
ROOT
ATOM      1  O   LIG    1        0.002  -0.004   0.002  0.00  0.00    -0.540 OA
ATOM      2  C   LIG    1       -0.014   1.212   0.009  0.00  0.00    +0.700 A 
ATOM      3  N   LIG    1       -1.194   1.859   0.029  0.00  0.00    -0.640 N 
ATOM      4  H   LIG    1       -2.020   1.351   0.037  0.00  0.00    +0.440 HD
ATOM      5  C   LIG    1       -1.238   3.226   0.037  0.00  0.00    +0.360 A 
ATOM      6  C   LIG    1       -0.088   3.933   0.025  0.00  0.00    -0.260 A 
ATOM      7  C   LIG    1        1.146   3.239   0.004  0.00  0.00    +0.560 A 
ATOM      8  O   LIG    1        2.197   3.855  -0.008  0.00  0.00    -0.490 OA
ATOM      9  N   LIG    1        1.147   1.891   0.001  0.00  0.00    -0.660 N 
ATOM     10  H   LIG    1        1.989   1.409  -0.013  0.00  0.00    +0.430 HD
ENDROOT
BRANCH   6  11
ATOM     11  C   LIG    1       -0.117   5.440   0.035  0.00  0.00    +0.280 C 
BRANCH  11  12
ATOM     12  N   LIG    1        0.014   5.923   1.415  0.00  0.00    -0.530 NA
ATOM     13  C   LIG    1       -0.878   5.183   2.320  0.00  0.00    +0.130 C 
ATOM     14  C   LIG    1       -0.666   5.677   3.753  0.00  0.00    +0.220 C 
ATOM     15  O   LIG    1       -0.893   7.088   3.805  0.00  0.00    -0.380 OA
ATOM     16  C   LIG    1       -0.041   7.840   2.937  0.00  0.00    +0.220 C 
ATOM     17  C   LIG    1       -0.246   7.368   1.494  0.00  0.00    +0.160 C 
ENDBRANCH  11  12
ENDBRANCH   6  11
TORSDOF 2
ENDMDL
MODEL      263
REMARK  Name = ZINC000002262057
REMARK                            x       y       z     vdW  Elec       q    Type
REMARK                         _______ _______ _______ _____ _____    ______ ____
ROOT
ATOM      1  N   SER A  1       -1.175   3.240  -0.667  0.00  0.00    -0.470 N 
ATOM      2  H1  SER A  1       -1.174   2.400  -0.109  0.00  0.00    +0.440 HD
ATOM      3  H2  SER A  1       -0.454   3.864  -0.336  0.00  0.00    +0.410 HD
ENDROOT
BRANCH   1   4
ATOM      4  C   UNK A  0       -0.916   2.896  -2.072  0.00  0.00    +0.200 C 
ATOM      5  C   UNK A  0        0.416   2.136  -2.192  0.00  0.00    +0.090 C 
ATOM      6  C   UNK A  0        0.827   2.090  -3.677  0.00  0.00    -0.280 C 
ATOM      7  S   UNK A  0        0.080   3.583  -4.425  0.00  0.00    +2.410 S 
ATOM      8  O   UNK A  0       -0.888   3.192  -5.389  0.00  0.00    -0.910 OA
ATOM      9  O   UNK A  0        1.109   4.494  -4.784  0.00  0.00    -0.920 OA
ATOM     10  C   UNK A  0       -0.770   4.187  -2.917  0.00  0.00    -0.320 C 
ENDBRANCH   1   4
BRANCH   1  11
ATOM     11  CA  SER A  1       -2.482   3.900  -0.557  0.00  0.00    +0.080 C 
BRANCH  11  13
ATOM     12  O   SER A  1       -4.609   3.319  -1.415  0.00  0.00    -0.640 OA
ATOM     13  C   SER A  1       -3.571   2.921  -0.914  0.00  0.00    +0.500 C 
ATOM     14  OXT SER A  1       -3.412   1.730  -0.707  0.00  0.00    -0.650 OA
ENDBRANCH  11  13
BRANCH  11  15
ATOM     15  CB  SER A  1       -2.687   4.391   0.877  0.00  0.00    +0.220 C 
BRANCH  15  16
ATOM     16  OG  SER A  1       -2.755   3.268   1.759  0.00  0.00    -0.560 OA
ATOM     17  H   SER A  1       -2.885   3.505   2.688  0.00  0.00    +0.390 HD
ENDBRANCH  15  16
ENDBRANCH  11  15
ENDBRANCH   1  11
TORSDOF 5
ENDMDL
MODEL      264
REMARK  Name = ZINC000006066810
REMARK                            x       y       z     vdW  Elec       q    Type
REMARK                         _______ _______ _______ _____ _____    ______ ____
ROOT
ATOM      1  C   LIG    1       -0.019   1.526   0.010  0.00  0.00    -0.000 C 
ATOM      2  C   LIG    1        0.002  -0.004   0.002  0.00  0.00    +0.390 C 
ATOM      3  O   LIG    1        0.666  -0.462  -1.177  0.00  0.00    -0.380 OA
ATOM      4  C   LIG    1        2.043  -0.078  -1.267  0.00  0.00    +0.250 C 
ATOM      5  C   LIG    1        2.771  -0.601  -0.028  0.00  0.00    +0.120 C 
ATOM      6  O   LIG    1        4.127  -0.161  -0.002  0.00  0.00    -0.380 OA
ATOM      7  C   LIG    1        4.864  -0.662   1.118  0.00  0.00    +0.340 C 
ATOM      8  C   LIG    1        4.221  -0.189   2.423  0.00  0.00    +0.150 C 
ATOM      9  C   LIG    1        2.750  -0.621   2.460  0.00  0.00    +0.210 C 
ATOM     10  C   LIG    1        2.053  -0.065   1.218  0.00  0.00    +0.150 C 
ATOM     11  O   LIG    1        0.690  -0.476   1.166  0.00  0.00    -0.360 OA
ENDROOT
BRANCH   9  12
ATOM     12  O   LIG    1        2.127  -0.104   3.637  0.00  0.00    -0.550 OA
ATOM     13  H   LIG    1        2.532  -0.406   4.462  0.00  0.00    +0.390 HD
ENDBRANCH   9  12
BRANCH   8  14
ATOM     14  O   LIG    1        4.914  -0.767   3.531  0.00  0.00    -0.550 OA
ATOM     15  H   LIG    1        5.851  -0.534   3.574  0.00  0.00    +0.390 HD
ENDBRANCH   8  14
BRANCH   7  16
ATOM     16  O   LIG    1        4.866  -2.091   1.084  0.00  0.00    -0.560 OA
ATOM     17  H   LIG    1        5.267  -2.465   0.287  0.00  0.00    +0.390 HD
ENDBRANCH   7  16
TORSDOF 3
ENDMDL
MODEL      265
REMARK  Name = ZINC000124732515
REMARK                            x       y       z     vdW  Elec       q    Type
REMARK                         _______ _______ _______ _____ _____    ______ ____
ROOT
ATOM      1  N   LIG    1        1.440  -3.604   1.986  0.00  0.00    -0.650 NA
ATOM      2  H   LIG    1        2.020  -3.723   1.170  0.00  0.00    +0.350 HD
ENDROOT
BRANCH   1   3
ATOM      3  C   LIG    1        1.499  -4.790   2.851  0.00  0.00    +0.200 C 
ATOM      4  C   LIG    1        2.793  -4.786   3.690  0.00  0.00    +0.110 C 
ATOM      5  C   LIG    1        3.508  -6.043   3.245  0.00  0.00    +0.530 C 
ATOM      6  N   LIG    1        2.768  -6.666   2.319  0.00  0.00    -0.680 N 
ATOM      7  H   LIG    1        3.043  -7.496   1.899  0.00  0.00    +0.410 HD
ATOM      8  O   LIG    1        4.580  -6.427   3.662  0.00  0.00    -0.480 OA
ATOM      9  C   LIG    1        1.614  -6.049   2.021  0.00  0.00    +0.500 C 
ATOM     10  O   LIG    1        0.798  -6.439   1.213  0.00  0.00    -0.470 OA
ENDBRANCH   1   3
BRANCH   1  11
ATOM     11  C   LIG    1        0.054  -3.297   1.607  0.00  0.00    +0.300 C 
BRANCH  11  16
ATOM     12  C   LIG    1       -0.018   1.461   0.010  0.00  0.00    +0.360 C 
ATOM     13  N   LIG    1        0.002  -0.004   0.002  0.00  0.00    -0.370 N 
ATOM     14  C   LIG    1        0.008  -0.792  -1.094  0.00  0.00    +0.230 A 
ATOM     15  C   LIG    1        0.027  -2.079  -0.676  0.00  0.00    -0.120 A 
ATOM     16  C   LIG    1        0.034  -2.078   0.723  0.00  0.00    +0.070 A 
ATOM     17  N   LIG    1        0.025  -0.834   1.130  0.00  0.00    -0.270 NA
ENDBRANCH  11  16
ENDBRANCH   1  11
TORSDOF 3
ENDMDL
MODEL      266
REMARK  Name = ZINC000124732682
REMARK                            x       y       z     vdW  Elec       q    Type
REMARK                         _______ _______ _______ _____ _____    ______ ____
ROOT
ATOM      1  N   LIG    1        1.440  -3.604   1.986  0.00  0.00    -0.660 NA
ATOM      2  H   LIG    1        2.020  -3.723   1.170  0.00  0.00    +0.360 HD
ENDROOT
BRANCH   1   3
ATOM      3  C   LIG    1        1.499  -4.790   2.851  0.00  0.00    +0.160 C 
ATOM      4  C   LIG    1        2.896  -5.441   2.785  0.00  0.00    +0.100 C 
ATOM      5  C   LIG    1        3.398  -5.346   4.210  0.00  0.00    +0.540 C 
ATOM      6  N   LIG    1        2.468  -4.751   4.966  0.00  0.00    -0.680 N 
ATOM      7  H   LIG    1        2.588  -4.590   5.915  0.00  0.00    +0.420 HD
ATOM      8  O   LIG    1        4.473  -5.745   4.603  0.00  0.00    -0.480 OA
ATOM      9  C   LIG    1        1.355  -4.396   4.305  0.00  0.00    +0.540 C 
ATOM     10  O   LIG    1        0.392  -3.847   4.795  0.00  0.00    -0.470 OA
ENDBRANCH   1   3
BRANCH   1  11
ATOM     11  C   LIG    1        0.054  -3.297   1.607  0.00  0.00    +0.300 C 
BRANCH  11  16
ATOM     12  C   LIG    1       -0.018   1.461   0.010  0.00  0.00    +0.360 C 
ATOM     13  N   LIG    1        0.002  -0.004   0.002  0.00  0.00    -0.370 N 
ATOM     14  C   LIG    1        0.008  -0.792  -1.094  0.00  0.00    +0.220 A 
ATOM     15  C   LIG    1        0.027  -2.079  -0.676  0.00  0.00    -0.120 A 
ATOM     16  C   LIG    1        0.034  -2.078   0.723  0.00  0.00    +0.070 A 
ATOM     17  N   LIG    1        0.025  -0.834   1.130  0.00  0.00    -0.270 NA
ENDBRANCH  11  16
ENDBRANCH   1  11
TORSDOF 3
ENDMDL
MODEL      267
REMARK  Name = ZINC000006031663
REMARK                            x       y       z     vdW  Elec       q    Type
REMARK                         _______ _______ _______ _____ _____    ______ ____
ROOT
ATOM      1  C   LIG    1       -0.019   1.526   0.010  0.00  0.00    +0.090 C 
ATOM      2  C   LIG    1        0.002  -0.004   0.002  0.00  0.00    +0.300 C 
ATOM      3  O   LIG    1       -1.339  -0.496   0.006  0.00  0.00    -0.380 OA
ATOM      4  C   LIG    1       -1.445  -1.924   0.056  0.00  0.00    +0.260 C 
ATOM      5  C   LIG    1       -0.709  -2.418   1.302  0.00  0.00    +0.130 C 
ATOM      6  O   LIG    1       -0.684  -3.843   1.357  0.00  0.00    -0.390 OA
ATOM      7  C   LIG    1       -0.045  -4.354   2.531  0.00  0.00    +0.310 C 
ATOM      8  C   LIG    1        1.410  -3.885   2.581  0.00  0.00    +0.140 C 
ATOM      9  C   LIG    1        1.461  -2.353   2.517  0.00  0.00    +0.210 C 
ATOM     10  C   LIG    1        0.734  -1.900   1.251  0.00  0.00    +0.150 C 
ATOM     11  O   LIG    1        0.700  -0.476   1.160  0.00  0.00    -0.370 OA
ENDROOT
BRANCH   9  12
ATOM     12  O   LIG    1        2.822  -1.919   2.475  0.00  0.00    -0.540 OA
ATOM     13  H   LIG    1        3.344  -2.189   3.243  0.00  0.00    +0.390 HD
ENDBRANCH   9  12
BRANCH   8  14
ATOM     14  O   LIG    1        2.011  -4.329   3.799  0.00  0.00    -0.550 OA
ATOM     15  H   LIG    1        2.017  -5.290   3.907  0.00  0.00    +0.400 HD
ENDBRANCH   8  14
BRANCH   7  16
ATOM     16  O   LIG    1       -0.079  -5.783   2.505  0.00  0.00    -0.540 OA
ATOM     17  H   LIG    1       -0.972  -6.154   2.481  0.00  0.00    +0.400 HD
ENDBRANCH   7  16
TORSDOF 3
ENDMDL
MODEL      268
REMARK  Name = ZINC000000039855
REMARK                            x       y       z     vdW  Elec       q    Type
REMARK                         _______ _______ _______ _____ _____    ______ ____
ROOT
ATOM      1  C   LIG    1       -0.018   1.461   0.010  0.00  0.00    +0.360 C 
ATOM      2  N   LIG    1        0.002  -0.004   0.002  0.00  0.00    -0.420 N 
ATOM      3  C   LIG    1        0.009  -0.814  -1.112  0.00  0.00    +0.110 A 
ATOM      4  N   LIG    1        0.028  -2.072  -0.729  0.00  0.00    -0.330 NA
ATOM      5  C   LIG    1        0.035  -2.124   0.604  0.00  0.00    -0.090 A 
ATOM      6  C   LIG    1        0.054  -3.219   1.585  0.00  0.00    +0.600 A 
ATOM      7  O   LIG    1        0.065  -4.380   1.223  0.00  0.00    -0.470 OA
ATOM      8  N   LIG    1        0.052  -2.903   2.898  0.00  0.00    -0.550 N 
ATOM      9  C   LIG    1        0.067  -3.974   3.898  0.00  0.00    +0.360 C 
ATOM     10  C   LIG    1        0.041  -1.622   3.302  0.00  0.00    +0.720 A 
ATOM     11  O   LIG    1        0.043  -1.385   4.494  0.00  0.00    -0.520 OA
ATOM     12  N   LIG    1        0.027  -0.593   2.438  0.00  0.00    -0.520 N 
ATOM     13  C   LIG    1        0.015   0.780   2.950  0.00  0.00    +0.350 C 
ATOM     14  C   LIG    1        0.023  -0.809   1.083  0.00  0.00    +0.300 A 
ENDROOT
BRANCH   3  15
ATOM     15  C   LIG    1       -0.004  -0.349  -2.502  0.00  0.00    +0.550 C 
ATOM     16  O   LIG    1        0.004  -1.153  -3.411  0.00  0.00    -0.410 OA
ENDBRANCH   3  15
TORSDOF 1
ENDMDL
MODEL      269
REMARK  Name = ZINC000005131793
REMARK                            x       y       z     vdW  Elec       q    Type
REMARK                         _______ _______ _______ _____ _____    ______ ____
ROOT
ATOM      1  C   LIG    1       -4.324  -4.365  -0.465  0.00  0.00    +0.230 C 
ENDROOT
BRANCH   1   2
ATOM      2  O   LIG    1       -4.877  -3.837  -1.671  0.00  0.00    -0.540 OA
ATOM      3  H   LIG    1       -4.438  -4.147  -2.475  0.00  0.00    +0.370 HD
ENDBRANCH   1   2
BRANCH   1   4
ATOM      4  C   LIG    1       -2.852  -3.962  -0.358  0.00  0.00    +0.150 C 
BRANCH   4   5
ATOM      5  O   LIG    1       -2.756  -2.542  -0.228  0.00  0.00    -0.360 OA
BRANCH   5   6
ATOM      6  C   LIG    1       -1.416  -2.058  -0.121  0.00  0.00    +0.150 C 
BRANCH   6   7
ATOM      7  C   LIG    1       -1.433  -0.534   0.013  0.00  0.00    +0.230 C 
BRANCH   7   8
ATOM      8  O   LIG    1       -2.066  -0.171   1.242  0.00  0.00    -0.540 OA
ATOM      9  H   LIG    1       -1.626  -0.521   2.029  0.00  0.00    +0.370 HD
ENDBRANCH   7   8
BRANCH   7  10
ATOM     10  C   LIG    1        0.002  -0.004   0.002  0.00  0.00    +0.160 C 
BRANCH  10  11
ATOM     11  O   LIG    1       -0.017   1.425   0.010  0.00  0.00    -0.560 OA
ATOM     12  H   LIG    1        0.861   1.830   0.004  0.00  0.00    +0.380 HD
ENDBRANCH  10  11
ENDBRANCH   7  10
ENDBRANCH   6   7
ENDBRANCH   5   6
ENDBRANCH   4   5
ENDBRANCH   1   4
BRANCH   1  13
ATOM     13  C   LIG    1       -4.435  -5.891  -0.479  0.00  0.00    +0.150 C 
BRANCH  13  14
ATOM     14  O   LIG    1       -5.812  -6.269  -0.460  0.00  0.00    -0.360 OA
BRANCH  14  15
ATOM     15  C   LIG    1       -6.028  -7.682  -0.471  0.00  0.00    +0.150 C 
BRANCH  15  16
ATOM     16  C   LIG    1       -7.531  -7.969  -0.450  0.00  0.00    +0.220 C 
BRANCH  16  17
ATOM     17  O   LIG    1       -8.125  -7.486  -1.657  0.00  0.00    -0.540 OA
ATOM     18  H   LIG    1       -7.769  -7.891  -2.460  0.00  0.00    +0.370 HD
ENDBRANCH  16  17
BRANCH  16  19
ATOM     19  C   LIG    1       -7.760  -9.477  -0.336  0.00  0.00    +0.160 C 
BRANCH  19  20
ATOM     20  O   LIG    1       -9.159  -9.737  -0.199  0.00  0.00    -0.560 OA
ATOM     21  H   LIG    1       -9.379 -10.676  -0.122  0.00  0.00    +0.380 HD
ENDBRANCH  19  20
ENDBRANCH  16  19
ENDBRANCH  15  16
ENDBRANCH  14  15
ENDBRANCH  13  14
ENDBRANCH   1  13
TORSDOF 15
ENDMDL
MODEL      270
REMARK  Name = ZINC000001730667
REMARK                            x       y       z     vdW  Elec       q    Type
REMARK                         _______ _______ _______ _____ _____    ______ ____
ROOT
ATOM      1  SG  CYS A  1        0.982   3.636   1.212  0.00  0.00    -0.320 S 
ENDROOT
BRANCH   1   2
ATOM      2  CB  CYS A  1       -0.720   3.008   1.225  0.00  0.00    +0.170 C 
BRANCH   2   3
ATOM      3  CA  CYS A  1       -0.699   1.479   1.216  0.00  0.00    +0.120 C 
BRANCH   3   4
ATOM      4  N   CYS A  1       -0.012   1.005   0.008  0.00  0.00    -0.610 N 
ATOM      5  H1  CYS A  1       -0.500   1.339  -0.810  0.00  0.00    +0.430 HD
ATOM      6  H2  CYS A  1        0.935   1.354   0.000  0.00  0.00    +0.410 HD
ATOM      7  H3  CYS A  1        0.002  -0.004   0.002  0.00  0.00    +0.440 HD
ENDBRANCH   3   4
BRANCH   3   8
ATOM      8  C   CYS A  1       -2.113   0.957   1.227  0.00  0.00    +0.490 C 
ATOM      9  OXT CYS A  1       -2.859   1.236   2.150  0.00  0.00    -0.620 OA
ATOM     10  O   CYS A  1       -2.511   0.256   0.312  0.00  0.00    -0.660 OA
ENDBRANCH   3   8
ENDBRANCH   2   3
ENDBRANCH   1   2
BRANCH   1  11
ATOM     11  CB  CYS A  1        0.753   5.436   1.224  0.00  0.00    +0.170 C 
BRANCH  11  12
ATOM     12  CA  CYS A  1        2.120   6.124   1.214  0.00  0.00    +0.120 C 
BRANCH  12  13
ATOM     13  N   CYS A  1        2.808   5.828  -0.049  0.00  0.00    -0.610 N 
ATOM     14  H1  CYS A  1        2.933   4.831  -0.139  0.00  0.00    +0.410 HD
ATOM     15  H2  CYS A  1        3.709   6.282  -0.055  0.00  0.00    +0.440 HD
ATOM     16  H3  CYS A  1        2.255   6.168  -0.821  0.00  0.00    +0.430 HD
ENDBRANCH  12  13
BRANCH  12  17
ATOM     17  C   CYS A  1        1.933   7.613   1.348  0.00  0.00    +0.490 C 
ATOM     18  OXT CYS A  1        2.167   8.344   0.401  0.00  0.00    -0.660 OA
ATOM     19  O   CYS A  1        1.548   8.087   2.403  0.00  0.00    -0.620 OA
ENDBRANCH  12  17
ENDBRANCH  11  12
ENDBRANCH   1  11
TORSDOF 8
ENDMDL
MODEL      271
REMARK  Name = ZINC000247722494
REMARK                            x       y       z     vdW  Elec       q    Type
REMARK                         _______ _______ _______ _____ _____    ______ ____
ROOT
ATOM      1  C   LIG    1       -4.315  -4.371   0.504  0.00  0.00    +0.230 C 
ENDROOT
BRANCH   1   2
ATOM      2  O   LIG    1       -4.845  -3.855   1.727  0.00  0.00    -0.540 OA
ATOM      3  H   LIG    1       -4.390  -4.174   2.518  0.00  0.00    +0.370 HD
ENDBRANCH   1   2
BRANCH   1   4
ATOM      4  C   LIG    1       -2.845  -3.966   0.374  0.00  0.00    +0.150 C 
BRANCH   4   5
ATOM      5  O   LIG    1       -2.751  -2.545   0.258  0.00  0.00    -0.360 OA
BRANCH   5   6
ATOM      6  C   LIG    1       -1.413  -2.059   0.130  0.00  0.00    +0.150 C 
BRANCH   6   7
ATOM      7  C   LIG    1       -1.433  -0.534   0.013  0.00  0.00    +0.220 C 
BRANCH   7   8
ATOM      8  O   LIG    1       -2.089  -0.158  -1.200  0.00  0.00    -0.540 OA
ATOM      9  H   LIG    1       -1.665  -0.500  -1.999  0.00  0.00    +0.370 HD
ENDBRANCH   7   8
BRANCH   7  10
ATOM     10  C   LIG    1        0.002  -0.004   0.002  0.00  0.00    +0.160 C 
BRANCH  10  11
ATOM     11  O   LIG    1       -0.017   1.425   0.010  0.00  0.00    -0.560 OA
ATOM     12  H   LIG    1        0.861   1.830   0.004  0.00  0.00    +0.380 HD
ENDBRANCH  10  11
ENDBRANCH   7  10
ENDBRANCH   6   7
ENDBRANCH   5   6
ENDBRANCH   4   5
ENDBRANCH   1   4
BRANCH   1  13
ATOM     13  C   LIG    1       -4.425  -5.897   0.504  0.00  0.00    +0.150 C 
BRANCH  13  14
ATOM     14  O   LIG    1       -5.803  -6.275   0.508  0.00  0.00    -0.360 OA
BRANCH  14  15
ATOM     15  C   LIG    1       -6.019  -7.687   0.508  0.00  0.00    +0.150 C 
BRANCH  15  16
ATOM     16  C   LIG    1       -7.521  -7.974   0.512  0.00  0.00    +0.220 C 
BRANCH  16  17
ATOM     17  O   LIG    1       -8.100  -7.504  -0.707  0.00  0.00    -0.540 OA
ATOM     18  H   LIG    1       -7.733  -7.916  -1.501  0.00  0.00    +0.370 HD
ENDBRANCH  16  17
BRANCH  16  19
ATOM     19  C   LIG    1       -7.753  -9.481   0.638  0.00  0.00    +0.160 C 
BRANCH  19  20
ATOM     20  O   LIG    1       -9.153  -9.740   0.759  0.00  0.00    -0.560 OA
ATOM     21  H   LIG    1       -9.374 -10.678   0.843  0.00  0.00    +0.380 HD
ENDBRANCH  19  20
ENDBRANCH  16  19
ENDBRANCH  15  16
ENDBRANCH  14  15
ENDBRANCH  13  14
ENDBRANCH   1  13
TORSDOF 15
ENDMDL
MODEL      272
REMARK  Name = ZINC000065406102
REMARK                            x       y       z     vdW  Elec       q    Type
REMARK                         _______ _______ _______ _____ _____    ______ ____
ROOT
ATOM      1  N   LIG    1        0.688  -0.476  -1.203  0.00  0.00    -0.550 N 
ATOM      2  C   LIG    1        0.106  -0.736  -2.392  0.00  0.00    +0.650 A 
ATOM      3  N   LIG    1        1.077  -1.147  -3.235  0.00  0.00    -0.550 N 
ATOM      4  H   LIG    1        0.961  -1.405  -4.162  0.00  0.00    +0.460 HD
ATOM      5  N   LIG    1        2.283  -1.132  -2.520  0.00  0.00    -0.270 NA
ATOM      6  O   LIG    1       -1.077  -0.619  -2.656  0.00  0.00    -0.550 OA
ATOM      7  C   LIG    1        2.034  -0.726  -1.317  0.00  0.00    +0.250 A 
ENDROOT
BRANCH   1   9
ATOM      8  C   LIG    1       -0.019   1.526   0.010  0.00  0.00    +0.030 C 
ATOM      9  C   LIG    1        0.002  -0.004   0.002  0.00  0.00    +0.320 C 
ENDBRANCH   1   9
BRANCH   7  10
ATOM     10  C   LIG    1        3.052  -0.562  -0.218  0.00  0.00    +0.440 C 
BRANCH  10  11
ATOM     11  N   LIG    1        4.377  -0.936  -0.720  0.00  0.00    -0.990 NA
ATOM     12  C   LIG    1        5.194   0.049  -1.433  0.00  0.00    +0.320 C 
BRANCH  11  13
ATOM     13  S   LIG    1        4.949  -2.471  -0.483  0.00  0.00    +2.610 S 
ATOM     14  O   LIG    1        4.274  -2.921   0.684  0.00  0.00    -0.950 OA
ATOM     15  O   LIG    1        6.363  -2.325  -0.500  0.00  0.00    -0.950 OA
ATOM     16  C   LIG    1        4.387  -3.395  -1.939  0.00  0.00    -0.270 C 
ENDBRANCH  11  13
ENDBRANCH  10  11
ENDBRANCH   7  10
TORSDOF 4
ENDMDL
MODEL      273
REMARK  Name = ZINC000013207590
REMARK                            x       y       z     vdW  Elec       q    Type
REMARK                         _______ _______ _______ _____ _____    ______ ____
ROOT
ATOM      1  N   LIG    1        0.711  -0.489   1.189  0.00  0.00    -0.390 N 
ATOM      2  C   LIG    1        2.032  -0.734   1.290  0.00  0.00    +0.280 A 
ATOM      3  N   LIG    1        2.312  -1.156   2.496  0.00  0.00    -0.480 NA
ATOM      4  C   LIG    1        1.196  -1.205   3.229  0.00  0.00    +0.320 A 
ATOM      5  N   LIG    1        0.921  -1.569   4.537  0.00  0.00    -0.510 N 
ATOM      6  C   LIG    1        2.004  -2.024   5.413  0.00  0.00    +0.350 C 
ATOM      7  C   LIG    1       -0.341  -1.514   5.002  0.00  0.00    +0.710 A 
ATOM      8  O   LIG    1       -0.564  -1.842   6.152  0.00  0.00    -0.530 OA
ATOM      9  N   LIG    1       -1.361  -1.103   4.229  0.00  0.00    -0.550 N 
ATOM     10  C   LIG    1       -2.715  -1.057   4.785  0.00  0.00    +0.360 C 
ATOM     11  C   LIG    1       -1.155  -0.731   2.948  0.00  0.00    +0.600 A 
ATOM     12  O   LIG    1       -2.087  -0.360   2.257  0.00  0.00    -0.510 OA
ATOM     13  C   LIG    1        0.152  -0.777   2.418  0.00  0.00    -0.150 A 
ENDROOT
BRANCH   1  15
ATOM     14  C   LIG    1       -0.019   1.526   0.010  0.00  0.00    +0.040 C 
ATOM     15  C   LIG    1        0.002  -0.004   0.002  0.00  0.00    +0.310 C 
ENDBRANCH   1  15
BRANCH   2  16
ATOM     16  C   LIG    1        3.035  -0.548   0.181  0.00  0.00    +0.320 C 
BRANCH  16  17
ATOM     17  O   LIG    1        3.557   0.781   0.228  0.00  0.00    -0.560 OA
ATOM     18  H   LIG    1        4.211   0.972  -0.459  0.00  0.00    +0.390 HD
ENDBRANCH  16  17
ENDBRANCH   2  16
TORSDOF 3
ENDMDL
MODEL      274
REMARK  Name = ZINC000000287653
REMARK                            x       y       z     vdW  Elec       q    Type
REMARK                         _______ _______ _______ _____ _____    ______ ____
ROOT
ATOM      1  N   LIG    1        0.688  -0.476  -1.203  0.00  0.00    -0.490 N 
ATOM      2  C   LIG    1        0.102  -0.746  -2.429  0.00  0.00    +0.520 A 
ATOM      3  N   LIG    1        1.103  -1.167  -3.290  0.00  0.00    -0.640 N 
ATOM      4  H   LIG    1        0.982  -1.423  -4.218  0.00  0.00    +0.430 HD
ATOM      5  C   LIG    1        2.295  -1.160  -2.611  0.00  0.00    +0.350 A 
ATOM      6  N   LIG    1        3.579  -1.484  -2.990  0.00  0.00    -0.520 N 
ATOM      7  C   LIG    1        3.843  -1.941  -4.357  0.00  0.00    +0.340 C 
ATOM      8  C   LIG    1        4.591  -1.391  -2.108  0.00  0.00    +0.710 A 
ATOM      9  O   LIG    1        5.718  -1.685  -2.459  0.00  0.00    -0.530 OA
ATOM     10  N   LIG    1        4.380  -0.974  -0.846  0.00  0.00    -0.550 N 
ATOM     11  C   LIG    1        5.507  -0.881   0.085  0.00  0.00    +0.360 C 
ATOM     12  C   LIG    1        3.141  -0.643  -0.432  0.00  0.00    +0.580 A 
ATOM     13  O   LIG    1        2.955  -0.267   0.713  0.00  0.00    -0.500 OA
ATOM     14  N   LIG    1       -1.161  -0.625  -2.721  0.00  0.00    -0.330 NA
ATOM     15  C   LIG    1        2.063  -0.735  -1.333  0.00  0.00    -0.080 A 
ENDROOT
BRANCH  14  16
ATOM     16  N   LIG    1       -1.615  -0.935  -4.009  0.00  0.00    -0.790 N 
ATOM     17  H   LIG    1       -0.989  -1.239  -4.684  0.00  0.00    +0.360 HD
ATOM     18  H   LIG    1       -2.556  -0.845  -4.226  0.00  0.00    +0.420 HD
ENDBRANCH  14  16
BRANCH   1  20
ATOM     19  C   LIG    1       -0.019   1.526   0.010  0.00  0.00    +0.020 C 
ATOM     20  C   LIG    1        0.002  -0.004   0.002  0.00  0.00    +0.330 C 
ENDBRANCH   1  20
TORSDOF 2
ENDMDL
MODEL      275
REMARK  Name = ZINC000029723145
REMARK                            x       y       z     vdW  Elec       q    Type
REMARK                         _______ _______ _______ _____ _____    ______ ____
ROOT
ATOM      1  N   LIG    1        0.599  -3.735  -4.436  0.00  0.00    -0.740 N 
ATOM      2  H   LIG    1       -0.045  -4.026  -3.771  0.00  0.00    +0.400 HD
ATOM      3  C   LIG    1        1.595  -4.559  -4.815  0.00  0.00    +0.710 C 
ATOM      4  N   LIG    1        1.698  -5.787  -4.270  0.00  0.00    -0.710 N 
ATOM      5  H   LIG    1        1.055  -6.078  -3.606  0.00  0.00    +0.410 HD
ATOM      6  O   LIG    1        2.402  -4.193  -5.648  0.00  0.00    -0.590 OA
ENDROOT
BRANCH   1   7
ATOM      7  C   LIG    1        0.487  -2.399  -5.027  0.00  0.00    +0.280 C 
BRANCH   7   8
ATOM      8  C   LIG    1       -0.721  -1.675  -4.428  0.00  0.00    +0.010 C 
BRANCH   8   9
ATOM      9  C   LIG    1       -0.837  -0.280  -5.046  0.00  0.00    +0.020 C 
BRANCH   9  11
ATOM     10  C   LIG    1       -2.161   1.838  -5.065  0.00  0.00    +0.000 C 
ATOM     11  C   LIG    1       -2.045   0.444  -4.447  0.00  0.00    +0.000 C 
ENDBRANCH   9  11
ENDBRANCH   8   9
ENDBRANCH   7   8
ENDBRANCH   1   7
BRANCH   4  12
ATOM     12  C   LIG    1        2.782  -6.683  -4.683  0.00  0.00    +0.260 C 
BRANCH  12  13
ATOM     13  C   LIG    1        2.368  -8.113  -4.449  0.00  0.00    +0.530 C 
ATOM     14  O   LIG    1        1.519  -8.371  -3.622  0.00  0.00    -0.520 OA
ATOM     15  N   LIG    1        2.940  -9.105  -5.160  0.00  0.00    -0.840 N 
ATOM     16  H   LIG    1        2.726 -10.030  -4.961  0.00  0.00    +0.410 HD
ATOM     17  H   LIG    1        3.567  -8.893  -5.870  0.00  0.00    +0.410 HD
ENDBRANCH  12  13
BRANCH  12  18
ATOM     18  C   LIG    1        4.018  -6.380  -3.876  0.00  0.00    +0.510 C 
ATOM     19  O   LIG    1        3.917  -5.882  -2.775  0.00  0.00    -0.510 OA
ATOM     20  N   LIG    1        5.237  -6.662  -4.379  0.00  0.00    -0.850 N 
ATOM     21  H   LIG    1        6.028  -6.534  -3.832  0.00  0.00    +0.410 HD
ATOM     22  H   LIG    1        5.322  -6.992  -5.287  0.00  0.00    +0.400 HD
ENDBRANCH  12  18
ENDBRANCH   4  12
TORSDOF 7
ENDMDL
MODEL      276
REMARK  Name = ZINC000006249181
REMARK                            x       y       z     vdW  Elec       q    Type
REMARK                         _______ _______ _______ _____ _____    ______ ____
ROOT
ATOM      1  C   LIG    1        2.795  -0.825  -2.739  0.00  0.00    +0.030 C 
ENDROOT
BRANCH   1   2
ATOM      2  C   LIG    1        2.207  -0.042  -1.563  0.00  0.00    +0.270 C 
BRANCH   2   3
ATOM      3  N   LIG    1        0.796  -0.399  -1.397  0.00  0.00    -1.120 NA
ATOM      4  H   LIG    1        0.327  -0.866  -2.105  0.00  0.00    +0.420 HD
BRANCH   3   6
ATOM      5  C   LIG    1       -0.022   1.810   0.012  0.00  0.00    -0.280 C 
ATOM      6  S   LIG    1        0.002  -0.004   0.002  0.00  0.00    +2.620 S 
ATOM      7  O   LIG    1       -1.309  -0.519  -0.182  0.00  0.00    -0.960 OA
ATOM      8  O   LIG    1        0.845  -0.497   1.035  0.00  0.00    -0.960 OA
ENDBRANCH   3   6
ENDBRANCH   2   3
ENDBRANCH   1   2
BRANCH   1   9
ATOM      9  C   LIG    1        4.269  -0.452  -2.913  0.00  0.00    +0.270 C 
BRANCH   9  10
ATOM     10  N   LIG    1        4.832  -1.202  -4.040  0.00  0.00    -1.120 NA
ATOM     11  H   LIG    1        4.357  -1.966  -4.400  0.00  0.00    +0.420 HD
BRANCH  10  12
ATOM     12  S   LIG    1        6.281  -0.743  -4.697  0.00  0.00    +2.620 S 
ATOM     13  O   LIG    1        6.126   0.647  -4.952  0.00  0.00    -0.960 OA
ATOM     14  O   LIG    1        6.491  -1.663  -5.759  0.00  0.00    -0.960 OA
ATOM     15  C   LIG    1        7.487  -1.015  -3.371  0.00  0.00    -0.280 C 
ENDBRANCH  10  12
ENDBRANCH   9  10
ENDBRANCH   1   9
TORSDOF 6
ENDMDL
MODEL      277
REMARK  Name = ZINC000040387200
REMARK                            x       y       z     vdW  Elec       q    Type
REMARK                         _______ _______ _______ _____ _____    ______ ____
ROOT
ATOM      1  C   LIG    1        2.120  -0.064  -1.553  0.00  0.00    +0.640 C 
ATOM      2  N   LIG    1        2.739   0.555  -0.597  0.00  0.00    -0.650 NA
ATOM      3  C   LIG    1        4.137   0.962  -0.688  0.00  0.00    +0.420 C 
ATOM      4  N   LIG    1        4.840   0.182  -1.714  0.00  0.00    -0.540 NA
ATOM      5  C   LIG    1        4.086   0.208  -2.981  0.00  0.00    +0.430 C 
ATOM      6  N   LIG    1        2.770  -0.398  -2.721  0.00  0.00    -0.750 N 
ATOM      7  H   LIG    1        2.369  -1.011  -3.357  0.00  0.00    +0.410 HD
ENDROOT
BRANCH   4   8
ATOM      8  C   LIG    1        6.209   0.678  -1.906  0.00  0.00    +0.170 C 
ATOM      9  C   LIG    1        6.623   1.081  -3.323  0.00  0.00    +0.020 C 
ATOM     10  C   LIG    1        6.382   2.156  -2.261  0.00  0.00    -0.010 C 
ENDBRANCH   4   8
BRANCH   1  11
ATOM     11  N   LIG    1        0.796  -0.399  -1.397  0.00  0.00    -1.040 N 
ATOM     12  H   LIG    1        0.327  -0.866  -2.105  0.00  0.00    +0.430 HD
BRANCH  11  14
ATOM     13  C   LIG    1       -0.022   1.810   0.012  0.00  0.00    -0.270 C 
ATOM     14  S   LIG    1        0.002  -0.004   0.002  0.00  0.00    +2.620 S 
ATOM     15  O   LIG    1       -1.309  -0.519  -0.182  0.00  0.00    -0.950 OA
ATOM     16  O   LIG    1        0.845  -0.497   1.035  0.00  0.00    -0.920 OA
ENDBRANCH  11  14
ENDBRANCH   1  11
TORSDOF 3
ENDMDL
MODEL      278
REMARK  Name = ZINC000040387188
REMARK                            x       y       z     vdW  Elec       q    Type
REMARK                         _______ _______ _______ _____ _____    ______ ____
ROOT
ATOM      1  C   LIG    1        2.211  -0.494  -1.727  0.00  0.00    +0.640 C 
ATOM      2  N   LIG    1        2.680   0.303  -0.820  0.00  0.00    -0.650 NA
ATOM      3  C   LIG    1        4.029   0.858  -0.871  0.00  0.00    +0.390 C 
ATOM      4  N   LIG    1        4.891   0.050  -1.742  0.00  0.00    -0.560 NA
ATOM      5  C   LIG    1        4.241  -0.163  -3.048  0.00  0.00    +0.430 C 
ATOM      6  N   LIG    1        2.983  -0.886  -2.799  0.00  0.00    -0.750 N 
ATOM      7  H   LIG    1        2.703  -1.613  -3.376  0.00  0.00    +0.410 HD
ENDROOT
BRANCH   1   8
ATOM      8  N   LIG    1        0.923  -0.962  -1.616  0.00  0.00    -1.040 N 
ATOM      9  H   LIG    1        0.565  -1.562  -2.288  0.00  0.00    +0.430 HD
BRANCH   8  11
ATOM     10  C   LIG    1       -0.241   1.286  -0.555  0.00  0.00    -0.270 C 
ATOM     11  S   LIG    1       -0.018  -0.500  -0.333  0.00  0.00    +2.620 S 
ATOM     12  O   LIG    1       -1.246  -1.185  -0.535  0.00  0.00    -0.950 OA
ATOM     13  O   LIG    1        0.790  -0.764   0.806  0.00  0.00    -0.920 OA
ENDBRANCH   8  11
ENDBRANCH   1   8
BRANCH   4  14
ATOM     14  C   LIG    1        6.209   0.678  -1.906  0.00  0.00    +0.210 C 
BRANCH  14  15
ATOM     15  C   LIG    1        6.943   0.682  -0.564  0.00  0.00    +0.180 C 
BRANCH  15  16
ATOM     16  O   LIG    1        7.192  -0.664  -0.152  0.00  0.00    -0.560 OA
ATOM     17  H   LIG    1        7.655  -0.737   0.693  0.00  0.00    +0.380 HD
ENDBRANCH  15  16
ENDBRANCH  14  15
ENDBRANCH   4  14
TORSDOF 5
ENDMDL
MODEL      279
REMARK  Name = ZINC000040457308
REMARK                            x       y       z     vdW  Elec       q    Type
REMARK                         _______ _______ _______ _____ _____    ______ ____
ROOT
ATOM      1  C   LIG    1       -1.689  -1.671  -0.680  0.00  0.00    +0.390 A 
ATOM      2  N   LIG    1       -0.745  -2.325  -1.348  0.00  0.00    -0.200 NA
ATOM      3  N   LIG    1       -1.040  -3.403  -1.992  0.00  0.00    -0.210 NA
ATOM      4  C   LIG    1       -2.287  -3.860  -1.987  0.00  0.00    +0.390 A 
ATOM      5  N   LIG    1       -3.231  -3.207  -1.319  0.00  0.00    -0.210 NA
ATOM      6  N   LIG    1       -2.935  -2.131  -0.671  0.00  0.00    -0.210 NA
ENDROOT
BRANCH   1   7
ATOM      7  N   LIG    1       -1.372  -0.511   0.012  0.00  0.00    -0.700 N 
ATOM      8  H   LIG    1       -2.061  -0.036   0.503  0.00  0.00    +0.420 HD
BRANCH   7  10
ATOM      9  C   LIG    1       -0.019   1.526   0.010  0.00  0.00    +0.050 C 
ATOM     10  C   LIG    1        0.002  -0.004   0.002  0.00  0.00    +0.450 C 
BRANCH  10  11
ATOM     11  O   LIG    1        0.693  -0.477   1.160  0.00  0.00    -0.560 OA
ATOM     12  H   LIG    1        0.294  -0.202   1.996  0.00  0.00    +0.380 HD
ENDBRANCH  10  11
ENDBRANCH   7  10
ENDBRANCH   1   7
BRANCH   4  13
ATOM     13  N   LIG    1       -2.604  -5.020  -2.680  0.00  0.00    -0.670 N 
ATOM     14  H   LIG    1       -1.915  -5.498  -3.167  0.00  0.00    +0.420 HD
BRANCH  13  15
ATOM     15  C   LIG    1       -3.979  -5.524  -2.674  0.00  0.00    +0.420 C 
ATOM     16  C   LIG    1       -4.296  -6.157  -4.031  0.00  0.00    +0.040 C 
BRANCH  15  17
ATOM     17  O   LIG    1       -4.123  -6.506  -1.645  0.00  0.00    -0.590 OA
ATOM     18  H   LIG    1       -5.011  -6.883  -1.584  0.00  0.00    +0.390 HD
ENDBRANCH  15  17
ENDBRANCH  13  15
ENDBRANCH   4  13
TORSDOF 6
ENDMDL
MODEL      280
REMARK  Name = ZINC000000445648
REMARK                            x       y       z     vdW  Elec       q    Type
REMARK                         _______ _______ _______ _____ _____    ______ ____
ROOT
ATOM      1  C   LIG    1       -0.019   1.526   0.010  0.00  0.00    +0.110 C 
ATOM      2  C   LIG    1        0.002  -0.004   0.002  0.00  0.00    +0.130 C 
ATOM      3  C   LIG    1        0.763  -0.650  -1.159  0.00  0.00    -0.010 C 
ATOM      4  C   LIG    1        1.089  -1.868  -0.762  0.00  0.00    +0.000 C 
ATOM      5  C   LIG    1        0.543  -2.023   0.660  0.00  0.00    +0.130 C 
ATOM      6  C   LIG    1       -1.001  -2.170   0.488  0.00  0.00    +0.000 C 
ATOM      7  C   LIG    1       -1.622  -2.291   1.861  0.00  0.00    +0.540 C 
ATOM      8  N   LIG    1       -2.264  -1.157   2.163  0.00  0.00    -0.670 N 
ATOM      9  H   LIG    1       -2.733  -1.027   3.002  0.00  0.00    +0.420 HD
ATOM     10  C   LIG    1       -2.207  -0.216   1.213  0.00  0.00    +0.540 C 
ATOM     11  O   LIG    1       -2.718   0.880   1.284  0.00  0.00    -0.470 OA
ATOM     12  O   LIG    1       -1.551  -3.266   2.577  0.00  0.00    -0.470 OA
ATOM     13  C   LIG    1       -1.395  -0.698   0.034  0.00  0.00    +0.010 C 
ATOM     14  O   LIG    1        0.661  -0.644   1.147  0.00  0.00    -0.340 OA
ENDROOT
BRANCH   5  15
ATOM     15  C   LIG    1        1.218  -3.096   1.516  0.00  0.00    +0.250 C 
BRANCH  15  16
ATOM     16  O   LIG    1        2.615  -2.812   1.620  0.00  0.00    -0.560 OA
ATOM     17  H   LIG    1        3.108  -3.453   2.151  0.00  0.00    +0.390 HD
ENDBRANCH  15  16
ENDBRANCH   5  15
TORSDOF 2
ENDMDL
MODEL      281
REMARK  Name = ZINC000029973022
REMARK                            x       y       z     vdW  Elec       q    Type
REMARK                         _______ _______ _______ _____ _____    ______ ____
ROOT
ATOM      1  C   LIG    1       -2.425   4.056   0.331  0.00  0.00    +0.370 C 
ENDROOT
BRANCH   1   5
ATOM      2  O   LIG    1        0.002  -0.004   0.002  0.00  0.00    -0.550 OA
ATOM      3  C   LIG    1       -0.014   1.209   0.009  0.00  0.00    +0.530 C 
ATOM      4  C   LIG    1       -1.343   1.910   0.031  0.00  0.00    +0.220 C 
ATOM      5  N   LIG    1       -1.165   3.309   0.445  0.00  0.00    -0.510 NA
ATOM      6  C   LIG    1       -0.102   3.942  -0.352  0.00  0.00    +0.190 C 
ATOM      7  C   LIG    1        1.241   3.322   0.039  0.00  0.00    +0.280 C 
ATOM      8  N   LIG    1        1.151   1.865   0.001  0.00  0.00    -0.720 N 
ATOM      9  H   LIG    1        1.972   1.351  -0.037  0.00  0.00    +0.400 HD
ENDBRANCH   1   5
BRANCH   1  10
ATOM     10  C   LIG    1       -2.818   4.159  -1.120  0.00  0.00    +0.140 A 
ATOM     11  N   LIG    1       -2.477   5.107  -1.958  0.00  0.00    -0.290 NA
ATOM     12  N   LIG    1       -3.009   4.839  -3.100  0.00  0.00    -0.070 NA
ATOM     13  N   LIG    1       -3.681   3.744  -3.013  0.00  0.00    -0.090 NA
ATOM     14  N   LIG    1       -3.583   3.291  -1.809  0.00  0.00    -0.270 N 
BRANCH  14  15
ATOM     15  C   LIG    1       -4.196   2.067  -1.287  0.00  0.00    +0.190 C 
ATOM     16  C   LIG    1       -5.200   1.341  -2.185  0.00  0.00    +0.090 C 
ATOM     17  C   LIG    1       -3.810   0.745  -1.952  0.00  0.00    +0.080 C 
ENDBRANCH  14  15
ENDBRANCH   1  10
TORSDOF 3
ENDMDL
MODEL      282
REMARK  Name = ZINC000075172773
REMARK                            x       y       z     vdW  Elec       q    Type
REMARK                         _______ _______ _______ _____ _____    ______ ____
ROOT
ATOM      1  C   LIG    1       -0.249   1.441   0.065  0.00  0.00    +0.350 C 
ATOM      2  N   LIG    1       -0.109  -0.017   0.030  0.00  0.00    -0.560 N 
ATOM      3  C   LIG    1       -0.099  -0.655  -1.156  0.00  0.00    +0.590 A 
ATOM      4  C   LIG    1        0.038  -2.070  -1.183  0.00  0.00    -0.400 A 
ATOM      5  C   LIG    1        0.157  -2.751   0.034  0.00  0.00    +0.530 A 
ATOM      6  N   LIG    1        0.138  -2.037   1.200  0.00  0.00    -0.540 N 
ATOM      7  C   LIG    1        0.262  -2.736   2.481  0.00  0.00    +0.360 C 
ATOM      8  O   LIG    1       -0.204  -0.027  -2.194  0.00  0.00    -0.510 OA
ATOM      9  C   LIG    1        0.013  -0.699   1.182  0.00  0.00    +0.710 A 
ATOM     10  O   LIG    1       -0.001  -0.091   2.235  0.00  0.00    -0.520 OA
ENDROOT
BRANCH   5  11
ATOM     11  N   LIG    1        0.290  -4.108   0.056  0.00  0.00    -0.820 N 
ATOM     12  H   LIG    1        0.306  -4.580   0.903  0.00  0.00    +0.410 HD
ATOM     13  H   LIG    1        0.369  -4.601  -0.776  0.00  0.00    +0.430 HD
ENDBRANCH   5  11
BRANCH   4  14
ATOM     14  C   LIG    1        0.053  -2.796  -2.454  0.00  0.00    +0.450 C 
ATOM     15  S   LIG    1        1.520  -2.975  -3.319  0.00  0.00    -0.540 S 
BRANCH  14  16
ATOM     16  N   LIG    1       -1.086  -3.325  -2.942  0.00  0.00    -0.760 N 
ATOM     17  H   LIG    1       -1.063  -3.870  -3.744  0.00  0.00    +0.420 HD
ATOM     18  H   LIG    1       -1.929  -3.160  -2.491  0.00  0.00    +0.400 HD
ENDBRANCH  14  16
ENDBRANCH   4  14
TORSDOF 3
ENDMDL
MODEL      283
REMARK  Name = ZINC000100328621
REMARK                            x       y       z     vdW  Elec       q    Type
REMARK                         _______ _______ _______ _____ _____    ______ ____
ROOT
ATOM      1  C   LIG    1       -0.018   1.503   0.010  0.00  0.00    +0.109 C 
ATOM      2  C   LIG    1        0.002  -0.004   0.002  0.00  0.00    +0.213 C 
ATOM      3  N   LIG    1       -1.156  -0.694   0.009  0.00  0.00    -0.299 N 
ATOM      4  C   LIG    1       -2.446   0.010   0.019  0.00  0.00    +0.126 C 
ATOM      5  C   LIG    1       -3.281  -0.481  -1.169  0.00  0.00    +0.124 C 
ATOM      6  N   LIG    1       -3.276  -1.950  -1.172  0.00  0.00    -0.322 N 
ATOM      7  C   LIG    1       -1.986  -2.654  -1.182  0.00  0.00    +0.124 C 
ATOM      8  C   LIG    1       -1.151  -2.163   0.001  0.00  0.00    +0.126 C 
ATOM      9  O   LIG    1        1.060  -0.596  -0.011  0.00  0.00    -0.276 OA
ENDROOT
BRANCH   6  10
ATOM     10  C   LIG    1       -4.455  -2.652  -1.165  0.00  0.00    +0.106 C 
ATOM     11  C   LIG    1       -4.800  -4.011  -1.159  0.00  0.00    +0.101 C 
ATOM     12  C   LIG    1       -6.243  -3.729  -1.154  0.00  0.00    +0.250 C 
ATOM     13  O   LIG    1       -7.270  -4.382  -1.147  0.00  0.00    -0.282 OA
ATOM     14  C   LIG    1       -5.881  -2.292  -1.155  0.00  0.00    +0.250 C 
ATOM     15  O   LIG    1       -6.504  -1.247  -1.153  0.00  0.00    -0.282 OA
BRANCH  11  16
ATOM     16  N   LIG    1       -4.066  -5.170  -1.157  0.00  0.00    -0.353 N 
ATOM     17  H   LIG    1       -4.516  -6.029  -1.152  0.00  0.00    +0.142 HD
ATOM     18  H   LIG    1       -3.097  -5.130  -1.161  0.00  0.00    +0.142 HD
ENDBRANCH  11  16
ENDBRANCH   6  10
TORSDOF 2
ENDMDL
MODEL      284
REMARK  Name = ZINC000004190156
REMARK                            x       y       z     vdW  Elec       q    Type
REMARK                         _______ _______ _______ _____ _____    ______ ____
ROOT
ATOM      1  C   LIG    1       -0.018   1.461   0.010  0.00  0.00    +0.340 C 
ATOM      2  N   LIG    1        0.002  -0.004   0.002  0.00  0.00    -0.630 N 
ATOM      3  C   LIG    1        0.008  -0.791  -1.088  0.00  0.00    +0.700 C 
ATOM      4  N   LIG    1        0.243  -2.089  -0.811  0.00  0.00    -0.650 N 
ATOM      5  C   LIG    1        0.634  -2.168   0.602  0.00  0.00    +0.420 C 
ATOM      6  N   LIG    1        0.146  -3.360   1.260  0.00  0.00    -0.670 N 
ATOM      7  H   LIG    1        0.591  -4.205   1.087  0.00  0.00    +0.440 HD
ATOM      8  C   LIG    1       -0.900  -3.339   2.102  0.00  0.00    +0.550 C 
ATOM      9  N   LIG    1       -1.572  -2.199   2.324  0.00  0.00    -0.500 N 
ATOM     10  H   LIG    1       -2.220  -2.165   3.045  0.00  0.00    +0.460 HD
ATOM     11  N   LIG    1       -1.369  -1.093   1.567  0.00  0.00    -0.470 NA
ATOM     12  H   LIG    1       -1.963  -1.100   0.751  0.00  0.00    +0.360 HD
ATOM     13  S   LIG    1       -1.379  -4.777   2.898  0.00  0.00    -0.590 S 
ATOM     14  C   LIG    1        0.131  -3.212  -1.745  0.00  0.00    +0.330 C 
ATOM     15  O   LIG    1       -0.179  -0.373  -2.214  0.00  0.00    -0.550 OA
ATOM     16  C   LIG    1        0.025  -0.887   1.197  0.00  0.00    +0.440 C 
ENDROOT
TORSDOF 0
ENDMDL
MODEL      285
REMARK  Name = ZINC000004190145
REMARK                            x       y       z     vdW  Elec       q    Type
REMARK                         _______ _______ _______ _____ _____    ______ ____
ROOT
ATOM      1  C   LIG    1       -0.018   1.461   0.010  0.00  0.00    +0.340 C 
ATOM      2  N   LIG    1        0.002  -0.004   0.002  0.00  0.00    -0.620 N 
ATOM      3  C   LIG    1        0.008  -0.791  -1.088  0.00  0.00    +0.710 C 
ATOM      4  N   LIG    1       -0.188  -2.095  -0.809  0.00  0.00    -0.640 N 
ATOM      5  C   LIG    1       -0.564  -2.185   0.607  0.00  0.00    +0.470 C 
ATOM      6  N   LIG    1       -0.038  -3.362   1.261  0.00  0.00    -0.670 N 
ATOM      7  H   LIG    1       -0.461  -4.219   1.092  0.00  0.00    +0.440 HD
ATOM      8  C   LIG    1        1.014  -3.312   2.094  0.00  0.00    +0.580 C 
ATOM      9  N   LIG    1        1.657  -2.154   2.310  0.00  0.00    -0.500 N 
ATOM     10  H   LIG    1        2.310  -2.102   3.025  0.00  0.00    +0.440 HD
ATOM     11  N   LIG    1        1.417  -1.055   1.554  0.00  0.00    -0.480 NA
ATOM     12  H   LIG    1        1.783  -0.225   1.996  0.00  0.00    +0.380 HD
ATOM     13  S   LIG    1        1.540  -4.736   2.886  0.00  0.00    -0.600 S 
ATOM     14  C   LIG    1       -0.051  -3.214  -1.744  0.00  0.00    +0.340 C 
ATOM     15  O   LIG    1        0.175  -0.369  -2.216  0.00  0.00    -0.560 OA
ATOM     16  C   LIG    1        0.025  -0.887   1.197  0.00  0.00    +0.370 C 
ENDROOT
TORSDOF 0
ENDMDL
MODEL      286
REMARK  Name = ZINC000004190148
REMARK                            x       y       z     vdW  Elec       q    Type
REMARK                         _______ _______ _______ _____ _____    ______ ____
ROOT
ATOM      1  C   LIG    1       -0.018   1.461   0.010  0.00  0.00    +0.360 C 
ATOM      2  N   LIG    1        0.002  -0.004   0.002  0.00  0.00    -0.620 N 
ATOM      3  C   LIG    1        0.009  -0.819  -1.089  0.00  0.00    +0.720 C 
ATOM      4  N   LIG    1        0.309  -2.110  -0.781  0.00  0.00    -0.640 N 
ATOM      5  C   LIG    1        0.824  -2.088   0.577  0.00  0.00    +0.450 C 
ATOM      6  N   LIG    1        0.570  -3.199   1.472  0.00  0.00    -0.670 N 
ATOM      7  H   LIG    1        0.440  -4.107   1.155  0.00  0.00    +0.440 HD
ATOM      8  C   LIG    1        0.529  -2.870   2.795  0.00  0.00    +0.570 C 
ATOM      9  N   LIG    1        0.665  -1.605   3.228  0.00  0.00    -0.510 N 
ATOM     10  H   LIG    1        0.772  -1.455   4.181  0.00  0.00    +0.450 HD
ATOM     11  N   LIG    1        0.660  -0.512   2.390  0.00  0.00    -0.440 NA
ATOM     12  H   LIG    1        0.192   0.272   2.820  0.00  0.00    +0.380 HD
ATOM     13  S   LIG    1        0.295  -4.115   3.946  0.00  0.00    -0.590 S 
ATOM     14  C   LIG    1        0.146  -3.283  -1.644  0.00  0.00    +0.350 C 
ATOM     15  O   LIG    1       -0.228  -0.433  -2.217  0.00  0.00    -0.540 OA
ATOM     16  C   LIG    1        0.025  -0.885   1.154  0.00  0.00    +0.320 C 
ENDROOT
TORSDOF 0
ENDMDL
MODEL      287
REMARK  Name = ZINC000004190153
REMARK                            x       y       z     vdW  Elec       q    Type
REMARK                         _______ _______ _______ _____ _____    ______ ____
ROOT
ATOM      1  C   LIG    1       -0.018   1.461   0.010  0.00  0.00    +0.350 C 
ATOM      2  N   LIG    1        0.002  -0.004   0.002  0.00  0.00    -0.640 N 
ATOM      3  C   LIG    1        0.009  -0.818  -1.089  0.00  0.00    +0.720 C 
ATOM      4  N   LIG    1       -0.257  -2.116  -0.781  0.00  0.00    -0.620 N 
ATOM      5  C   LIG    1       -0.760  -2.106   0.580  0.00  0.00    +0.320 C 
ATOM      6  N   LIG    1       -0.495  -3.205   1.483  0.00  0.00    -0.430 NA
ATOM      7  H   LIG    1       -0.945  -4.050   1.165  0.00  0.00    +0.370 HD
ATOM      8  N   LIG    1       -0.952  -2.842   2.732  0.00  0.00    -0.510 N 
ATOM      9  H   LIG    1       -1.147  -3.544   3.373  0.00  0.00    +0.450 HD
ATOM     10  C   LIG    1       -1.141  -1.565   3.108  0.00  0.00    +0.570 C 
ATOM     11  N   LIG    1       -0.715  -0.510   2.357  0.00  0.00    -0.680 N 
ATOM     12  H   LIG    1       -0.880   0.412   2.610  0.00  0.00    +0.440 HD
ATOM     13  S   LIG    1       -1.948  -1.253   4.585  0.00  0.00    -0.590 S 
ATOM     14  C   LIG    1       -0.074  -3.285  -1.646  0.00  0.00    +0.340 C 
ATOM     15  O   LIG    1        0.230  -0.426  -2.219  0.00  0.00    -0.540 OA
ATOM     16  C   LIG    1        0.025  -0.885   1.157  0.00  0.00    +0.450 C 
ENDROOT
TORSDOF 0
ENDMDL
MODEL      288
REMARK  Name = ZINC000071328518
REMARK                            x       y       z     vdW  Elec       q    Type
REMARK                         _______ _______ _______ _____ _____    ______ ____
ROOT
ATOM      1  C   LIG    1       -1.247  -2.109   0.003  0.00  0.00    +0.030 A 
ATOM      2  C   LIG    1       -2.390  -2.906   0.004  0.00  0.00    +0.020 A 
ATOM      3  N   LIG    1       -1.936  -4.191  -0.005  0.00  0.00    -0.240 N 
ATOM      4  N   LIG    1       -0.650  -4.166  -0.011  0.00  0.00    -0.030 NA
ATOM      5  N   LIG    1       -0.208  -2.960  -0.012  0.00  0.00    -0.210 NA
ENDROOT
BRANCH   1   6
ATOM      6  C   LIG    1       -1.190  -0.632   0.010  0.00  0.00    +0.540 C 
ATOM      7  O   LIG    1       -2.217   0.016   0.023  0.00  0.00    -0.450 OA
BRANCH   6   9
ATOM      8  C   LIG    1       -0.018   1.448   0.010  0.00  0.00    +0.290 C 
ATOM      9  O   LIG    1        0.002  -0.004   0.002  0.00  0.00    -0.340 OA
ENDBRANCH   6   9
ENDBRANCH   1   6
BRANCH   2  10
ATOM     10  C   LIG    1       -3.794  -2.454   0.012  0.00  0.00    +0.530 C 
ATOM     11  O   LIG    1       -4.051  -1.267   0.019  0.00  0.00    -0.420 OA
BRANCH  10  12
ATOM     12  O   LIG    1       -4.793  -3.359   0.011  0.00  0.00    -0.370 OA
ATOM     13  C   LIG    1       -6.150  -2.843   0.019  0.00  0.00    +0.290 C 
ENDBRANCH  10  12
ENDBRANCH   2  10
BRANCH   3  14
ATOM     14  C   LIG    1       -2.770  -5.395  -0.008  0.00  0.00    +0.380 C 
BRANCH  14  15
ATOM     15  C   LIG    1       -3.062  -5.801  -1.430  0.00  0.00    +0.510 C 
ATOM     16  O   LIG    1       -2.617  -5.148  -2.350  0.00  0.00    -0.520 OA
ATOM     17  N   LIG    1       -3.818  -6.888  -1.679  0.00  0.00    -0.840 N 
ATOM     18  H   LIG    1       -4.006  -7.149  -2.594  0.00  0.00    +0.410 HD
ATOM     19  H   LIG    1       -4.174  -7.410  -0.943  0.00  0.00    +0.410 HD
ENDBRANCH  14  15
ENDBRANCH   3  14
TORSDOF 6
ENDMDL
MODEL      289
REMARK  Name = ZINC000004556684
REMARK                            x       y       z     vdW  Elec       q    Type
REMARK                         _______ _______ _______ _____ _____    ______ ____
ROOT
ATOM      1  C   LEU A  1       -3.583  -0.545  -1.223  0.00  0.00    +0.490 C 
ATOM      2  N   SER A  2       -4.471   0.210  -0.548  0.00  0.00    -0.650 N 
ATOM      3  H   SER A  2       -4.179   1.021  -0.103  0.00  0.00    +0.410 HD
ATOM      4  O   LEU A  1       -3.948  -1.559  -1.781  0.00  0.00    -0.540 OA
ENDROOT
BRANCH   1   5
ATOM      5  CA  LEU A  1       -2.135  -0.131  -1.286  0.00  0.00    +0.170 C 
BRANCH   5   6
ATOM      6  N   LEU A  1       -1.484  -0.797  -2.421  0.00  0.00    -0.620 N 
ATOM      7  H1  LEU A  1       -1.947  -0.532  -3.278  0.00  0.00    +0.440 HD
ATOM      8  H2  LEU A  1       -1.543  -1.798  -2.303  0.00  0.00    +0.440 HD
ATOM      9  H3  LEU A  1       -0.514  -0.520  -2.463  0.00  0.00    +0.430 HD
ENDBRANCH   5   6
BRANCH   5  10
ATOM     10  CB  LEU A  1       -1.433  -0.534   0.013  0.00  0.00    +0.080 C 
BRANCH  10  12
ATOM     11  CD1 LEU A  1       -0.019   1.526   0.010  0.00  0.00    +0.030 C 
ATOM     12  CG  LEU A  1        0.002  -0.004   0.002  0.00  0.00    -0.030 C 
ATOM     13  CD2 LEU A  1        0.742  -0.511   1.242  0.00  0.00    +0.050 C 
ENDBRANCH  10  12
ENDBRANCH   5  10
ENDBRANCH   1   5
BRANCH   2  14
ATOM     14  CA  SER A  2       -5.879  -0.192  -0.488  0.00  0.00    +0.170 C 
BRANCH  14  15
ATOM     15  C   SER A  2       -6.599   0.312  -1.712  0.00  0.00    +0.500 C 
ATOM     16  OXT SER A  2       -6.230   1.338  -2.257  0.00  0.00    -0.680 OA
ATOM     17  O   SER A  2       -7.550  -0.307  -2.158  0.00  0.00    -0.680 OA
ENDBRANCH  14  15
BRANCH  14  18
ATOM     18  CB  SER A  2       -6.526   0.402   0.765  0.00  0.00    +0.190 C 
BRANCH  18  19
ATOM     19  OG  SER A  2       -6.544   1.827   0.661  0.00  0.00    -0.560 OA
ATOM     20  H   SER A  2       -6.942   2.272   1.422  0.00  0.00    +0.370 HD
ENDBRANCH  18  19
ENDBRANCH  14  18
ENDBRANCH   2  14
TORSDOF 8
ENDMDL
MODEL      290
REMARK  Name = ZINC000047717983
REMARK                            x       y       z     vdW  Elec       q    Type
REMARK                         _______ _______ _______ _____ _____    ______ ____
ROOT
ATOM      1  C   LIG    1       -1.412  -0.526   0.013  0.00  0.00    +0.550 C 
ATOM      2  N   LIG    1       -2.090  -0.657  -1.144  0.00  0.00    -0.610 N 
ATOM      3  C   LIG    1       -3.475  -1.158  -1.168  0.00  0.00    +0.300 C 
ATOM      4  C   LIG    1       -4.370  -0.061  -1.747  0.00  0.00    +0.270 C 
ATOM      5  N   LIG    1       -3.781   0.502  -2.955  0.00  0.00    -0.720 N 
ATOM      6  H   LIG    1       -4.373   0.952  -3.578  0.00  0.00    +0.410 HD
ATOM      7  C   LIG    1       -2.485   0.442  -3.264  0.00  0.00    +0.510 C 
ATOM      8  O   LIG    1       -2.101   1.018  -4.260  0.00  0.00    -0.540 OA
ATOM      9  C   LIG    1       -1.480  -0.301  -2.434  0.00  0.00    +0.330 C 
ATOM     10  O   LIG    1       -1.939  -0.827   1.062  0.00  0.00    -0.510 OA
ENDROOT
BRANCH   1  12
ATOM     11  C   LIG    1       -0.019   1.526   0.010  0.00  0.00    +0.120 C 
ATOM     12  C   LIG    1        0.002  -0.004   0.002  0.00  0.00    -0.470 C 
BRANCH  12  13
ATOM     13  S   LIG    1        0.879  -0.605   1.472  0.00  0.00    +2.450 S 
ATOM     14  O   LIG    1        1.103  -2.001   1.327  0.00  0.00    -0.930 OA
ATOM     15  O   LIG    1        0.206  -0.127   2.628  0.00  0.00    -0.900 OA
ATOM     16  C   LIG    1        2.472   0.252   1.334  0.00  0.00    -0.260 C 
ENDBRANCH  12  13
ENDBRANCH   1  12
TORSDOF 2
ENDMDL
MODEL      291
REMARK  Name = ZINC000047717982
REMARK                            x       y       z     vdW  Elec       q    Type
REMARK                         _______ _______ _______ _____ _____    ______ ____
ROOT
ATOM      1  C   LIG    1        0.731  -0.503   1.223  0.00  0.00    +0.550 C 
ATOM      2  N   LIG    1        2.079  -0.519   1.244  0.00  0.00    -0.610 N 
ATOM      3  C   LIG    1        2.821  -1.006   2.419  0.00  0.00    +0.300 C 
ATOM      4  C   LIG    1        3.655  -2.215   1.989  0.00  0.00    +0.270 C 
ATOM      5  N   LIG    1        4.363  -1.938   0.747  0.00  0.00    -0.720 N 
ATOM      6  H   LIG    1        5.149  -2.471   0.547  0.00  0.00    +0.410 HD
ATOM      7  C   LIG    1        4.006  -1.005  -0.137  0.00  0.00    +0.510 C 
ATOM      8  O   LIG    1        4.629  -0.922  -1.174  0.00  0.00    -0.540 OA
ATOM      9  C   LIG    1        2.867  -0.055   0.092  0.00  0.00    +0.320 C 
ATOM     10  O   LIG    1        0.105  -0.891   2.187  0.00  0.00    -0.510 OA
ENDROOT
BRANCH   1  12
ATOM     11  C   LIG    1       -0.019   1.526   0.010  0.00  0.00    +0.120 C 
ATOM     12  C   LIG    1        0.002  -0.004   0.002  0.00  0.00    -0.470 C 
BRANCH  12  13
ATOM     13  S   LIG    1       -1.700  -0.632   0.015  0.00  0.00    +2.450 S 
ATOM     14  O   LIG    1       -2.385  -0.060   1.121  0.00  0.00    -0.910 OA
ATOM     15  O   LIG    1       -1.662  -2.046  -0.122  0.00  0.00    -0.920 OA
ATOM     16  C   LIG    1       -2.373   0.079  -1.512  0.00  0.00    -0.260 C 
ENDBRANCH  12  13
ENDBRANCH   1  12
TORSDOF 2
ENDMDL
MODEL      292
REMARK  Name = ZINC000047772491
REMARK                            x       y       z     vdW  Elec       q    Type
REMARK                         _______ _______ _______ _____ _____    ______ ____
ROOT
ATOM      1  C   LIG    1        0.731  -0.503   1.223  0.00  0.00    +0.550 C 
ATOM      2  N   LIG    1        0.071  -0.647   2.389  0.00  0.00    -0.710 N 
ATOM      3  H   LIG    1       -0.872  -0.430   2.443  0.00  0.00    +0.420 HD
ATOM      4  O   LIG    1        1.911  -0.775   1.156  0.00  0.00    -0.520 OA
ENDROOT
BRANCH   1   6
ATOM      5  C   LIG    1       -0.019   1.526   0.010  0.00  0.00    +0.120 C 
ATOM      6  C   LIG    1        0.002  -0.004   0.002  0.00  0.00    -0.460 C 
BRANCH   6   7
ATOM      7  S   LIG    1        0.851  -0.589  -1.490  0.00  0.00    +2.450 S 
ATOM      8  O   LIG    1        0.649  -1.991  -1.606  0.00  0.00    -0.930 OA
ATOM      9  O   LIG    1        2.177  -0.077  -1.487  0.00  0.00    -0.910 OA
ATOM     10  C   LIG    1       -0.086   0.240  -2.804  0.00  0.00    -0.260 C 
ENDBRANCH   6   7
ENDBRANCH   1   6
BRANCH   2  11
ATOM     11  C   LIG    1        0.780  -1.133   3.576  0.00  0.00    +0.320 C 
BRANCH  11  12
ATOM     12  C   LIG    1       -0.176  -1.203   4.739  0.00  0.00    +0.520 C 
ATOM     13  N   LIG    1        0.257  -1.625   5.943  0.00  0.00    -0.700 N 
ATOM     14  H   LIG    1        1.184  -1.884   6.062  0.00  0.00    +0.410 HD
ATOM     15  O   LIG    1       -1.336  -0.879   4.590  0.00  0.00    -0.530 OA
BRANCH  13  16
ATOM     16  C   LIG    1       -0.673  -1.693   7.073  0.00  0.00    +0.210 C 
ATOM     17  C   LIG    1       -0.614  -2.936   7.963  0.00  0.00    +0.020 C 
ATOM     18  C   LIG    1       -0.082  -1.598   8.481  0.00  0.00    +0.020 C 
ENDBRANCH  13  16
ENDBRANCH  11  12
ENDBRANCH   2  11
TORSDOF 5
ENDMDL
MODEL      293
REMARK  Name = ZINC000047772490
REMARK                            x       y       z     vdW  Elec       q    Type
REMARK                         _______ _______ _______ _____ _____    ______ ____
ROOT
ATOM      1  C   LIG    1        0.707  -0.490  -1.238  0.00  0.00    +0.550 C 
ATOM      2  N   LIG    1        0.053  -0.526  -2.415  0.00  0.00    -0.710 N 
ATOM      3  H   LIG    1       -0.873  -0.239  -2.465  0.00  0.00    +0.420 HD
ATOM      4  O   LIG    1        1.864  -0.849  -1.176  0.00  0.00    -0.520 OA
ENDROOT
BRANCH   1   6
ATOM      5  C   LIG    1       -0.019   1.526   0.010  0.00  0.00    +0.110 C 
ATOM      6  C   LIG    1        0.002  -0.004   0.002  0.00  0.00    -0.460 C 
BRANCH   6   7
ATOM      7  S   LIG    1        0.879  -0.605   1.472  0.00  0.00    +2.450 S 
ATOM      8  O   LIG    1        2.165  -0.001   1.510  0.00  0.00    -0.910 OA
ATOM      9  O   LIG    1        0.777  -2.022   1.512  0.00  0.00    -0.930 OA
ATOM     10  C   LIG    1       -0.124   0.086   2.816  0.00  0.00    -0.260 C 
ENDBRANCH   6   7
ENDBRANCH   1   6
BRANCH   2  11
ATOM     11  C   LIG    1        0.738  -0.999  -3.621  0.00  0.00    +0.320 C 
BRANCH  11  12
ATOM     12  C   LIG    1       -0.207  -0.940  -4.792  0.00  0.00    +0.520 C 
ATOM     13  N   LIG    1        0.208  -1.329  -6.014  0.00  0.00    -0.700 N 
ATOM     14  H   LIG    1        1.116  -1.647  -6.139  0.00  0.00    +0.410 HD
ATOM     15  O   LIG    1       -1.343  -0.542  -4.636  0.00  0.00    -0.530 OA
BRANCH  13  16
ATOM     16  C   LIG    1       -0.712  -1.272  -7.153  0.00  0.00    +0.210 C 
ATOM     17  C   LIG    1       -0.168  -0.719  -8.473  0.00  0.00    +0.020 C 
ATOM     18  C   LIG    1       -0.443  -2.217  -8.326  0.00  0.00    +0.020 C 
ENDBRANCH  13  16
ENDBRANCH  11  12
ENDBRANCH   2  11
TORSDOF 5
ENDMDL
MODEL      294
REMARK  Name = ZINC000257176360
REMARK                            x       y       z     vdW  Elec       q    Type
REMARK                         _______ _______ _______ _____ _____    ______ ____
ROOT
ATOM      1  C   LIG    1       -0.018   1.461   0.010  0.00  0.00    +0.380 C 
ATOM      2  N   LIG    1        0.002  -0.004   0.002  0.00  0.00    -0.450 N 
ATOM      3  N   LIG    1        0.009  -0.831  -1.128  0.00  0.00    -0.290 NA
ATOM      4  C   LIG    1        0.027  -2.059  -0.710  0.00  0.00    +0.300 A 
ATOM      5  C   LIG    1        0.038  -3.264  -1.623  0.00  0.00    +0.150 C 
ATOM      6  C   LIG    1        0.034  -4.550  -0.793  0.00  0.00    +0.320 C 
ATOM      7  N   LIG    1       -1.187  -4.489  -0.004  0.00  0.00    -1.010 NA
ATOM      8  C   LIG    1       -1.179  -4.113   1.440  0.00  0.00    +0.310 C 
ATOM      9  C   LIG    1        0.056  -3.198   1.609  0.00  0.00    +0.330 C 
ATOM     10  N   LIG    1        0.034  -2.107   0.635  0.00  0.00    -0.540 N 
ATOM     11  C   LIG    1        0.023  -0.809   1.079  0.00  0.00    +0.630 A 
ATOM     12  O   LIG    1        0.028  -0.450   2.242  0.00  0.00    -0.550 OA
ENDROOT
BRANCH   7  13
ATOM     13  S   LIG    1       -2.631  -4.848  -0.732  0.00  0.00    +2.600 S 
ATOM     14  O   LIG    1       -2.415  -4.550  -2.104  0.00  0.00    -0.950 OA
ATOM     15  O   LIG    1       -3.594  -4.134   0.030  0.00  0.00    -0.950 OA
ATOM     16  C   LIG    1       -2.826  -6.635  -0.491  0.00  0.00    -0.280 C 
ENDBRANCH   7  13
TORSDOF 1
ENDMDL
MODEL      295
REMARK  Name = ZINC000004854459
REMARK                            x       y       z     vdW  Elec       q    Type
REMARK                         _______ _______ _______ _____ _____    ______ ____
ROOT
ATOM      1  C   LIG    1       -1.319   1.939   0.019  0.00  0.00    +0.299 C 
ATOM      2  N   LIG    1       -2.477   1.249   0.021  0.00  0.00    -0.305 N 
ATOM      3  H   LIG    1       -2.463   0.279   0.015  0.00  0.00    +0.149 HD
ATOM      4  O   LIG    1       -1.335   3.152   0.025  0.00  0.00    -0.265 OA
ENDROOT
BRANCH   1   6
ATOM      5  O   LIG    1        0.002  -0.004   0.002  0.00  0.00    -0.265 OA
ATOM      6  C   LIG    1       -0.014   1.209   0.009  0.00  0.00    +0.299 C 
ATOM      7  N   LIG    1        1.143   1.899   0.001  0.00  0.00    -0.308 N 
ATOM      8  H   LIG    1        1.130   2.869   0.007  0.00  0.00    +0.149 HD
BRANCH   7   9
ATOM      9  C   LIG    1        2.422   1.184  -0.015  0.00  0.00    +0.107 C 
BRANCH   9  10
ATOM     10  C   LIG    1        3.571   2.194  -0.020  0.00  0.00    +0.046 C 
BRANCH  10  11
ATOM     11  C   LIG    1        4.907   1.447  -0.037  0.00  0.00    +0.157 C 
BRANCH  11  12
ATOM     12  O   LIG    1        5.980   2.390  -0.042  0.00  0.00    -0.395 OA
ATOM     13  H   LIG    1        6.858   1.986  -0.053  0.00  0.00    +0.209 HD
ENDBRANCH  11  12
ENDBRANCH  10  11
ENDBRANCH   9  10
ENDBRANCH   7   9
ENDBRANCH   1   6
BRANCH   2  14
ATOM     14  C   LIG    1       -3.755   1.964   0.030  0.00  0.00    +0.136 C 
BRANCH  14  15
ATOM     15  C   LIG    1       -4.904   0.954   0.030  0.00  0.00    +0.135 C 
ATOM     16  C   LIG    1       -6.254   1.696  -0.081  0.00  0.00    +0.035 C 
ATOM     17  C   LIG    1       -7.159   0.880   0.881  0.00  0.00    +0.031 C 
ATOM     18  C   LIG    1       -6.137   0.472   1.972  0.00  0.00    +0.160 C 
ATOM     19  O   LIG    1       -4.910   0.225   1.263  0.00  0.00    -0.375 OA
ENDBRANCH  14  15
ENDBRANCH   2  14
TORSDOF 7
ENDMDL
MODEL      296
REMARK  Name = ZINC000044920396
REMARK                            x       y       z     vdW  Elec       q    Type
REMARK                         _______ _______ _______ _____ _____    ______ ____
ROOT
ATOM      1  C   LIG    1       -1.332   1.941  -0.151  0.00  0.00    +0.303 C 
ATOM      2  N   LIG    1       -2.475   1.249   0.021  0.00  0.00    -0.274 N 
ATOM      3  H   LIG    1       -2.454   0.280   0.064  0.00  0.00    +0.155 HD
ATOM      4  O   LIG    1       -1.368   3.146  -0.297  0.00  0.00    -0.265 OA
ENDROOT
BRANCH   2   5
ATOM      5  C   LIG    1       -3.695   1.928   0.136  0.00  0.00    +0.097 A 
ATOM      6  C   LIG    1       -4.706   1.678  -0.735  0.00  0.00    +0.110 A 
ATOM      7  N   LIG    1       -5.889   2.335  -0.626  0.00  0.00    -0.365 N 
ATOM      8  H   LIG    1       -6.598   2.142  -1.258  0.00  0.00    +0.165 HD
ATOM      9  C   LIG    1       -6.101   3.255   0.346  0.00  0.00    +0.086 A 
ATOM     10  C   LIG    1       -5.135   3.549   1.245  0.00  0.00    +0.070 A 
ATOM     11  C   LIG    1       -3.892   2.882   1.168  0.00  0.00    +0.203 A 
ATOM     12  O   LIG    1       -3.001   3.130   1.968  0.00  0.00    -0.286 OA
ENDBRANCH   2   5
BRANCH   1  14
ATOM     13  O   LIG    1        0.015   0.022  -0.017  0.00  0.00    -0.265 OA
ATOM     14  C   LIG    1       -0.021   1.227  -0.162  0.00  0.00    +0.299 C 
ATOM     15  N   LIG    1        1.122   1.918  -0.340  0.00  0.00    -0.308 N 
ATOM     16  H   LIG    1        1.093   2.881  -0.456  0.00  0.00    +0.149 HD
BRANCH  15  17
ATOM     17  C   LIG    1        2.408   1.217  -0.356  0.00  0.00    +0.107 C 
BRANCH  17  18
ATOM     18  C   LIG    1        3.537   2.226  -0.572  0.00  0.00    +0.046 C 
BRANCH  18  19
ATOM     19  C   LIG    1        4.880   1.493  -0.590  0.00  0.00    +0.157 C 
BRANCH  19  20
ATOM     20  O   LIG    1        5.935   2.436  -0.791  0.00  0.00    -0.395 OA
ATOM     21  H   LIG    1        6.817   2.041  -0.813  0.00  0.00    +0.209 HD
ENDBRANCH  19  20
ENDBRANCH  18  19
ENDBRANCH  17  18
ENDBRANCH  15  17
ENDBRANCH   1  14
TORSDOF 6
ENDMDL
MODEL      297
REMARK  Name = ZINC000002643595
REMARK                            x       y       z     vdW  Elec       q    Type
REMARK                         _______ _______ _______ _____ _____    ______ ____
ROOT
ATOM      1  O   LIG    1        0.002  -0.004   0.002  0.00  0.00    -0.265 OA
ATOM      2  C   LIG    1       -0.014   1.209   0.009  0.00  0.00    +0.299 C 
ATOM      3  N   LIG    1        1.143   1.899   0.001  0.00  0.00    -0.308 N 
ATOM      4  H   LIG    1        1.130   2.869   0.007  0.00  0.00    +0.149 HD
ENDROOT
BRANCH   2   5
ATOM      5  C   LIG    1       -1.319   1.939   0.019  0.00  0.00    +0.299 C 
ATOM      6  N   LIG    1       -2.477   1.249   0.021  0.00  0.00    -0.308 N 
ATOM      7  H   LIG    1       -2.463   0.279   0.015  0.00  0.00    +0.149 HD
ATOM      8  O   LIG    1       -1.335   3.152   0.025  0.00  0.00    -0.265 OA
BRANCH   6   9
ATOM      9  C   LIG    1       -3.755   1.964   0.030  0.00  0.00    +0.107 C 
BRANCH   9  10
ATOM     10  C   LIG    1       -4.904   0.954   0.030  0.00  0.00    +0.046 C 
BRANCH  10  11
ATOM     11  C   LIG    1       -6.240   1.701   0.041  0.00  0.00    +0.157 C 
BRANCH  11  12
ATOM     12  O   LIG    1       -7.313   0.758   0.041  0.00  0.00    -0.395 OA
ATOM     13  H   LIG    1       -8.192   1.162   0.047  0.00  0.00    +0.209 HD
ENDBRANCH  11  12
ENDBRANCH  10  11
ENDBRANCH   9  10
ENDBRANCH   6   9
ENDBRANCH   2   5
BRANCH   3  14
ATOM     14  C   LIG    1        2.422   1.184  -0.015  0.00  0.00    +0.107 C 
BRANCH  14  15
ATOM     15  C   LIG    1        3.571   2.194  -0.020  0.00  0.00    +0.046 C 
BRANCH  15  16
ATOM     16  C   LIG    1        4.907   1.447  -0.037  0.00  0.00    +0.157 C 
BRANCH  16  17
ATOM     17  O   LIG    1        5.980   2.390  -0.042  0.00  0.00    -0.395 OA
ATOM     18  H   LIG    1        6.858   1.986  -0.053  0.00  0.00    +0.209 HD
ENDBRANCH  16  17
ENDBRANCH  15  16
ENDBRANCH  14  15
ENDBRANCH   3  14
TORSDOF 9
ENDMDL
MODEL      298
REMARK  Name = ZINC000004854458
REMARK                            x       y       z     vdW  Elec       q    Type
REMARK                         _______ _______ _______ _____ _____    ______ ____
ROOT
ATOM      1  C   LIG    1       -1.319   1.939   0.019  0.00  0.00    +0.299 C 
ATOM      2  N   LIG    1       -2.477   1.249   0.021  0.00  0.00    -0.305 N 
ATOM      3  H   LIG    1       -2.463   0.279   0.015  0.00  0.00    +0.149 HD
ATOM      4  O   LIG    1       -1.335   3.152   0.025  0.00  0.00    -0.265 OA
ENDROOT
BRANCH   1   6
ATOM      5  O   LIG    1        0.002  -0.004   0.002  0.00  0.00    -0.265 OA
ATOM      6  C   LIG    1       -0.014   1.209   0.009  0.00  0.00    +0.299 C 
ATOM      7  N   LIG    1        1.143   1.899   0.001  0.00  0.00    -0.308 N 
ATOM      8  H   LIG    1        1.130   2.869   0.007  0.00  0.00    +0.149 HD
BRANCH   7   9
ATOM      9  C   LIG    1        2.422   1.184  -0.015  0.00  0.00    +0.107 C 
BRANCH   9  10
ATOM     10  C   LIG    1        3.571   2.194  -0.020  0.00  0.00    +0.046 C 
BRANCH  10  11
ATOM     11  C   LIG    1        4.907   1.447  -0.037  0.00  0.00    +0.157 C 
BRANCH  11  12
ATOM     12  O   LIG    1        5.980   2.390  -0.042  0.00  0.00    -0.395 OA
ATOM     13  H   LIG    1        6.858   1.986  -0.053  0.00  0.00    +0.209 HD
ENDBRANCH  11  12
ENDBRANCH  10  11
ENDBRANCH   9  10
ENDBRANCH   7   9
ENDBRANCH   1   6
BRANCH   2  14
ATOM     14  C   LIG    1       -3.755   1.964   0.030  0.00  0.00    +0.136 C 
BRANCH  14  15
ATOM     15  C   LIG    1       -4.904   0.954   0.030  0.00  0.00    +0.135 C 
ATOM     16  C   LIG    1       -6.268   1.691   0.006  0.00  0.00    +0.035 C 
ATOM     17  C   LIG    1       -7.178   0.604  -0.626  0.00  0.00    +0.031 C 
ATOM     18  C   LIG    1       -6.217  -0.099  -1.609  0.00  0.00    +0.160 C 
ATOM     19  O   LIG    1       -4.878   0.169  -1.172  0.00  0.00    -0.375 OA
ENDBRANCH  14  15
ENDBRANCH   2  14
TORSDOF 7
ENDMDL
MODEL      299
REMARK  Name = ZINC000016382889
REMARK                            x       y       z     vdW  Elec       q    Type
REMARK                         _______ _______ _______ _____ _____    ______ ____
ROOT
ATOM      1  N   LIG    1       -1.140   1.843   0.018  0.00  0.00    -0.520 NA
ATOM      2  C   LIG    1       -2.292   1.161  -0.082  0.00  0.00    +0.700 C 
ATOM      3  N   LIG    1       -2.357  -0.184  -0.090  0.00  0.00    -0.710 N 
ATOM      4  H   LIG    1       -1.621  -0.792   0.085  0.00  0.00    +0.450 HD
ATOM      5  C   LIG    1       -3.750  -0.572  -0.415  0.00  0.00    +0.460 C 
ATOM      6  N   LIG    1       -3.791  -1.003  -1.804  0.00  0.00    -0.580 NA
ATOM      7  C   LIG    1       -4.654  -0.532  -2.657  0.00  0.00    +0.420 A 
ATOM      8  N   LIG    1       -4.864  -0.805  -3.968  0.00  0.00    -0.550 N 
ATOM      9  H   LIG    1       -4.357  -1.422  -4.519  0.00  0.00    +0.480 HD
ATOM     10  O   LIG    1       -5.970  -0.013  -4.380  0.00  0.00    +0.050 OA
ATOM     11  N   LIG    1       -6.394   0.765  -3.273  0.00  0.00    -0.290 NA
ATOM     12  C   LIG    1       -5.655   0.493  -2.258  0.00  0.00    +0.310 A 
ATOM     13  N   LIG    1       -5.656   0.988  -0.959  0.00  0.00    -0.680 N 
ATOM     14  H   LIG    1       -6.404   1.512  -0.632  0.00  0.00    +0.440 HD
ATOM     15  C   LIG    1       -4.522   0.702  -0.081  0.00  0.00    +0.490 C 
ATOM     16  N   LIG    1       -3.499   1.754  -0.178  0.00  0.00    -0.690 N 
ATOM     17  H   LIG    1       -3.662   2.702  -0.306  0.00  0.00    +0.450 HD
ENDROOT
BRANCH   1  19
ATOM     18  O   LIG    1        0.512   0.932  -1.058  0.00  0.00    -0.220 OA
ATOM     19  N   LIG    1       -0.014   1.214   0.004  0.00  0.00    +0.220 N 
ATOM     20  O   LIG    1        0.525   0.907   1.052  0.00  0.00    -0.220 OA
ENDBRANCH   1  19
TORSDOF 1
ENDMDL
MODEL      300
REMARK  Name = ZINC000071575488
REMARK                            x       y       z     vdW  Elec       q    Type
REMARK                         _______ _______ _______ _____ _____    ______ ____
ROOT
ATOM      1  N   LIG    1       -0.236  -3.264   3.058  0.00  0.00    -0.690 N 
ATOM      2  H   LIG    1       -0.696  -3.746   2.353  0.00  0.00    +0.420 HD
ATOM      3  C   LIG    1       -0.604  -3.437   4.343  0.00  0.00    +0.610 C 
ATOM      4  O   LIG    1       -0.028  -2.832   5.227  0.00  0.00    -0.510 OA
ENDROOT
BRANCH   3   5
ATOM      5  C   LIG    1       -1.707  -4.360   4.678  0.00  0.00    +0.270 A 
ATOM      6  N   LIG    1       -2.406  -5.077   3.820  0.00  0.00    -0.540 NA
ATOM      7  C   LIG    1       -3.317  -5.795   4.470  0.00  0.00    +0.480 A 
ATOM      8  N   LIG    1       -3.218  -5.551   5.759  0.00  0.00    -0.340 NA
ATOM      9  N   LIG    1       -2.174  -4.625   5.920  0.00  0.00    -0.430 N 
ATOM     10  H   LIG    1       -1.855  -4.247   6.754  0.00  0.00    +0.450 HD
BRANCH   7  11
ATOM     11  N   LIG    1       -4.233  -6.667   3.879  0.00  0.00    -0.820 N 
ATOM     12  H   LIG    1       -4.865  -7.154   4.431  0.00  0.00    +0.420 HD
ATOM     13  H   LIG    1       -4.237  -6.788   2.917  0.00  0.00    +0.420 HD
ENDBRANCH   7  11
ENDBRANCH   3   5
BRANCH   1  18
ATOM     14  C   LIG    1        0.770  -1.902   1.249  0.00  0.00    +0.140 C 
ATOM     15  C   LIG    1        2.085  -2.413   0.621  0.00  0.00    +0.200 C 
ATOM     16  O   LIG    1        3.003  -2.531   1.730  0.00  0.00    -0.360 OA
ATOM     17  C   LIG    1        2.221  -3.076   2.815  0.00  0.00    +0.220 C 
ATOM     18  C   LIG    1        0.857  -2.348   2.726  0.00  0.00    +0.230 C 
BRANCH  14  19
ATOM     19  O   LIG    1        0.693  -0.477   1.160  0.00  0.00    -0.370 OA
BRANCH  19  21
ATOM     20  C   LIG    1       -0.019   1.526   0.010  0.00  0.00    +0.050 C 
ATOM     21  C   LIG    1        0.002  -0.004   0.002  0.00  0.00    +0.150 C 
ENDBRANCH  19  21
ENDBRANCH  14  19
ENDBRANCH   1  18
TORSDOF 5
ENDMDL
MODEL      301
REMARK  Name = ZINC000585140789
REMARK                            x       y       z     vdW  Elec       q    Type
REMARK                         _______ _______ _______ _____ _____    ______ ____
ROOT
ATOM      1  C   LIG    1        2.327  -4.270  -0.043  0.00  0.00    +0.510 C 
ATOM      2  N   LIG    1        3.364  -5.132  -0.058  0.00  0.00    -0.730 N 
ATOM      3  H   LIG    1        4.274  -4.796  -0.065  0.00  0.00    +0.410 HD
ATOM      4  O   LIG    1        1.190  -4.690  -0.035  0.00  0.00    -0.530 OA
ENDROOT
BRANCH   1   5
ATOM      5  C   LIG    1        2.583  -2.785  -0.038  0.00  0.00    +0.300 C 
BRANCH   5   7
ATOM      6  C   LIG    1        1.286  -0.722  -0.014  0.00  0.00    +0.550 C 
ATOM      7  N   LIG    1        1.304  -2.070  -0.021  0.00  0.00    -0.720 N 
ATOM      8  H   LIG    1        0.471  -2.566  -0.016  0.00  0.00    +0.410 HD
ATOM      9  O   LIG    1        2.331  -0.100  -0.021  0.00  0.00    -0.550 OA
BRANCH   6  11
ATOM     10  C   LIG    1       -0.016   1.326   0.009  0.00  0.00    +0.150 C 
ATOM     11  C   LIG    1        0.002  -0.004   0.002  0.00  0.00    -0.090 C 
ENDBRANCH   6  11
ENDBRANCH   5   7
ENDBRANCH   1   5
BRANCH   2  12
ATOM     12  C   LIG    1        3.115  -6.576  -0.063  0.00  0.00    +0.260 C 
BRANCH  12  13
ATOM     13  C   LIG    1        4.451  -7.323  -0.080  0.00  0.00    +0.170 C 
BRANCH  13  14
ATOM     14  N   LIG    1        4.202  -8.770  -0.085  0.00  0.00    -0.530 NA
ATOM     15  C   LIG    1        3.189  -9.135   0.916  0.00  0.00    +0.150 C 
ATOM     16  C   LIG    1        2.917 -10.639   0.836  0.00  0.00    +0.220 C 
ATOM     17  O   LIG    1        4.144 -11.350   1.023  0.00  0.00    -0.380 OA
ATOM     18  C   LIG    1        5.153 -11.021   0.065  0.00  0.00    +0.220 C 
ATOM     19  C   LIG    1        5.447  -9.520   0.137  0.00  0.00    +0.160 C 
ENDBRANCH  13  14
ENDBRANCH  12  13
ENDBRANCH   2  12
TORSDOF 6
ENDMDL
MODEL      302
REMARK  Name = ZINC000218946207
REMARK                            x       y       z     vdW  Elec       q    Type
REMARK                         _______ _______ _______ _____ _____    ______ ____
ROOT
ATOM      1  O   LIG    1        0.002  -0.004   0.002  0.00  0.00    -0.530 OA
ATOM      2  C   LIG    1       -0.014   1.212   0.009  0.00  0.00    +0.610 C 
ATOM      3  N   LIG    1        1.143   1.901   0.001  0.00  0.00    -0.690 N 
ATOM      4  H   LIG    1        1.130   2.871   0.007  0.00  0.00    +0.420 HD
ENDROOT
BRANCH   2   5
ATOM      5  C   LIG    1       -1.301   1.932   0.019  0.00  0.00    +0.120 A 
ATOM      6  N   LIG    1       -1.469   3.237   0.021  0.00  0.00    -0.240 NA
ATOM      7  N   LIG    1       -2.726   3.507   0.030  0.00  0.00    -0.290 NA
ATOM      8  C   LIG    1       -3.422   2.397   0.033  0.00  0.00    +0.420 A 
ATOM      9  N   LIG    1       -2.551   1.368   0.022  0.00  0.00    -0.550 N 
ATOM     10  H   LIG    1       -2.765   0.422   0.021  0.00  0.00    +0.440 HD
ENDBRANCH   2   5
BRANCH   3  11
ATOM     11  C   LIG    1        2.422   1.186  -0.015  0.00  0.00    +0.230 C 
ATOM     12  C   LIG    1        2.822   0.822   1.417  0.00  0.00    +0.220 C 
ATOM     13  O   LIG    1        4.097   0.176   1.404  0.00  0.00    -0.370 OA
ATOM     14  C   LIG    1        5.156   0.984   0.887  0.00  0.00    +0.220 C 
ATOM     15  C   LIG    1        4.849   1.355  -0.566  0.00  0.00    -0.010 C 
ATOM     16  C   LIG    1        3.502   2.083  -0.627  0.00  0.00    +0.170 C 
BRANCH  16  17
ATOM     17  O   LIG    1        3.175   2.369  -1.989  0.00  0.00    -0.560 OA
ATOM     18  H   LIG    1        3.822   2.929  -2.439  0.00  0.00    +0.380 HD
ENDBRANCH  16  17
ENDBRANCH   3  11
TORSDOF 3
ENDMDL
MODEL      303
REMARK  Name = ZINC000005274492
REMARK                            x       y       z     vdW  Elec       q    Type
REMARK                         _______ _______ _______ _____ _____    ______ ____
ROOT
ATOM      1  C   LIG    1       -0.018   1.503   0.010  0.00  0.00    +0.160 C 
ATOM      2  C   LIG    1        0.002  -0.004   0.002  0.00  0.00    +0.230 A 
ATOM      3  C   LIG    1       -1.171  -0.701   0.004  0.00  0.00    -0.170 A 
ATOM      4  C   LIG    1       -1.126  -2.107  -0.004  0.00  0.00    +0.530 A 
ATOM      5  N   LIG    1        0.078  -2.717  -0.013  0.00  0.00    -0.380 N 
ATOM      6  C   LIG    1        1.215  -1.970  -0.015  0.00  0.00    +0.650 A 
ATOM      7  O   LIG    1       -2.156  -2.762  -0.003  0.00  0.00    -0.530 OA
ATOM      8  N   LIG    1        1.164  -0.653  -0.013  0.00  0.00    -0.580 NA
ENDROOT
BRANCH   5   9
ATOM      9  N   LIG    1        0.154  -4.081  -0.021  0.00  0.00    -0.610 N 
ATOM     10  H   LIG    1        0.697  -4.408  -0.807  0.00  0.00    +0.350 HD
ATOM     11  H   LIG    1       -0.766  -4.495  -0.019  0.00  0.00    +0.400 HD
ENDBRANCH   5   9
BRANCH   6  12
ATOM     12  N   LIG    1        2.432  -2.597  -0.024  0.00  0.00    -0.520 N 
ATOM     13  H   LIG    1        2.478  -3.566  -0.029  0.00  0.00    +0.440 HD
BRANCH  12  14
ATOM     14  N   LIG    1        3.610  -1.839  -0.025  0.00  0.00    -0.450 N 
ATOM     15  H   LIG    1        3.563  -0.870  -0.020  0.00  0.00    +0.470 HD
BRANCH  14  16
ATOM     16  C   LIG    1        4.808  -2.455  -0.034  0.00  0.00    +0.570 C 
ATOM     17  S   LIG    1        6.248  -1.529  -0.036  0.00  0.00    -0.570 S 
BRANCH  16  18
ATOM     18  N   LIG    1        4.873  -3.802  -0.042  0.00  0.00    -0.800 N 
ATOM     19  H   LIG    1        5.735  -4.246  -0.049  0.00  0.00    +0.440 HD
ATOM     20  H   LIG    1        4.057  -4.327  -0.041  0.00  0.00    +0.390 HD
ENDBRANCH  16  18
ENDBRANCH  14  16
ENDBRANCH  12  14
ENDBRANCH   6  12
TORSDOF 5
ENDMDL
MODEL      304
REMARK  Name = ZINC000031962533
REMARK                            x       y       z     vdW  Elec       q    Type
REMARK                         _______ _______ _______ _____ _____    ______ ____
ROOT
ATOM      1  N   LIG    1        0.802  -2.240  -1.373  0.00  0.00    -1.000 NA
ATOM      2  C   LIG    1        1.876  -2.981  -0.694  0.00  0.00    +0.300 C 
ATOM      3  C   LIG    1        1.242  -3.924   0.334  0.00  0.00    +0.170 C 
ATOM      4  N   LIG    1        0.234  -4.761  -0.330  0.00  0.00    -0.530 NA
ATOM      5  C   LIG    1       -0.864  -3.947  -0.869  0.00  0.00    +0.170 C 
ATOM      6  C   LIG    1       -0.319  -3.004  -1.941  0.00  0.00    +0.300 C 
ENDROOT
BRANCH   1   7
ATOM      7  S   LIG    1        0.851  -0.589  -1.490  0.00  0.00    +2.610 S 
ATOM      8  O   LIG    1        2.236  -0.275  -1.432  0.00  0.00    -0.950 OA
ATOM      9  O   LIG    1        0.082  -0.297  -2.649  0.00  0.00    -0.950 OA
BRANCH   7  11
ATOM     10  C   LIG    1       -0.019   1.526   0.010  0.00  0.00    +0.070 C 
ATOM     11  C   LIG    1        0.002  -0.004   0.002  0.00  0.00    -0.370 C 
ENDBRANCH   7  11
ENDBRANCH   1   7
BRANCH   4  12
ATOM     12  C   LIG    1       -0.275  -5.795   0.581  0.00  0.00    +0.190 C 
BRANCH  12  13
ATOM     13  C   LIG    1       -1.127  -6.793  -0.206  0.00  0.00    +0.180 C 
BRANCH  13  14
ATOM     14  O   LIG    1       -0.302  -7.488  -1.143  0.00  0.00    -0.560 OA
ATOM     15  H   LIG    1       -0.777  -8.139  -1.678  0.00  0.00    +0.380 HD
ENDBRANCH  13  14
ENDBRANCH  12  13
ENDBRANCH   4  12
TORSDOF 5
ENDMDL
MODEL      305
REMARK  Name = ZINC000000528430
REMARK                            x       y       z     vdW  Elec       q    Type
REMARK                         _______ _______ _______ _____ _____    ______ ____
ROOT
ATOM      1  C   LIG    1       -0.018   1.461   0.010  0.00  0.00    +0.350 C 
ATOM      2  N   LIG    1        0.002  -0.004   0.002  0.00  0.00    -0.580 N 
ATOM      3  C   LIG    1       -1.184  -0.868   0.003  0.00  0.00    +0.300 C 
ATOM      4  C   LIG    1       -0.614  -2.296  -0.008  0.00  0.00    +0.310 C 
ATOM      5  N   LIG    1        0.844  -2.108  -0.014  0.00  0.00    -0.590 N 
ATOM      6  C   LIG    1        1.847  -3.012  -0.024  0.00  0.00    +0.680 A 
ATOM      7  O   LIG    1        1.595  -4.205  -0.024  0.00  0.00    -0.540 OA
ATOM      8  N   LIG    1        3.114  -2.595  -0.025  0.00  0.00    -0.660 NA
ATOM      9  C   LIG    1        3.384  -1.296  -0.024  0.00  0.00    +0.660 A 
ATOM     10  N   LIG    1        2.402  -0.395  -0.018  0.00  0.00    -0.650 NA
ATOM     11  C   LIG    1        1.128  -0.778  -0.013  0.00  0.00    +0.670 A 
ENDROOT
BRANCH   9  12
ATOM     12  N   LIG    1        4.691  -0.874  -0.029  0.00  0.00    -0.570 N 
ATOM     13  C   LIG    1        5.026   0.559  -0.021  0.00  0.00    +0.280 C 
ATOM     14  C   LIG    1        6.042   0.812   1.099  0.00  0.00    +0.220 C 
ATOM     15  O   LIG    1        7.138  -0.094   0.954  0.00  0.00    -0.380 OA
ATOM     16  C   LIG    1        6.778  -1.472   1.080  0.00  0.00    +0.220 C 
ATOM     17  C   LIG    1        5.799  -1.843  -0.035  0.00  0.00    +0.290 C 
ENDBRANCH   9  12
TORSDOF 1
ENDMDL
MODEL      306
REMARK  Name = ZINC000071749829
REMARK                            x       y       z     vdW  Elec       q    Type
REMARK                         _______ _______ _______ _____ _____    ______ ____
ROOT
ATOM      1  N   LIG    1        0.686  -0.487  -1.199  0.00  0.00    -0.580 N 
ATOM      2  C   LIG    1       -0.025  -0.801  -2.300  0.00  0.00    +0.500 C 
ATOM      3  O   LIG    1        0.535  -1.268  -3.271  0.00  0.00    -0.520 OA
ENDROOT
BRANCH   2   4
ATOM      4  C   LIG    1       -1.501  -0.573  -2.327  0.00  0.00    +0.510 C 
ATOM      5  O   LIG    1       -2.046  -0.014  -1.398  0.00  0.00    -0.510 OA
ATOM      6  N   LIG    1       -2.229  -0.989  -3.383  0.00  0.00    -0.820 N 
ATOM      7  H   LIG    1       -3.187  -0.841  -3.400  0.00  0.00    +0.410 HD
ATOM      8  H   LIG    1       -1.794  -1.436  -4.125  0.00  0.00    +0.410 HD
ENDBRANCH   2   4
BRANCH   1  10
ATOM      9  C   LIG    1       -0.230   1.477  -0.065  0.00  0.00    +0.030 C 
ATOM     10  C   LIG    1       -0.002  -0.034   0.012  0.00  0.00    +0.280 C 
ENDBRANCH   1  10
BRANCH   1  11
ATOM     11  C   LIG    1        2.147  -0.599  -1.214  0.00  0.00    +0.290 C 
BRANCH  11  12
ATOM     12  C   LIG    1        2.555  -2.003  -0.765  0.00  0.00    +0.160 C 
BRANCH  12  13
ATOM     13  N   LIG    1        4.020  -2.115  -0.779  0.00  0.00    -0.530 NA
ATOM     14  C   LIG    1        4.578  -1.569  -2.025  0.00  0.00    +0.150 C 
ATOM     15  C   LIG    1        6.106  -1.651  -1.973  0.00  0.00    +0.220 C 
ATOM     16  O   LIG    1        6.498  -3.009  -1.753  0.00  0.00    -0.390 OA
ATOM     17  C   LIG    1        5.973  -3.572  -0.548  0.00  0.00    +0.220 C 
ATOM     18  C   LIG    1        4.444  -3.509  -0.586  0.00  0.00    +0.160 C 
ENDBRANCH  12  13
ENDBRANCH  11  12
ENDBRANCH   1  11
TORSDOF 5
ENDMDL
MODEL      307
REMARK  Name = ZINC000004015759
REMARK                            x       y       z     vdW  Elec       q    Type
REMARK                         _______ _______ _______ _____ _____    ______ ____
ROOT
ATOM      1  N   LIG    1        0.796  -0.399  -1.397  0.00  0.00    -1.000 NA
ATOM      2  C   LIG    1        0.054  -0.583  -2.652  0.00  0.00    +0.300 C 
ATOM      3  C   LIG    1        0.651   0.347  -3.715  0.00  0.00    +0.280 C 
ATOM      4  N   LIG    1        2.111   0.175  -3.723  0.00  0.00    -1.000 NA
ATOM      5  C   LIG    1        2.853   0.359  -2.468  0.00  0.00    +0.280 C 
ATOM      6  C   LIG    1        2.256  -0.566  -1.406  0.00  0.00    +0.300 C 
ENDROOT
BRANCH   1   8
ATOM      7  C   LIG    1       -0.022   1.810   0.012  0.00  0.00    -0.280 C 
ATOM      8  S   LIG    1        0.002  -0.004   0.002  0.00  0.00    +2.610 S 
ATOM      9  O   LIG    1       -1.309  -0.519  -0.182  0.00  0.00    -0.950 OA
ATOM     10  O   LIG    1        0.845  -0.497   1.035  0.00  0.00    -0.950 OA
ENDBRANCH   1   8
BRANCH   4  11
ATOM     11  S   LIG    1        2.905  -0.218  -5.122  0.00  0.00    +2.610 S 
ATOM     12  O   LIG    1        1.928  -0.895  -5.901  0.00  0.00    -0.950 OA
ATOM     13  O   LIG    1        4.080  -0.884  -4.682  0.00  0.00    -0.950 OA
ATOM     14  C   LIG    1        3.321   1.380  -5.872  0.00  0.00    -0.280 C 
ENDBRANCH   4  11
TORSDOF 2
ENDMDL
MODEL      308
REMARK  Name = ZINC000071773623
REMARK                            x       y       z     vdW  Elec       q    Type
REMARK                         _______ _______ _______ _____ _____    ______ ____
ROOT
ATOM      1  N   LIG    1       -2.433   0.969   0.019  0.00  0.00    -0.660 NA
ATOM      2  H   LIG    1       -2.361   0.340  -0.766  0.00  0.00    +0.360 HD
ENDROOT
BRANCH   1   3
ATOM      3  C   LIG    1       -3.734   1.652   0.029  0.00  0.00    +0.160 C 
ATOM      4  C   LIG    1       -4.159   1.954   1.476  0.00  0.00    +0.080 C 
ATOM      5  C   LIG    1       -5.649   2.350   1.481  0.00  0.00    -0.310 C 
ATOM      6  S   LIG    1       -6.375   1.491   0.038  0.00  0.00    +2.400 S 
ATOM      7  O   LIG    1       -6.829   2.454  -0.903  0.00  0.00    -0.930 OA
ATOM      8  O   LIG    1       -7.256   0.473   0.490  0.00  0.00    -0.930 OA
ATOM      9  C   LIG    1       -4.824   0.727  -0.571  0.00  0.00    -0.310 C 
ENDBRANCH   1   3
BRANCH   1  10
ATOM     10  C   LIG    1       -1.329   1.939   0.019  0.00  0.00    +0.190 C 
BRANCH  10  12
ATOM     11  O   LIG    1        0.002  -0.004   0.002  0.00  0.00    -0.410 OA
ATOM     12  C   LIG    1       -0.014   1.203   0.009  0.00  0.00    +0.350 C 
BRANCH  12  13
ATOM     13  C   LIG    1        1.280   1.975   0.000  0.00  0.00    +0.190 C 
BRANCH  13  14
ATOM     14  O   LIG    1        2.379   1.061  -0.015  0.00  0.00    -0.560 OA
ATOM     15  H   LIG    1        3.246   1.489  -0.021  0.00  0.00    +0.390 HD
ENDBRANCH  13  14
ENDBRANCH  12  13
ENDBRANCH  10  12
ENDBRANCH   1  10
TORSDOF 5
ENDMDL
MODEL      309
REMARK  Name = ZINC000071773814
REMARK                            x       y       z     vdW  Elec       q    Type
REMARK                         _______ _______ _______ _____ _____    ______ ____
ROOT
ATOM      1  C   LIG    1       -2.449   1.117   0.020  0.00  0.00    +0.270 C 
ENDROOT
BRANCH   1   4
ATOM      2  O   LIG    1        0.002  -0.004   0.002  0.00  0.00    -0.530 OA
ATOM      3  C   LIG    1       -0.014   1.209   0.009  0.00  0.00    +0.520 C 
ATOM      4  N   LIG    1       -1.191   1.867   0.018  0.00  0.00    -0.730 N 
ATOM      5  H   LIG    1       -1.204   2.837   0.023  0.00  0.00    +0.400 HD
BRANCH   3   6
ATOM      6  C   LIG    1        1.280   1.980   0.001  0.00  0.00    +0.060 C 
BRANCH   6   7
ATOM      7  C   LIG    1        2.457   1.002  -0.016  0.00  0.00    +0.050 C 
BRANCH   7   8
ATOM      8  C   LIG    1        3.771   1.784  -0.024  0.00  0.00    +0.180 C 
BRANCH   8   9
ATOM      9  O   LIG    1        4.870   0.871  -0.040  0.00  0.00    -0.570 OA
ATOM     10  H   LIG    1        5.737   1.298  -0.046  0.00  0.00    +0.380 HD
ENDBRANCH   8   9
ENDBRANCH   7   8
ENDBRANCH   6   7
ENDBRANCH   3   6
ENDBRANCH   1   4
BRANCH   1  11
ATOM     11  C   LIG    1       -3.626   2.095   0.031  0.00  0.00    +0.270 C 
BRANCH  11  12
ATOM     12  N   LIG    1       -4.884   1.346   0.033  0.00  0.00    -0.730 N 
ATOM     13  H   LIG    1       -4.871   0.376   0.027  0.00  0.00    +0.400 HD
ATOM     14  C   LIG    1       -6.060   2.003   0.042  0.00  0.00    +0.520 C 
ATOM     15  O   LIG    1       -6.077   3.216   0.048  0.00  0.00    -0.530 OA
BRANCH  14  16
ATOM     16  C   LIG    1       -7.355   1.232   0.044  0.00  0.00    +0.060 C 
BRANCH  16  17
ATOM     17  C   LIG    1       -8.531   2.211   0.054  0.00  0.00    +0.050 C 
BRANCH  17  18
ATOM     18  C   LIG    1       -9.846   1.428   0.057  0.00  0.00    +0.180 C 
BRANCH  18  19
ATOM     19  O   LIG    1      -10.945   2.341   0.067  0.00  0.00    -0.570 OA
ATOM     20  H   LIG    1      -11.812   1.914   0.069  0.00  0.00    +0.380 HD
ENDBRANCH  18  19
ENDBRANCH  17  18
ENDBRANCH  16  17
ENDBRANCH  14  16
ENDBRANCH  11  12
ENDBRANCH   1  11
TORSDOF 11
ENDMDL
MODEL      310
REMARK  Name = ZINC000071773624
REMARK                            x       y       z     vdW  Elec       q    Type
REMARK                         _______ _______ _______ _____ _____    ______ ____
ROOT
ATOM      1  N   LIG    1       -2.433   0.969   0.019  0.00  0.00    -0.670 NA
ATOM      2  H   LIG    1       -2.361   0.340  -0.766  0.00  0.00    +0.360 HD
ENDROOT
BRANCH   1   3
ATOM      3  C   LIG    1       -3.734   1.652   0.029  0.00  0.00    +0.200 C 
ATOM      4  C   LIG    1       -4.153   1.987  -1.413  0.00  0.00    +0.030 C 
ATOM      5  C   LIG    1       -5.649   2.391  -1.358  0.00  0.00    -0.310 C 
ATOM      6  S   LIG    1       -6.356   1.147  -0.213  0.00  0.00    +2.390 S 
ATOM      7  O   LIG    1       -6.801   0.021  -0.957  0.00  0.00    -0.930 OA
ATOM      8  O   LIG    1       -7.240   1.790   0.695  0.00  0.00    -0.940 OA
ATOM      9  C   LIG    1       -4.800   0.727   0.649  0.00  0.00    -0.300 C 
ENDBRANCH   1   3
BRANCH   1  10
ATOM     10  C   LIG    1       -1.329   1.939   0.019  0.00  0.00    +0.190 C 
BRANCH  10  12
ATOM     11  O   LIG    1        0.002  -0.004   0.002  0.00  0.00    -0.410 OA
ATOM     12  C   LIG    1       -0.014   1.203   0.009  0.00  0.00    +0.350 C 
BRANCH  12  13
ATOM     13  C   LIG    1        1.280   1.975   0.000  0.00  0.00    +0.190 C 
BRANCH  13  14
ATOM     14  O   LIG    1        2.379   1.061  -0.015  0.00  0.00    -0.560 OA
ATOM     15  H   LIG    1        3.246   1.489  -0.021  0.00  0.00    +0.390 HD
ENDBRANCH  13  14
ENDBRANCH  12  13
ENDBRANCH  10  12
ENDBRANCH   1  10
TORSDOF 5
ENDMDL
MODEL      311
REMARK  Name = ZINC000019708509
REMARK                            x       y       z     vdW  Elec       q    Type
REMARK                         _______ _______ _______ _____ _____    ______ ____
ROOT
ATOM      1  C   LIG    1       -0.018   1.465   0.010  0.00  0.00    +0.230 C 
ATOM      2  N   LIG    1        0.002  -0.004   0.002  0.00  0.00    -0.580 NA
ATOM      3  C   LIG    1       -1.358  -0.548  -0.101  0.00  0.00    +0.390 C 
ATOM      4  N   LIG    1       -1.301  -2.012  -0.204  0.00  0.00    -0.490 NA
ATOM      5  C   LIG    1       -0.319  -2.639   0.379  0.00  0.00    +0.340 C 
ATOM      6  S   LIG    1       -0.040  -4.381   0.416  0.00  0.00    +0.070 S 
ATOM      7  C   LIG    1        1.474  -4.260   1.425  0.00  0.00    -0.090 C 
ATOM      8  C   LIG    1        1.630  -2.778   1.650  0.00  0.00    +0.540 C 
ATOM      9  O   LIG    1        2.542  -2.313   2.300  0.00  0.00    -0.480 OA
ATOM     10  N   LIG    1        0.696  -2.014   1.086  0.00  0.00    -0.580 N 
ATOM     11  C   LIG    1        0.707  -0.528   1.182  0.00  0.00    +0.460 C 
ENDROOT
BRANCH   7  12
ATOM     12  C   LIG    1        2.675  -4.822   0.662  0.00  0.00    +0.240 C 
BRANCH  12  13
ATOM     13  O   LIG    1        2.454  -6.204   0.374  0.00  0.00    -0.540 OA
ATOM     14  H   LIG    1        3.177  -6.626  -0.109  0.00  0.00    +0.390 HD
ENDBRANCH  12  13
ENDBRANCH   7  12
BRANCH   7  15
ATOM     15  C   LIG    1        1.294  -4.991   2.756  0.00  0.00    +0.240 C 
BRANCH  15  16
ATOM     16  O   LIG    1        1.046  -6.377   2.509  0.00  0.00    -0.540 OA
ATOM     17  H   LIG    1        0.921  -6.903   3.311  0.00  0.00    +0.390 HD
ENDBRANCH  15  16
ENDBRANCH   7  15
TORSDOF 4
ENDMDL
MODEL      312
REMARK  Name = ZINC000002712758
REMARK                            x       y       z     vdW  Elec       q    Type
REMARK                         _______ _______ _______ _____ _____    ______ ____
ROOT
ATOM      1  C   LIG    1       -1.317  -0.512   2.406  0.00  0.00    -0.110 C 
ATOM      2  C   LIG    1       -1.969  -0.655   3.576  0.00  0.00    +0.190 C 
ATOM      3  C   LIG    1       -1.311  -0.294   4.891  0.00  0.00    +0.160 C 
ATOM      4  C   LIG    1       -1.710  -1.337   5.909  0.00  0.00    +0.530 C 
ATOM      5  N   LIG    1       -2.879  -1.988   5.775  0.00  0.00    -0.670 N 
ATOM      6  H   LIG    1       -3.160  -2.598   6.475  0.00  0.00    +0.430 HD
ATOM      7  C   LIG    1       -3.670  -1.821   4.705  0.00  0.00    +0.710 C 
ATOM      8  O   LIG    1       -4.787  -2.301   4.714  0.00  0.00    -0.530 OA
ATOM      9  O   LIG    1       -0.979  -1.586   6.843  0.00  0.00    -0.490 OA
ATOM     10  N   LIG    1       -3.264  -1.130   3.620  0.00  0.00    -0.640 N 
ATOM     11  H   LIG    1       -3.872  -0.977   2.880  0.00  0.00    +0.440 HD
ENDROOT
BRANCH   1  13
ATOM     12  N   LIG    1       -1.308  -0.737   0.022  0.00  0.00    -0.610 N 
ATOM     13  C   LIG    1       -1.905  -0.982   1.206  0.00  0.00    +0.560 C 
ATOM     14  O   LIG    1       -2.949  -1.607   1.243  0.00  0.00    -0.530 OA
BRANCH  12  16
ATOM     15  C   LIG    1       -0.355   1.508  -0.157  0.00  0.00    +0.020 C 
ATOM     16  C   LIG    1       -0.051   0.015  -0.022  0.00  0.00    +0.260 C 
ENDBRANCH  12  16
BRANCH  12  17
ATOM     17  C   LIG    1       -1.915  -1.223  -1.219  0.00  0.00    +0.300 C 
BRANCH  17  18
ATOM     18  C   LIG    1       -1.385  -2.623  -1.532  0.00  0.00    +0.150 C 
BRANCH  18  19
ATOM     19  O   LIG    1       -1.817  -3.534  -0.519  0.00  0.00    -0.560 OA
ATOM     20  H   LIG    1       -1.517  -4.443  -0.653  0.00  0.00    +0.370 HD
ENDBRANCH  18  19
ENDBRANCH  17  18
ENDBRANCH  12  17
ENDBRANCH   1  13
TORSDOF 5
ENDMDL
MODEL      313
REMARK  Name = ZINC000002712783
REMARK                            x       y       z     vdW  Elec       q    Type
REMARK                         _______ _______ _______ _____ _____    ______ ____
ROOT
ATOM      1  C   LIG    1       -0.641   1.480  -4.129  0.00  0.00    -0.110 C 
ATOM      2  C   LIG    1       -0.555   2.734  -4.612  0.00  0.00    +0.190 C 
ATOM      3  C   LIG    1       -1.428   3.195  -5.760  0.00  0.00    +0.160 C 
ATOM      4  C   LIG    1       -0.584   4.064  -6.663  0.00  0.00    +0.530 C 
ATOM      5  N   LIG    1        0.455   4.748  -6.151  0.00  0.00    -0.670 N 
ATOM      6  H   LIG    1        0.941   5.362  -6.724  0.00  0.00    +0.430 HD
ATOM      7  C   LIG    1        0.842   4.607  -4.874  0.00  0.00    +0.710 C 
ATOM      8  O   LIG    1        1.675   5.368  -4.422  0.00  0.00    -0.530 OA
ATOM      9  O   LIG    1       -0.844   4.146  -7.844  0.00  0.00    -0.480 OA
ATOM     10  N   LIG    1        0.329   3.648  -4.076  0.00  0.00    -0.640 N 
ATOM     11  H   LIG    1        0.585   3.599  -3.142  0.00  0.00    +0.450 HD
ENDROOT
BRANCH   1  14
ATOM     12  N   LIG    1        0.123  -0.178  -2.579  0.00  0.00    -0.710 N 
ATOM     13  H   LIG    1       -0.619  -0.745  -2.842  0.00  0.00    +0.410 HD
ATOM     14  C   LIG    1        0.279   1.034  -3.147  0.00  0.00    +0.550 C 
ATOM     15  O   LIG    1        1.210   1.746  -2.817  0.00  0.00    -0.550 OA
BRANCH  12  16
ATOM     16  CA  LIG    1        1.073  -0.639  -1.564  0.00  0.00    +0.250 C 
BRANCH  16  18
ATOM     17  C   LIG    1        0.763   1.421  -0.186  0.00  0.00    +0.010 C 
ATOM     18  C   LIG    1        0.655  -0.105  -0.193  0.00  0.00    +0.010 C 
ENDBRANCH  16  18
BRANCH  16  19
ATOM     19  C   LIG    1        1.085  -2.169  -1.534  0.00  0.00    +0.180 C 
BRANCH  19  20
ATOM     20  O   LIG    1       -0.190  -2.646  -1.101  0.00  0.00    -0.570 OA
ATOM     21  H   LIG    1       -0.255  -3.610  -1.058  0.00  0.00    +0.380 HD
ENDBRANCH  19  20
ENDBRANCH  16  19
ENDBRANCH  12  16
ENDBRANCH   1  14
TORSDOF 5
ENDMDL
MODEL      314
REMARK  Name = ZINC000220020415
REMARK                            x       y       z     vdW  Elec       q    Type
REMARK                         _______ _______ _______ _____ _____    ______ ____
ROOT
ATOM      1  C   LIG    1        0.020  -2.136  -1.177  0.00  0.00    +0.220 C 
ATOM      2  C   LIG    1       -1.332  -2.769  -1.552  0.00  0.00    +0.150 C 
ATOM      3  O   LIG    1       -1.406  -4.163  -1.220  0.00  0.00    -0.360 OA
ATOM      4  C   LIG    1       -1.698  -4.914  -2.402  0.00  0.00    +0.200 C 
ATOM      5  C   LIG    1       -1.331  -4.047  -3.617  0.00  0.00    +0.020 C 
ATOM      6  C   LIG    1       -0.859  -2.687  -3.023  0.00  0.00    -0.010 C 
ATOM      7  C   LIG    1        0.578  -2.737  -2.478  0.00  0.00    +0.250 C 
ENDROOT
BRANCH   1  10
ATOM      8  C   LIG    1       -0.018   1.503   0.010  0.00  0.00    +0.110 C 
ATOM      9  C   LIG    1        0.002  -0.004   0.002  0.00  0.00    +0.510 C 
ATOM     10  N   LIG    1        0.000  -0.672  -1.169  0.00  0.00    -0.710 N 
ATOM     11  H   LIG    1       -0.015  -0.182  -2.006  0.00  0.00    +0.410 HD
ATOM     12  O   LIG    1        0.020  -0.616   1.049  0.00  0.00    -0.530 OA
ENDBRANCH   1  10
BRANCH   7  13
ATOM     13  N   LIG    1        1.092  -4.098  -2.302  0.00  0.00    -1.090 NA
ATOM     14  H   LIG    1        0.495  -4.810  -2.024  0.00  0.00    +0.420 HD
BRANCH  13  15
ATOM     15  S   LIG    1        2.693  -4.421  -2.578  0.00  0.00    +2.610 S 
ATOM     16  O   LIG    1        2.943  -3.874  -3.866  0.00  0.00    -0.950 OA
ATOM     17  O   LIG    1        2.815  -5.816  -2.338  0.00  0.00    -0.950 OA
ATOM     18  C   LIG    1        3.571  -3.476  -1.303  0.00  0.00    -0.280 C 
ENDBRANCH  13  15
ENDBRANCH   7  13
TORSDOF 3
ENDMDL
MODEL      315
REMARK  Name = ZINC000046091037
REMARK                            x       y       z     vdW  Elec       q    Type
REMARK                         _______ _______ _______ _____ _____    ______ ____
ROOT
ATOM      1  C   LIG    1       -2.432  -2.813   0.010  0.00  0.00    +0.220 C 
ENDROOT
BRANCH   1   8
ATOM      2  N   LIG    1       -5.413   0.212   2.264  0.00  0.00    -0.860 N 
ATOM      3  H   LIG    1       -5.213   0.883   1.594  0.00  0.00    +0.400 HD
ATOM      4  H   LIG    1       -6.029   0.415   2.985  0.00  0.00    +0.420 HD
ATOM      5  C   LIG    1       -4.830  -1.002   2.198  0.00  0.00    +0.700 C 
ATOM      6  N   LIG    1       -3.973  -1.284   1.196  0.00  0.00    -0.690 N 
ATOM      7  H   LIG    1       -3.776  -0.614   0.523  0.00  0.00    +0.410 HD
ATOM      8  C   LIG    1       -3.390  -2.497   1.130  0.00  0.00    +0.510 C 
ATOM      9  O   LIG    1       -3.636  -3.335   1.971  0.00  0.00    -0.440 OA
ATOM     10  O   LIG    1       -5.077  -1.841   3.041  0.00  0.00    -0.530 OA
ENDBRANCH   1   8
BRANCH   1  11
ATOM     11  N   LIG    1       -2.053  -4.230   0.075  0.00  0.00    -0.520 NA
ATOM     12  C   LIG    1       -0.938  -4.519  -0.836  0.00  0.00    +0.180 C 
ATOM     13  C   LIG    1       -0.475  -5.964  -0.636  0.00  0.00    +0.040 C 
ATOM     14  C   LIG    1       -1.644  -6.912  -0.914  0.00  0.00    -0.020 C 
ATOM     15  C   LIG    1       -2.810  -6.559   0.014  0.00  0.00    +0.040 C 
ATOM     16  C   LIG    1       -3.205  -5.097  -0.205  0.00  0.00    +0.170 C 
BRANCH  14  17
ATOM     17  C   LIG    1       -1.205  -8.355  -0.658  0.00  0.00    +0.170 C 
BRANCH  17  18
ATOM     18  O   LIG    1       -2.258  -9.247  -1.028  0.00  0.00    -0.570 OA
ATOM     19  H   LIG    1       -2.049 -10.181  -0.892  0.00  0.00    +0.380 HD
ENDBRANCH  17  18
ENDBRANCH  14  17
ENDBRANCH   1  11
TORSDOF 4
ENDMDL
MODEL      316
REMARK  Name = ZINC000000104907
REMARK                            x       y       z     vdW  Elec       q    Type
REMARK                         _______ _______ _______ _____ _____    ______ ____
ROOT
ATOM      1  C   LIG    1       -0.018   1.465   0.010  0.00  0.00    +0.220 C 
ATOM      2  N   LIG    1        0.002  -0.004   0.002  0.00  0.00    -0.560 NA
ATOM      3  C   LIG    1       -1.364  -0.550  -0.068  0.00  0.00    +0.450 C 
ATOM      4  N   LIG    1       -1.261  -2.006  -0.242  0.00  0.00    -0.710 N 
ATOM      5  H   LIG    1       -1.821  -2.470  -0.884  0.00  0.00    +0.410 HD
ATOM      6  C   LIG    1       -0.355  -2.696   0.526  0.00  0.00    +0.480 A 
ATOM      7  C   LIG    1        0.609  -2.028   1.222  0.00  0.00    -0.370 A 
ATOM      8  C   LIG    1        1.524  -2.764   1.993  0.00  0.00    +0.570 A 
ATOM      9  N   LIG    1        1.432  -4.108   2.031  0.00  0.00    -0.560 N 
ATOM     10  C   LIG    1        0.472  -4.749   1.340  0.00  0.00    +0.710 A 
ATOM     11  O   LIG    1        0.406  -5.962   1.391  0.00  0.00    -0.540 OA
ATOM     12  C   LIG    1        2.386  -4.878   2.834  0.00  0.00    +0.330 C 
ATOM     13  O   LIG    1        2.396  -2.191   2.624  0.00  0.00    -0.530 OA
ATOM     14  N   LIG    1       -0.416  -4.066   0.594  0.00  0.00    -0.550 N 
ATOM     15  C   LIG    1       -1.452  -4.788  -0.149  0.00  0.00    +0.340 C 
ATOM     16  C   LIG    1        0.706  -0.527   1.180  0.00  0.00    +0.290 C 
ENDROOT
TORSDOF 0
ENDMDL
MODEL      317
REMARK  Name = ZINC000002712784
REMARK                            x       y       z     vdW  Elec       q    Type
REMARK                         _______ _______ _______ _____ _____    ______ ____
ROOT
ATOM      1  C   LIG    1        3.848   1.527  -1.594  0.00  0.00    -0.110 C 
ATOM      2  C   LIG    1        4.225   2.709  -2.115  0.00  0.00    +0.190 C 
ATOM      3  C   LIG    1        5.684   3.106  -2.189  0.00  0.00    +0.160 C 
ATOM      4  C   LIG    1        5.782   4.576  -1.852  0.00  0.00    +0.530 C 
ATOM      5  N   LIG    1        4.740   5.389  -2.102  0.00  0.00    -0.670 N 
ATOM      6  H   LIG    1        4.842   6.342  -1.954  0.00  0.00    +0.430 HD
ATOM      7  C   LIG    1        3.564   4.924  -2.550  0.00  0.00    +0.710 C 
ATOM      8  O   LIG    1        2.717   5.714  -2.918  0.00  0.00    -0.530 OA
ATOM      9  O   LIG    1        6.796   5.021  -1.358  0.00  0.00    -0.480 OA
ATOM     10  N   LIG    1        3.296   3.603  -2.609  0.00  0.00    -0.640 N 
ATOM     11  H   LIG    1        2.460   3.288  -2.986  0.00  0.00    +0.450 HD
ENDROOT
BRANCH   1  14
ATOM     12  N   LIG    1        2.089   0.013  -1.002  0.00  0.00    -0.710 N 
ATOM     13  H   LIG    1        2.755  -0.670  -0.829  0.00  0.00    +0.410 HD
ATOM     14  C   LIG    1        2.472   1.238  -1.415  0.00  0.00    +0.550 C 
ATOM     15  O   LIG    1        1.637   2.096  -1.633  0.00  0.00    -0.550 OA
BRANCH  12  16
ATOM     16  CA  LIG    1        0.667  -0.286  -0.817  0.00  0.00    +0.250 C 
BRANCH  16  18
ATOM     17  C   LIG    1        0.341   1.682   0.687  0.00  0.00    +0.010 C 
ATOM     18  C   LIG    1        0.230   0.160   0.580  0.00  0.00    +0.010 C 
ENDBRANCH  16  18
BRANCH  16  19
ATOM     19  C   LIG    1        0.439  -1.791  -0.967  0.00  0.00    +0.180 C 
BRANCH  19  20
ATOM     20  O   LIG    1        1.111  -2.482   0.088  0.00  0.00    -0.570 OA
ATOM     21  H   LIG    1        1.009  -3.443   0.056  0.00  0.00    +0.380 HD
ENDBRANCH  19  20
ENDBRANCH  16  19
ENDBRANCH  12  16
ENDBRANCH   1  14
TORSDOF 5
ENDMDL
MODEL      318
REMARK  Name = ZINC000025626241
REMARK                            x       y       z     vdW  Elec       q    Type
REMARK                         _______ _______ _______ _____ _____    ______ ____
ROOT
ATOM      1  C   LIG    1       -0.019   1.526   0.010  0.00  0.00    +0.050 C 
ATOM      2  C   LIG    1        0.002  -0.004   0.002  0.00  0.00    +0.250 C 
ATOM      3  O   LIG    1        0.674  -0.466  -1.174  0.00  0.00    -0.360 OA
ATOM      4  C   LIG    1        1.802  -1.253  -0.756  0.00  0.00    +0.350 C 
ATOM      5  O   LIG    1        1.444  -2.638  -0.775  0.00  0.00    -0.340 OA
ATOM      6  C   LIG    1        1.767  -3.263   0.460  0.00  0.00    +0.190 C 
ATOM      7  C   LIG    1        2.861  -4.328   0.279  0.00  0.00    +0.180 C 
ATOM      8  C   LIG    1        4.168  -3.586   0.603  0.00  0.00    +0.310 C 
ATOM      9  O   LIG    1        3.836  -2.368   1.267  0.00  0.00    -0.380 OA
ATOM     10  C   LIG    1        2.400  -2.206   1.392  0.00  0.00    +0.200 C 
ATOM     11  C   LIG    1        2.015  -0.848   0.726  0.00  0.00    +0.150 C 
ATOM     12  C   LIG    1       -1.433  -0.534   0.011  0.00  0.00    +0.070 C 
ATOM     13  O   LIG    1        0.695  -0.479   1.162  0.00  0.00    -0.360 OA
ENDROOT
BRANCH   8  14
ATOM     14  O   LIG    1        4.983  -4.392   1.455  0.00  0.00    -0.560 OA
ATOM     15  H   LIG    1        5.824  -3.982   1.698  0.00  0.00    +0.390 HD
ENDBRANCH   8  14
BRANCH   7  16
ATOM     16  O   LIG    1        2.875  -4.807  -1.067  0.00  0.00    -0.530 OA
ATOM     17  H   LIG    1        3.547  -5.482  -1.238  0.00  0.00    +0.390 HD
ENDBRANCH   7  16
TORSDOF 2
ENDMDL
MODEL      319
REMARK  Name = ZINC000033846390
REMARK                            x       y       z     vdW  Elec       q    Type
REMARK                         _______ _______ _______ _____ _____    ______ ____
ROOT
ATOM      1  C   LIG    1        1.510  -2.380   2.489  0.00  0.00    +0.120 C 
ATOM      2  C   LIG    1        1.620  -3.744   2.637  0.00  0.00    +0.040 C 
ATOM      3  N   LIG    1        1.094  -4.572   1.712  0.00  0.00    -0.450 NA
ATOM      4  C   LIG    1        1.202  -5.871   1.857  0.00  0.00    +0.360 C 
ATOM      5  N   LIG    1        0.771  -6.925   1.086  0.00  0.00    -0.540 N 
ATOM      6  H   LIG    1        0.281  -6.858   0.251  0.00  0.00    +0.480 HD
ATOM      7  O   LIG    1        1.164  -8.125   1.724  0.00  0.00    +0.120 OA
ATOM      8  N   LIG    1        1.855  -7.801   2.916  0.00  0.00    -0.530 N 
ATOM      9  H   LIG    1        2.232  -8.437   3.544  0.00  0.00    +0.480 HD
ATOM     10  C   LIG    1        1.898  -6.439   3.031  0.00  0.00    +0.450 C 
ATOM     11  N   LIG    1        2.419  -5.646   3.946  0.00  0.00    -0.570 NA
ATOM     12  C   LIG    1        2.324  -4.314   3.813  0.00  0.00    +0.520 C 
ATOM     13  O   LIG    1        2.804  -3.578   4.656  0.00  0.00    -0.430 OA
ENDROOT
BRANCH   1  14
ATOM     14  C   LIG    1        0.812  -1.821   1.323  0.00  0.00    +0.480 C 
ATOM     15  O   LIG    1        0.333  -2.564   0.489  0.00  0.00    -0.460 OA
BRANCH  14  16
ATOM     16  O   LIG    1        0.704  -0.485   1.178  0.00  0.00    -0.360 OA
BRANCH  16  18
ATOM     17  C   LIG    1       -0.019   1.526   0.010  0.00  0.00    +0.070 C 
ATOM     18  C   LIG    1        0.002  -0.004   0.002  0.00  0.00    +0.200 C 
ENDBRANCH  16  18
ENDBRANCH  14  16
ENDBRANCH   1  14
TORSDOF 3
ENDMDL
MODEL      320
REMARK  Name = ZINC000252428260
REMARK                            x       y       z     vdW  Elec       q    Type
REMARK                         _______ _______ _______ _____ _____    ______ ____
ROOT
ATOM      1  C   LIG    1       -3.014  -2.361   0.018  0.00  0.00    +0.390 C 
ATOM      2  O   LIG    1       -3.408  -2.644   1.363  0.00  0.00    -0.370 OA
ATOM      3  C   LIG    1       -4.748  -3.123   1.490  0.00  0.00    +0.200 C 
ATOM      4  C   LIG    1       -4.896  -4.435   0.716  0.00  0.00    +0.170 C 
ATOM      5  C   LIG    1       -4.518  -4.199  -0.750  0.00  0.00    +0.170 C 
ATOM      6  C   LIG    1       -3.092  -3.643  -0.815  0.00  0.00    +0.120 C 
ENDROOT
BRANCH   1   8
ATOM      7  C   LIG    1       -1.412  -0.526   0.013  0.00  0.00    +0.520 C 
ATOM      8  N   LIG    1       -1.640  -1.854   0.008  0.00  0.00    -0.720 N 
ATOM      9  H   LIG    1       -0.894  -2.474  -0.003  0.00  0.00    +0.400 HD
ATOM     10  O   LIG    1       -2.344   0.250   0.026  0.00  0.00    -0.520 OA
BRANCH   7  12
ATOM     11  C   LIG    1       -0.019   1.526   0.010  0.00  0.00    +0.040 C 
ATOM     12  C   LIG    1        0.002  -0.004   0.002  0.00  0.00    +0.060 C 
ENDBRANCH   7  12
ENDBRANCH   1   8
BRANCH   5  13
ATOM     13  O   LIG    1       -5.425  -3.263  -1.333  0.00  0.00    -0.550 OA
ATOM     14  H   LIG    1       -5.245  -3.066  -2.263  0.00  0.00    +0.390 HD
ENDBRANCH   5  13
BRANCH   4  15
ATOM     15  O   LIG    1       -4.030  -5.422   1.280  0.00  0.00    -0.540 OA
ATOM     16  H   LIG    1       -4.072  -6.281   0.838  0.00  0.00    +0.380 HD
ENDBRANCH   4  15
BRANCH   6  17
ATOM     17  O   LIG    1       -2.755  -3.352  -2.173  0.00  0.00    -0.560 OA
ATOM     18  H   LIG    1       -1.863  -2.995  -2.289  0.00  0.00    +0.390 HD
ENDBRANCH   6  17
BRANCH   3  19
ATOM     19  C   LIG    1       -5.066  -3.363   2.967  0.00  0.00    +0.210 C 
BRANCH  19  20
ATOM     20  O   LIG    1       -5.042  -2.118   3.668  0.00  0.00    -0.570 OA
ATOM     21  H   LIG    1       -5.235  -2.195   4.612  0.00  0.00    +0.380 HD
ENDBRANCH  19  20
ENDBRANCH   3  19
TORSDOF 7
ENDMDL
MODEL      321
REMARK  Name = ZINC000013115987
REMARK                            x       y       z     vdW  Elec       q    Type
REMARK                         _______ _______ _______ _____ _____    ______ ____
ROOT
ATOM      1  C   LIG    1        1.496  -2.371   2.466  0.00  0.00    +0.140 C 
ATOM      2  C   LIG    1        1.605  -3.716   2.612  0.00  0.00    -0.140 A 
ATOM      3  S   LIG    1        0.995  -4.977   1.528  0.00  0.00    +0.220 S 
ATOM      4  C   LIG    1        1.594  -6.330   2.515  0.00  0.00    +0.270 A 
ATOM      5  N   LIG    1        1.597  -7.633   2.480  0.00  0.00    -0.460 NA
ATOM      6  C   LIG    1        2.289  -8.173   3.652  0.00  0.00    +0.240 C 
ATOM      7  C   LIG    1        2.724  -6.926   4.437  0.00  0.00    +0.290 C 
ATOM      8  N   LIG    1        2.222  -5.794   3.608  0.00  0.00    -0.600 N 
ATOM      9  C   LIG    1        2.262  -4.456   3.705  0.00  0.00    +0.570 A 
ATOM     10  O   LIG    1        2.804  -3.890   4.635  0.00  0.00    -0.470 OA
ENDROOT
BRANCH   1  11
ATOM     11  C   LIG    1        0.801  -1.814   1.305  0.00  0.00    +0.490 C 
ATOM     12  O   LIG    1        0.321  -2.557   0.470  0.00  0.00    -0.480 OA
BRANCH  11  13
ATOM     13  O   LIG    1        0.693  -0.477   1.160  0.00  0.00    -0.340 OA
BRANCH  13  15
ATOM     14  C   LIG    1       -0.019   1.526   0.010  0.00  0.00    +0.070 C 
ATOM     15  C   LIG    1        0.002  -0.004   0.002  0.00  0.00    +0.200 C 
ENDBRANCH  13  15
ENDBRANCH  11  13
ENDBRANCH   1  11
TORSDOF 3
ENDMDL
MODEL      322
REMARK  Name = ZINC000020184831
REMARK                            x       y       z     vdW  Elec       q    Type
REMARK                         _______ _______ _______ _____ _____    ______ ____
ROOT
ATOM      1  C   LIG    1        1.473  -2.359  -2.559  0.00  0.00    +0.530 C 
ATOM      2  N   LIG    1        1.578  -3.693  -2.720  0.00  0.00    -0.700 N 
ATOM      3  H   LIG    1        1.208  -4.293  -2.054  0.00  0.00    +0.410 HD
ATOM      4  O   LIG    1        1.936  -1.609  -3.393  0.00  0.00    -0.480 OA
ENDROOT
BRANCH   1   5
ATOM      5  C   LIG    1        0.786  -1.804  -1.353  0.00  0.00    +0.460 C 
ATOM      6  O   LIG    1        0.324  -2.554  -0.520  0.00  0.00    -0.480 OA
BRANCH   5   7
ATOM      7  O   LIG    1        0.682  -0.472  -1.193  0.00  0.00    -0.330 OA
BRANCH   7   9
ATOM      8  C   LIG    1       -0.019   1.526   0.010  0.00  0.00    +0.080 C 
ATOM      9  C   LIG    1        0.002  -0.004   0.002  0.00  0.00    +0.220 C 
ENDBRANCH   7   9
ENDBRANCH   5   7
ENDBRANCH   1   5
BRANCH   2  10
ATOM     10  C   LIG    1        2.251  -4.238  -3.902  0.00  0.00    +0.280 C 
BRANCH  10  11
ATOM     11  C   LIG    1        2.233  -5.766  -3.841  0.00  0.00    +0.180 C 
BRANCH  11  12
ATOM     12  N   LIG    1        2.908  -6.312  -5.026  0.00  0.00    -0.530 NA
ATOM     13  C   LIG    1        2.451  -5.638  -6.250  0.00  0.00    +0.150 C 
ATOM     14  C   LIG    1        3.221  -6.194  -7.450  0.00  0.00    +0.220 C 
ATOM     15  O   LIG    1        3.038  -7.611  -7.512  0.00  0.00    -0.380 OA
ATOM     16  C   LIG    1        3.473  -8.300  -6.337  0.00  0.00    +0.220 C 
ATOM     17  C   LIG    1        2.705  -7.765  -5.125  0.00  0.00    +0.160 C 
ENDBRANCH  11  12
ENDBRANCH  10  11
ENDBRANCH   2  10
TORSDOF 6
ENDMDL
MODEL      323
REMARK  Name = ZINC000004276355
REMARK                            x       y       z     vdW  Elec       q    Type
REMARK                         _______ _______ _______ _____ _____    ______ ____
ROOT
ATOM      1  C   LIG    1        1.473  -2.359  -2.559  0.00  0.00    +0.530 C 
ATOM      2  N   LIG    1        1.578  -3.693  -2.720  0.00  0.00    -0.690 N 
ATOM      3  H   LIG    1        1.208  -4.293  -2.054  0.00  0.00    +0.420 HD
ATOM      4  O   LIG    1        1.936  -1.609  -3.393  0.00  0.00    -0.480 OA
ENDROOT
BRANCH   2   5
ATOM      5  C   LIG    1        2.251  -4.238  -3.902  0.00  0.00    +0.270 C 
ATOM      6  C   LIG    1        1.249  -4.378  -5.061  0.00  0.00    +0.060 C 
ATOM      7  C   LIG    1        1.884  -5.255  -6.160  0.00  0.00    -0.300 C 
ATOM      8  S   LIG    1        3.053  -6.350  -5.278  0.00  0.00    +2.400 S 
ATOM      9  O   LIG    1        4.379  -6.062  -5.701  0.00  0.00    -0.920 OA
ATOM     10  O   LIG    1        2.571  -7.686  -5.322  0.00  0.00    -0.930 OA
ATOM     11  C   LIG    1        2.785  -5.662  -3.600  0.00  0.00    -0.310 C 
ENDBRANCH   2   5
BRANCH   1  12
ATOM     12  C   LIG    1        0.786  -1.804  -1.353  0.00  0.00    +0.460 C 
ATOM     13  O   LIG    1        0.324  -2.554  -0.520  0.00  0.00    -0.480 OA
BRANCH  12  14
ATOM     14  O   LIG    1        0.682  -0.472  -1.193  0.00  0.00    -0.330 OA
BRANCH  14  16
ATOM     15  C   LIG    1       -0.019   1.526   0.010  0.00  0.00    +0.080 C 
ATOM     16  C   LIG    1        0.002  -0.004   0.002  0.00  0.00    +0.220 C 
ENDBRANCH  14  16
ENDBRANCH  12  14
ENDBRANCH   1  12
TORSDOF 4
ENDMDL
MODEL      324
REMARK  Name = ZINC000252428261
REMARK                            x       y       z     vdW  Elec       q    Type
REMARK                         _______ _______ _______ _____ _____    ______ ____
ROOT
ATOM      1  C   LIG    1       -3.014  -2.361   0.018  0.00  0.00    +0.370 C 
ATOM      2  O   LIG    1       -3.408  -2.644   1.363  0.00  0.00    -0.360 OA
ATOM      3  C   LIG    1       -4.748  -3.123   1.490  0.00  0.00    +0.190 C 
ATOM      4  C   LIG    1       -4.896  -4.435   0.716  0.00  0.00    +0.160 C 
ATOM      5  C   LIG    1       -4.518  -4.199  -0.750  0.00  0.00    +0.160 C 
ATOM      6  C   LIG    1       -3.092  -3.643  -0.815  0.00  0.00    +0.120 C 
ENDROOT
BRANCH   1   8
ATOM      7  C   LIG    1       -1.412  -0.526   0.013  0.00  0.00    +0.520 C 
ATOM      8  N   LIG    1       -1.640  -1.854   0.008  0.00  0.00    -0.720 N 
ATOM      9  H   LIG    1       -0.894  -2.474  -0.003  0.00  0.00    +0.400 HD
ATOM     10  O   LIG    1       -2.344   0.250   0.026  0.00  0.00    -0.530 OA
BRANCH   7  12
ATOM     11  C   LIG    1       -0.019   1.526   0.010  0.00  0.00    +0.040 C 
ATOM     12  C   LIG    1        0.002  -0.004   0.002  0.00  0.00    +0.060 C 
ENDBRANCH   7  12
ENDBRANCH   1   8
BRANCH   5  13
ATOM     13  O   LIG    1       -4.583  -5.435  -1.465  0.00  0.00    -0.550 OA
ATOM     14  H   LIG    1       -4.356  -5.360  -2.402  0.00  0.00    +0.390 HD
ENDBRANCH   5  13
BRANCH   4  15
ATOM     15  O   LIG    1       -4.030  -5.422   1.280  0.00  0.00    -0.530 OA
ATOM     16  H   LIG    1       -4.072  -6.281   0.838  0.00  0.00    +0.380 HD
ENDBRANCH   4  15
BRANCH   6  17
ATOM     17  O   LIG    1       -2.178  -4.609  -0.293  0.00  0.00    -0.520 OA
ATOM     18  H   LIG    1       -1.254  -4.322  -0.304  0.00  0.00    +0.370 HD
ENDBRANCH   6  17
BRANCH   3  19
ATOM     19  C   LIG    1       -5.066  -3.363   2.967  0.00  0.00    +0.220 C 
BRANCH  19  20
ATOM     20  O   LIG    1       -5.042  -2.118   3.668  0.00  0.00    -0.570 OA
ATOM     21  H   LIG    1       -5.235  -2.195   4.612  0.00  0.00    +0.380 HD
ENDBRANCH  19  20
ENDBRANCH   3  19
TORSDOF 7
ENDMDL
MODEL      325
REMARK  Name = ZINC000004276356
REMARK                            x       y       z     vdW  Elec       q    Type
REMARK                         _______ _______ _______ _____ _____    ______ ____
ROOT
ATOM      1  C   LIG    1        1.473  -2.359  -2.559  0.00  0.00    +0.540 C 
ATOM      2  N   LIG    1        1.578  -3.693  -2.720  0.00  0.00    -0.690 N 
ATOM      3  H   LIG    1        1.208  -4.293  -2.054  0.00  0.00    +0.420 HD
ATOM      4  O   LIG    1        1.936  -1.609  -3.393  0.00  0.00    -0.480 OA
ENDROOT
BRANCH   2   5
ATOM      5  C   LIG    1        2.251  -4.238  -3.902  0.00  0.00    +0.280 C 
ATOM      6  C   LIG    1        3.765  -4.326  -3.640  0.00  0.00    +0.070 C 
ATOM      7  C   LIG    1        4.361  -5.202  -4.773  0.00  0.00    -0.290 C 
ATOM      8  S   LIG    1        3.136  -6.558  -4.914  0.00  0.00    +2.400 S 
ATOM      9  O   LIG    1        3.508  -7.620  -4.047  0.00  0.00    -0.930 OA
ATOM     10  O   LIG    1        2.881  -6.821  -6.287  0.00  0.00    -0.930 OA
ATOM     11  C   LIG    1        1.720  -5.655  -4.194  0.00  0.00    -0.320 C 
ENDBRANCH   2   5
BRANCH   1  12
ATOM     12  C   LIG    1        0.786  -1.804  -1.353  0.00  0.00    +0.460 C 
ATOM     13  O   LIG    1        0.324  -2.554  -0.520  0.00  0.00    -0.480 OA
BRANCH  12  14
ATOM     14  O   LIG    1        0.682  -0.472  -1.193  0.00  0.00    -0.330 OA
BRANCH  14  16
ATOM     15  C   LIG    1       -0.019   1.526   0.010  0.00  0.00    +0.080 C 
ATOM     16  C   LIG    1        0.002  -0.004   0.002  0.00  0.00    +0.220 C 
ENDBRANCH  14  16
ENDBRANCH  12  14
ENDBRANCH   1  12
TORSDOF 4
ENDMDL
MODEL      326
REMARK  Name = ZINC000004619084
REMARK                            x       y       z     vdW  Elec       q    Type
REMARK                         _______ _______ _______ _____ _____    ______ ____
ROOT
ATOM      1  C   LIG    1        1.561  -2.338   2.459  0.00  0.00    -0.460 C 
ATOM      2  C   LIG    1        1.603  -3.736   2.402  0.00  0.00    +0.610 C 
ENDROOT
BRANCH   2   3
ATOM      3  N   LIG    1        2.171  -4.442   3.418  0.00  0.00    -0.800 N 
ATOM      4  H   LIG    1        2.101  -5.409   3.435  0.00  0.00    +0.410 HD
ATOM      5  H   LIG    1        2.645  -3.978   4.126  0.00  0.00    +0.440 HD
ENDBRANCH   2   3
BRANCH   1   6
ATOM      6  C   LIG    1        1.137  -1.595   1.328  0.00  0.00    +0.550 C 
ATOM      7  O   LIG    1        0.914  -2.163   0.275  0.00  0.00    -0.570 OA
BRANCH   6   8
ATOM      8  O   LIG    1        0.981  -0.258   1.419  0.00  0.00    -0.330 OA
BRANCH   8  10
ATOM      9  C   LIG    1        0.432   1.924   0.536  0.00  0.00    +0.070 C 
ATOM     10  C   LIG    1        0.552   0.427   0.241  0.00  0.00    +0.180 C 
ENDBRANCH   8  10
ENDBRANCH   6   8
ENDBRANCH   1   6
BRANCH   2  11
ATOM     11  N   LIG    1        1.077  -4.390   1.329  0.00  0.00    -0.530 N 
ATOM     12  H   LIG    1        0.663  -3.888   0.611  0.00  0.00    +0.440 HD
BRANCH  11  13
ATOM     13  N   LIG    1        1.134  -5.753   1.266  0.00  0.00    -0.620 NA
ATOM     14  H   LIG    1        2.074  -6.084   1.425  0.00  0.00    +0.340 HD
ATOM     15  H   LIG    1        0.777  -6.089   0.384  0.00  0.00    +0.380 HD
ENDBRANCH  11  13
ENDBRANCH   2  11
BRANCH   1  16
ATOM     16  C   LIG    1        1.942  -1.665   3.647  0.00  0.00    +0.550 C 
ATOM     17  O   LIG    1        2.252  -2.304   4.635  0.00  0.00    -0.570 OA
BRANCH  16  18
ATOM     18  O   LIG    1        1.960  -0.316   3.683  0.00  0.00    -0.330 OA
BRANCH  18  19
ATOM     19  C   LIG    1        2.354   0.295   4.913  0.00  0.00    +0.180 C 
ATOM     20  C   LIG    1        2.314   1.817   4.762  0.00  0.00    +0.060 C 
ENDBRANCH  18  19
ENDBRANCH  16  18
ENDBRANCH   1  16
TORSDOF 9
ENDMDL
MODEL      327
REMARK  Name = ZINC000002854381
REMARK                            x       y       z     vdW  Elec       q    Type
REMARK                         _______ _______ _______ _____ _____    ______ ____
ROOT
ATOM      1  C   LIG    1        1.263  -2.388  -2.854  0.00  0.00    -0.450 C 
ATOM      2  C   LIG    1        1.204  -3.749  -2.531  0.00  0.00    +0.610 C 
ENDROOT
BRANCH   2   3
ATOM      3  N   LIG    1        0.630  -4.147  -1.362  0.00  0.00    -0.820 N 
ATOM      4  H   LIG    1        0.330  -5.063  -1.256  0.00  0.00    +0.400 HD
ATOM      5  H   LIG    1        0.521  -3.514  -0.635  0.00  0.00    +0.430 HD
ENDBRANCH   2   3
BRANCH   1   6
ATOM      6  C   LIG    1        0.584  -1.438  -2.050  0.00  0.00    +0.540 C 
ATOM      7  O   LIG    1       -0.140  -1.813  -1.146  0.00  0.00    -0.570 OA
BRANCH   6   8
ATOM      8  O   LIG    1        0.740  -0.119  -2.286  0.00  0.00    -0.330 OA
BRANCH   8  10
ATOM      9  C   LIG    1        0.326   2.223  -1.854  0.00  0.00    +0.050 C 
ATOM     10  C   LIG    1        0.026   0.781  -1.437  0.00  0.00    +0.180 C 
ENDBRANCH   8  10
ENDBRANCH   6   8
ENDBRANCH   1   6
BRANCH   2  11
ATOM     11  N   LIG    1        1.720  -4.675  -3.386  0.00  0.00    -0.680 N 
ATOM     12  H   LIG    1        2.167  -4.389  -4.197  0.00  0.00    +0.440 HD
BRANCH  11  13
ATOM     13  C   LIG    1        1.598  -6.102  -3.080  0.00  0.00    +0.260 C 
BRANCH  13  14
ATOM     14  C   LIG    1        2.256  -6.920  -4.194  0.00  0.00    +0.200 C 
BRANCH  14  15
ATOM     15  O   LIG    1        3.660  -6.656  -4.213  0.00  0.00    -0.570 OA
ATOM     16  H   LIG    1        4.142  -7.142  -4.896  0.00  0.00    +0.390 HD
ENDBRANCH  14  15
ENDBRANCH  13  14
ENDBRANCH  11  13
ENDBRANCH   2  11
BRANCH   1  17
ATOM     17  C   LIG    1        2.003  -1.959  -3.985  0.00  0.00    +0.550 C 
ATOM     18  O   LIG    1        2.674  -2.758  -4.611  0.00  0.00    -0.560 OA
BRANCH  17  19
ATOM     19  O   LIG    1        1.962  -0.666  -4.367  0.00  0.00    -0.330 OA
BRANCH  19  20
ATOM     20  C   LIG    1        2.731  -0.304  -5.516  0.00  0.00    +0.180 C 
ATOM     21  C   LIG    1        2.561   1.191  -5.794  0.00  0.00    +0.060 C 
ENDBRANCH  19  20
ENDBRANCH  17  19
ENDBRANCH   1  17
TORSDOF 11
ENDMDL
MODEL      328
REMARK  Name = ZINC000020428636
REMARK                            x       y       z     vdW  Elec       q    Type
REMARK                         _______ _______ _______ _____ _____    ______ ____
ROOT
ATOM      1  O   LIG    1        0.002  -0.004   0.002  0.00  0.00    -0.530 OA
ATOM      2  C   LIG    1       -0.014   1.212   0.009  0.00  0.00    +0.610 C 
ATOM      3  N   LIG    1        1.143   1.901   0.001  0.00  0.00    -0.700 N 
ATOM      4  H   LIG    1        1.130   2.871   0.007  0.00  0.00    +0.420 HD
ENDROOT
BRANCH   2   5
ATOM      5  C   LIG    1       -1.301   1.932   0.019  0.00  0.00    +0.120 A 
ATOM      6  N   LIG    1       -1.469   3.237   0.021  0.00  0.00    -0.240 NA
ATOM      7  N   LIG    1       -2.726   3.507   0.030  0.00  0.00    -0.290 NA
ATOM      8  C   LIG    1       -3.422   2.397   0.033  0.00  0.00    +0.420 A 
ATOM      9  N   LIG    1       -2.551   1.368   0.022  0.00  0.00    -0.550 N 
ATOM     10  H   LIG    1       -2.765   0.422   0.021  0.00  0.00    +0.440 HD
ENDBRANCH   2   5
BRANCH   3  11
ATOM     11  C   LIG    1        2.422   1.186  -0.015  0.00  0.00    +0.290 C 
BRANCH  11  12
ATOM     12  C   LIG    1        3.571   2.196  -0.020  0.00  0.00    +0.180 C 
BRANCH  12  13
ATOM     13  N   LIG    1        4.853   1.479  -0.036  0.00  0.00    -0.530 NA
ATOM     14  C   LIG    1        4.860   0.390   0.951  0.00  0.00    +0.150 C 
ATOM     15  C   LIG    1        6.188  -0.366   0.859  0.00  0.00    +0.220 C 
ATOM     16  O   LIG    1        7.268   0.550   1.057  0.00  0.00    -0.380 OA
ATOM     17  C   LIG    1        7.292   1.624   0.112  0.00  0.00    +0.220 C 
ATOM     18  C   LIG    1        5.975   2.400   0.196  0.00  0.00    +0.160 C 
ENDBRANCH  12  13
ENDBRANCH  11  12
ENDBRANCH   3  11
TORSDOF 4
ENDMDL
MODEL      329
REMARK  Name = ZINC000004009719
REMARK                            x       y       z     vdW  Elec       q    Type
REMARK                         _______ _______ _______ _____ _____    ______ ____
ROOT
ATOM      1  C   LIG    1        0.000  -0.690  -1.200  0.00  0.00    +0.510 A 
ATOM      2  N   LIG    1        0.011  -1.992  -1.329  0.00  0.00    -0.430 NA
ATOM      3  C   LIG    1        0.005  -2.307  -2.651  0.00  0.00    -0.060 A 
ATOM      4  C   LIG    1       -0.011  -1.115  -3.363  0.00  0.00    +0.250 A 
ATOM      5  N   LIG    1       -0.020  -1.156  -4.739  0.00  0.00    -0.510 N 
ATOM      6  C   LIG    1       -0.015  -2.331  -5.393  0.00  0.00    +0.720 A 
ATOM      7  N   LIG    1        0.000  -3.510  -4.749  0.00  0.00    -0.650 N 
ATOM      8  H   LIG    1        0.004  -4.334  -5.260  0.00  0.00    +0.440 HD
ATOM      9  O   LIG    1       -0.023  -2.326  -6.609  0.00  0.00    -0.540 OA
ATOM     10  C   LIG    1       -0.036   0.096  -5.500  0.00  0.00    +0.340 C 
ATOM     11  C   LIG    1        0.010  -3.563  -3.400  0.00  0.00    +0.600 A 
ATOM     12  O   LIG    1        0.024  -4.633  -2.819  0.00  0.00    -0.480 OA
ATOM     13  N   LIG    1       -0.020  -0.112  -2.440  0.00  0.00    -0.580 N 
ATOM     14  H   LIG    1       -0.031   0.840  -2.629  0.00  0.00    +0.420 HD
ENDROOT
BRANCH   1  16
ATOM     15  C   LIG    1       -0.018   1.461   0.010  0.00  0.00    +0.290 C 
ATOM     16  N   LIG    1        0.002  -0.004   0.002  0.00  0.00    -0.600 N 
BRANCH  16  17
ATOM     17  C   LIG    1        0.024  -0.743   1.267  0.00  0.00    +0.330 C 
BRANCH  17  18
ATOM     18  C   LIG    1       -1.411  -1.020   1.720  0.00  0.00    +0.160 C 
BRANCH  18  19
ATOM     19  O   LIG    1       -2.046  -1.892   0.784  0.00  0.00    -0.550 OA
ATOM     20  H   LIG    1       -2.961  -2.111   1.009  0.00  0.00    +0.370 HD
ENDBRANCH  18  19
ENDBRANCH  17  18
ENDBRANCH  16  17
ENDBRANCH   1  16
TORSDOF 4
ENDMDL
MODEL      330
REMARK  Name = ZINC000002477718
REMARK                            x       y       z     vdW  Elec       q    Type
REMARK                         _______ _______ _______ _____ _____    ______ ____
ROOT
ATOM      1  C   LIG    1       -1.319   1.939   0.019  0.00  0.00    +0.510 C 
ATOM      2  N   LIG    1       -2.477   1.249   0.021  0.00  0.00    -0.690 N 
ATOM      3  H   LIG    1       -2.463   0.279   0.015  0.00  0.00    +0.420 HD
ATOM      4  O   LIG    1       -1.335   3.152   0.025  0.00  0.00    -0.520 OA
ENDROOT
BRANCH   1   6
ATOM      5  O   LIG    1        0.002  -0.004   0.002  0.00  0.00    -0.520 OA
ATOM      6  C   LIG    1       -0.014   1.209   0.009  0.00  0.00    +0.510 C 
ATOM      7  N   LIG    1        1.143   1.899   0.001  0.00  0.00    -0.690 N 
ATOM      8  H   LIG    1        1.130   2.869   0.007  0.00  0.00    +0.420 HD
BRANCH   7   9
ATOM      9  C   LIG    1        2.422   1.184  -0.015  0.00  0.00    +0.290 C 
BRANCH   9  10
ATOM     10  C   LIG    1        3.571   2.194  -0.020  0.00  0.00    +0.190 C 
BRANCH  10  11
ATOM     11  O   LIG    1        3.565   2.929   1.205  0.00  0.00    -0.570 OA
ATOM     12  H   LIG    1        4.268   3.590   1.271  0.00  0.00    +0.390 HD
ENDBRANCH  10  11
ENDBRANCH   9  10
ENDBRANCH   7   9
ENDBRANCH   1   6
BRANCH   2  13
ATOM     13  C   LIG    1       -3.755   1.964   0.030  0.00  0.00    +0.280 C 
BRANCH  13  14
ATOM     14  C   LIG    1       -4.904   0.954   0.030  0.00  0.00    +0.160 C 
ATOM     15  C   LIG    1       -6.254   1.696  -0.081  0.00  0.00    +0.020 C 
ATOM     16  C   LIG    1       -7.159   0.880   0.881  0.00  0.00    +0.010 C 
ATOM     17  C   LIG    1       -6.137   0.472   1.972  0.00  0.00    +0.200 C 
ATOM     18  O   LIG    1       -4.910   0.225   1.263  0.00  0.00    -0.380 OA
ENDBRANCH  13  14
ENDBRANCH   2  13
TORSDOF 6
ENDMDL
MODEL      331
REMARK  Name = ZINC000001670363
REMARK                            x       y       z     vdW  Elec       q    Type
REMARK                         _______ _______ _______ _____ _____    ______ ____
ROOT
ATOM      1  C   LIG    1        1.479  -2.361  -2.569  0.00  0.00    +0.200 C 
ENDROOT
BRANCH   1   2
ATOM      2  N   LIG    1        2.591  -1.485  -2.944  0.00  0.00    -0.710 N 
ATOM      3  H   LIG    1        2.606  -1.067  -3.819  0.00  0.00    +0.420 HD
ATOM      4  C   LIG    1        3.595  -1.259  -2.073  0.00  0.00    +0.520 C 
ATOM      5  O   LIG    1        3.576  -1.781  -0.978  0.00  0.00    -0.530 OA
ATOM      6  C   LIG    1        4.739  -0.358  -2.459  0.00  0.00    +0.120 C 
ENDBRANCH   1   2
BRANCH   1   7
ATOM      7  C   LIG    1        0.786  -1.801  -1.353  0.00  0.00    +0.470 C 
ATOM      8  O   LIG    1        0.325  -2.548  -0.523  0.00  0.00    -0.450 OA
BRANCH   7   9
ATOM      9  O   LIG    1        0.682  -0.472  -1.193  0.00  0.00    -0.350 OA
BRANCH   9  11
ATOM     10  C   LIG    1       -0.019   1.526   0.010  0.00  0.00    +0.070 C 
ATOM     11  C   LIG    1        0.002  -0.004   0.002  0.00  0.00    +0.200 C 
ENDBRANCH   9  11
ENDBRANCH   7   9
ENDBRANCH   1   7
BRANCH   1  12
ATOM     12  C   LIG    1        2.006  -3.737  -2.257  0.00  0.00    +0.470 C 
ATOM     13  O   LIG    1        1.492  -4.399  -1.387  0.00  0.00    -0.450 OA
BRANCH  12  14
ATOM     14  O   LIG    1        3.049  -4.229  -2.945  0.00  0.00    -0.350 OA
BRANCH  14  15
ATOM     15  C   LIG    1        3.504  -5.561  -2.591  0.00  0.00    +0.200 C 
ATOM     16  C   LIG    1        4.690  -5.947  -3.477  0.00  0.00    +0.070 C 
ENDBRANCH  14  15
ENDBRANCH  12  14
ENDBRANCH   1  12
BRANCH   1  17
ATOM     17  C   LIG    1        0.484  -2.447  -3.728  0.00  0.00    +0.240 C 
BRANCH  17  18
ATOM     18  O   LIG    1       -0.601  -3.301  -3.362  0.00  0.00    -0.550 OA
ATOM     19  H   LIG    1       -1.272  -3.402  -4.051  0.00  0.00    +0.400 HD
ENDBRANCH  17  18
ENDBRANCH   1  17
TORSDOF 9
ENDMDL
MODEL      332
REMARK  Name = ZINC000024868741
REMARK                            x       y       z     vdW  Elec       q    Type
REMARK                         _______ _______ _______ _____ _____    ______ ____
ROOT
ATOM      1  N   LIG    1       -1.173  -0.704   0.009  0.00  0.00    -0.610 N 
ATOM      2  C   LIG    1       -2.346  -0.203   0.742  0.00  0.00    +0.320 C 
ATOM      3  C   LIG    1       -3.550  -0.207  -0.205  0.00  0.00    +0.190 C 
ATOM      4  N   LIG    1       -3.707  -1.546  -0.787  0.00  0.00    -0.530 NA
ATOM      5  C   LIG    1       -2.543  -1.912  -1.605  0.00  0.00    +0.190 C 
ATOM      6  C   LIG    1       -1.300  -1.975  -0.720  0.00  0.00    +0.300 C 
ENDROOT
BRANCH   1  10
ATOM      7  N   LIG    1       -0.016   1.328   0.009  0.00  0.00    -0.790 N 
ATOM      8  H   LIG    1       -0.863   1.801   0.016  0.00  0.00    +0.440 HD
ATOM      9  H   LIG    1        0.817   1.824   0.004  0.00  0.00    +0.440 HD
ATOM     10  C   LIG    1        0.002  -0.004   0.002  0.00  0.00    +0.750 C 
BRANCH  10  11
ATOM     11  N   LIG    1        1.165  -0.654  -0.013  0.00  0.00    -0.790 N 
ATOM     12  H   LIG    1        1.998  -0.158  -0.018  0.00  0.00    +0.440 HD
ATOM     13  H   LIG    1        1.178  -1.624  -0.018  0.00  0.00    +0.440 HD
ENDBRANCH  10  11
ENDBRANCH   1  10
BRANCH   4  14
ATOM     14  C   LIG    1       -4.949  -1.640  -1.566  0.00  0.00    +0.220 C 
BRANCH  14  15
ATOM     15  C   LIG    1       -5.205  -3.100  -1.945  0.00  0.00    -0.470 C 
BRANCH  15  16
ATOM     16  S   LIG    1       -6.738  -3.215  -2.907  0.00  0.00    +2.640 S 
ATOM     17  O   LIG    1       -6.598  -2.411  -4.111  0.00  0.00    -1.060 OA
ATOM     18  O   LIG    1       -7.839  -2.716  -2.097  0.00  0.00    -1.060 OA
ATOM     19  O   LIG    1       -6.968  -4.607  -3.259  0.00  0.00    -1.060 OA
ENDBRANCH  15  16
ENDBRANCH  14  15
ENDBRANCH   4  14
TORSDOF 5
ENDMDL
MODEL      333
REMARK  Name = ZINC000034936170
REMARK                            x       y       z     vdW  Elec       q    Type
REMARK                         _______ _______ _______ _____ _____    ______ ____
ROOT
ATOM      1  O   LIG    1        0.011   0.033  -0.325  0.00  0.00    -0.510 OA
ATOM      2  C   LIG    1       -0.013   1.216  -0.055  0.00  0.00    +0.510 C 
ATOM      3  N   LIG    1        1.138   1.879   0.174  0.00  0.00    -0.690 N 
ATOM      4  H   LIG    1        1.119   2.824   0.390  0.00  0.00    +0.420 HD
ENDROOT
BRANCH   2   5
ATOM      5  C   LIG    1       -1.319   1.939   0.019  0.00  0.00    +0.510 C 
ATOM      6  N   LIG    1       -2.475   1.254  -0.081  0.00  0.00    -0.590 N 
ATOM      7  C   LIG    1       -2.485  -0.218  -0.085  0.00  0.00    +0.260 C 
ATOM      8  C   LIG    1       -3.505  -0.697   0.954  0.00  0.00    +0.220 C 
ATOM      9  O   LIG    1       -4.759  -0.052   0.716  0.00  0.00    -0.380 OA
ATOM     10  C   LIG    1       -4.721   1.370   0.856  0.00  0.00    +0.220 C 
ATOM     11  C   LIG    1       -3.765   1.955  -0.183  0.00  0.00    +0.260 C 
ATOM     12  O   LIG    1       -1.338   3.143   0.169  0.00  0.00    -0.520 OA
ENDBRANCH   2   5
BRANCH   3  13
ATOM     13  C   LIG    1        2.419   1.171   0.096  0.00  0.00    +0.290 C 
BRANCH  13  14
ATOM     14  C   LIG    1        3.559   2.146   0.395  0.00  0.00    +0.190 C 
BRANCH  14  15
ATOM     15  O   LIG    1        3.458   2.597   1.748  0.00  0.00    -0.570 OA
ATOM     16  H   LIG    1        4.151   3.219   2.008  0.00  0.00    +0.390 HD
ENDBRANCH  14  15
ENDBRANCH  13  14
ENDBRANCH   3  13
TORSDOF 4
ENDMDL
MODEL      334
REMARK  Name = ZINC000048343724
REMARK                            x       y       z     vdW  Elec       q    Type
REMARK                         _______ _______ _______ _____ _____    ______ ____
ROOT
ATOM      1  N   LIG    1        1.710  -2.160  -2.982  0.00  0.00    -0.520 NA
ATOM      2  C   LIG    1        3.033  -1.515  -2.997  0.00  0.00    +0.170 C 
ATOM      3  C   LIG    1        3.845  -2.087  -4.161  0.00  0.00    +0.270 C 
ATOM      4  N   LIG    1        3.060  -2.035  -5.392  0.00  0.00    -0.720 N 
ATOM      5  H   LIG    1        3.524  -2.109  -6.240  0.00  0.00    +0.400 HD
ATOM      6  C   LIG    1        1.731  -1.889  -5.401  0.00  0.00    +0.520 C 
ATOM      7  O   LIG    1        1.154  -1.886  -6.468  0.00  0.00    -0.550 OA
ATOM      8  C   LIG    1        0.923  -1.728  -4.145  0.00  0.00    +0.230 C 
ENDROOT
BRANCH   1   9
ATOM      9  C   LIG    1        0.999  -1.873  -1.729  0.00  0.00    +0.260 C 
BRANCH   9  10
ATOM     10  C   LIG    1        0.880  -0.358  -1.545  0.00  0.00    -0.390 C 
BRANCH  10  12
ATOM     11  C   LIG    1       -0.022   1.810   0.012  0.00  0.00    -0.270 C 
ATOM     12  S   LIG    1        0.002  -0.004   0.002  0.00  0.00    +2.430 S 
ATOM     13  O   LIG    1       -1.334  -0.474  -0.117  0.00  0.00    -0.930 OA
ATOM     14  O   LIG    1        0.801  -0.452   1.088  0.00  0.00    -0.930 OA
ENDBRANCH  10  12
ENDBRANCH   9  10
ENDBRANCH   1   9
TORSDOF 3
ENDMDL
MODEL      335
REMARK  Name = ZINC000004122283
REMARK                            x       y       z     vdW  Elec       q    Type
REMARK                         _______ _______ _______ _____ _____    ______ ____
ROOT
ATOM      1  C   LIG    1       -1.319   1.939   0.019  0.00  0.00    +0.510 C 
ATOM      2  N   LIG    1       -2.477   1.249   0.021  0.00  0.00    -0.690 N 
ATOM      3  H   LIG    1       -2.463   0.279   0.015  0.00  0.00    +0.420 HD
ATOM      4  O   LIG    1       -1.335   3.152   0.025  0.00  0.00    -0.520 OA
ENDROOT
BRANCH   1   6
ATOM      5  O   LIG    1        0.002  -0.004   0.002  0.00  0.00    -0.520 OA
ATOM      6  C   LIG    1       -0.014   1.209   0.009  0.00  0.00    +0.510 C 
ATOM      7  N   LIG    1        1.143   1.899   0.001  0.00  0.00    -0.690 N 
ATOM      8  H   LIG    1        1.130   2.869   0.007  0.00  0.00    +0.420 HD
BRANCH   7   9
ATOM      9  C   LIG    1        2.422   1.184  -0.015  0.00  0.00    +0.290 C 
BRANCH   9  10
ATOM     10  C   LIG    1        3.571   2.194  -0.020  0.00  0.00    +0.190 C 
BRANCH  10  11
ATOM     11  O   LIG    1        3.565   2.929   1.205  0.00  0.00    -0.570 OA
ATOM     12  H   LIG    1        4.268   3.590   1.271  0.00  0.00    +0.390 HD
ENDBRANCH  10  11
ENDBRANCH   9  10
ENDBRANCH   7   9
ENDBRANCH   1   6
BRANCH   2  13
ATOM     13  C   LIG    1       -3.755   1.964   0.030  0.00  0.00    +0.290 C 
BRANCH  13  14
ATOM     14  C   LIG    1       -4.904   0.954   0.030  0.00  0.00    +0.150 C 
ATOM     15  C   LIG    1       -6.268   1.691   0.006  0.00  0.00    +0.020 C 
ATOM     16  C   LIG    1       -7.178   0.604  -0.626  0.00  0.00    +0.010 C 
ATOM     17  C   LIG    1       -6.217  -0.099  -1.609  0.00  0.00    +0.190 C 
ATOM     18  O   LIG    1       -4.878   0.169  -1.172  0.00  0.00    -0.380 OA
ENDBRANCH  13  14
ENDBRANCH   2  13
TORSDOF 6
ENDMDL
MODEL      336
REMARK  Name = ZINC000004456003
REMARK                            x       y       z     vdW  Elec       q    Type
REMARK                         _______ _______ _______ _____ _____    ______ ____
ROOT
ATOM      1  C   LIG    1       -1.319   1.939   0.019  0.00  0.00    +0.510 C 
ATOM      2  N   LIG    1       -2.477   1.249   0.021  0.00  0.00    -0.700 N 
ATOM      3  H   LIG    1       -2.463   0.279   0.015  0.00  0.00    +0.420 HD
ATOM      4  O   LIG    1       -1.335   3.152   0.025  0.00  0.00    -0.510 OA
ENDROOT
BRANCH   1   6
ATOM      5  O   LIG    1        0.002  -0.004   0.002  0.00  0.00    -0.520 OA
ATOM      6  C   LIG    1       -0.014   1.209   0.009  0.00  0.00    +0.510 C 
ATOM      7  N   LIG    1        1.143   1.899   0.001  0.00  0.00    -0.690 N 
ATOM      8  H   LIG    1        1.130   2.869   0.007  0.00  0.00    +0.420 HD
BRANCH   7   9
ATOM      9  C   LIG    1        2.422   1.184  -0.015  0.00  0.00    +0.290 C 
BRANCH   9  10
ATOM     10  C   LIG    1        3.571   2.194  -0.020  0.00  0.00    +0.190 C 
BRANCH  10  11
ATOM     11  O   LIG    1        3.565   2.929   1.205  0.00  0.00    -0.570 OA
ATOM     12  H   LIG    1        4.268   3.590   1.271  0.00  0.00    +0.390 HD
ENDBRANCH  10  11
ENDBRANCH   9  10
ENDBRANCH   7   9
ENDBRANCH   1   6
BRANCH   2  13
ATOM     13  C   LIG    1       -3.755   1.964   0.030  0.00  0.00    +0.340 C 
BRANCH  13  14
ATOM     14  C   LIG    1       -4.887   0.970   0.030  0.00  0.00    -0.070 A 
ATOM     15  C   LIG    1       -5.422   0.503  -1.161  0.00  0.00    -0.010 A 
ATOM     16  C   LIG    1       -6.460  -0.409  -1.121  0.00  0.00    +0.260 A 
ATOM     17  N   LIG    1       -6.941  -0.834   0.030  0.00  0.00    -0.480 NA
ATOM     18  C   LIG    1       -6.457  -0.412   1.182  0.00  0.00    +0.260 A 
ATOM     19  C   LIG    1       -5.415   0.495   1.222  0.00  0.00    -0.010 A 
ENDBRANCH  13  14
ENDBRANCH   2  13
TORSDOF 6
ENDMDL
MODEL      337
REMARK  Name = ZINC000003089282
REMARK                            x       y       z     vdW  Elec       q    Type
REMARK                         _______ _______ _______ _____ _____    ______ ____
ROOT
ATOM      1  C   LIG    1       -1.319   1.939   0.019  0.00  0.00    +0.510 C 
ATOM      2  N   LIG    1       -2.477   1.249   0.021  0.00  0.00    -0.700 N 
ATOM      3  H   LIG    1       -2.463   0.279   0.015  0.00  0.00    +0.410 HD
ATOM      4  O   LIG    1       -1.335   3.152   0.025  0.00  0.00    -0.520 OA
ENDROOT
BRANCH   1   6
ATOM      5  O   LIG    1        0.002  -0.004   0.002  0.00  0.00    -0.520 OA
ATOM      6  C   LIG    1       -0.014   1.209   0.009  0.00  0.00    +0.510 C 
ATOM      7  N   LIG    1        1.143   1.899   0.001  0.00  0.00    -0.690 N 
ATOM      8  H   LIG    1        1.130   2.869   0.007  0.00  0.00    +0.420 HD
BRANCH   7   9
ATOM      9  C   LIG    1        2.422   1.184  -0.015  0.00  0.00    +0.290 C 
BRANCH   9  10
ATOM     10  C   LIG    1        3.571   2.194  -0.020  0.00  0.00    +0.190 C 
BRANCH  10  11
ATOM     11  O   LIG    1        3.565   2.929   1.205  0.00  0.00    -0.570 OA
ATOM     12  H   LIG    1        4.268   3.590   1.271  0.00  0.00    +0.390 HD
ENDBRANCH  10  11
ENDBRANCH   9  10
ENDBRANCH   7   9
ENDBRANCH   1   6
BRANCH   2  13
ATOM     13  C   LIG    1       -3.755   1.964   0.030  0.00  0.00    +0.350 C 
BRANCH  13  14
ATOM     14  C   LIG    1       -4.887   0.970   0.030  0.00  0.00    -0.170 A 
ATOM     15  C   LIG    1       -5.416   0.508  -1.165  0.00  0.00    +0.090 A 
ATOM     16  C   LIG    1       -6.457  -0.407  -1.117  0.00  0.00    -0.030 A 
ATOM     17  C   LIG    1       -6.929  -0.826   0.113  0.00  0.00    +0.270 A 
ATOM     18  N   LIG    1       -6.401  -0.366   1.230  0.00  0.00    -0.480 NA
ATOM     19  C   LIG    1       -5.407   0.501   1.222  0.00  0.00    +0.280 A 
ENDBRANCH  13  14
ENDBRANCH   2  13
TORSDOF 6
ENDMDL
MODEL      338
REMARK  Name = ZINC000002901661
REMARK                            x       y       z     vdW  Elec       q    Type
REMARK                         _______ _______ _______ _____ _____    ______ ____
ROOT
ATOM      1  C   LIG    1       -1.319   1.939   0.019  0.00  0.00    +0.510 C 
ATOM      2  N   LIG    1       -2.477   1.249   0.021  0.00  0.00    -0.690 N 
ATOM      3  H   LIG    1       -2.463   0.279   0.015  0.00  0.00    +0.410 HD
ATOM      4  O   LIG    1       -1.335   3.152   0.025  0.00  0.00    -0.520 OA
ENDROOT
BRANCH   1   6
ATOM      5  O   LIG    1        0.002  -0.004   0.002  0.00  0.00    -0.520 OA
ATOM      6  C   LIG    1       -0.014   1.209   0.009  0.00  0.00    +0.510 C 
ATOM      7  N   LIG    1        1.143   1.899   0.001  0.00  0.00    -0.690 N 
ATOM      8  H   LIG    1        1.130   2.869   0.007  0.00  0.00    +0.420 HD
BRANCH   7   9
ATOM      9  C   LIG    1        2.422   1.184  -0.015  0.00  0.00    +0.290 C 
BRANCH   9  10
ATOM     10  C   LIG    1        3.571   2.194  -0.020  0.00  0.00    +0.190 C 
BRANCH  10  11
ATOM     11  O   LIG    1        3.565   2.929   1.205  0.00  0.00    -0.570 OA
ATOM     12  H   LIG    1        4.268   3.590   1.271  0.00  0.00    +0.390 HD
ENDBRANCH  10  11
ENDBRANCH   9  10
ENDBRANCH   7   9
ENDBRANCH   1   6
BRANCH   2  13
ATOM     13  C   LIG    1       -3.755   1.964   0.030  0.00  0.00    +0.350 C 
BRANCH  13  14
ATOM     14  C   LIG    1       -4.887   0.970   0.030  0.00  0.00    +0.100 A 
ATOM     15  C   LIG    1       -5.467   0.595   1.228  0.00  0.00    -0.010 A 
ATOM     16  C   LIG    1       -6.509  -0.320   1.216  0.00  0.00    +0.070 A 
ATOM     17  C   LIG    1       -6.929  -0.827  -0.004  0.00  0.00    -0.020 A 
ATOM     18  C   LIG    1       -6.300  -0.406  -1.160  0.00  0.00    +0.260 A 
ATOM     19  N   LIG    1       -5.316   0.470  -1.112  0.00  0.00    -0.470 NA
ENDBRANCH  13  14
ENDBRANCH   2  13
TORSDOF 6
ENDMDL
MODEL      339
REMARK  Name = ZINC000003174180
REMARK                            x       y       z     vdW  Elec       q    Type
REMARK                         _______ _______ _______ _____ _____    ______ ____
ROOT
ATOM      1  O   LIG    1        0.002  -0.004   0.002  0.00  0.00    -0.590 OA
ATOM      2  C   LIG    1       -0.014   1.212   0.009  0.00  0.00    +0.700 C 
ATOM      3  N   LIG    1       -1.191   1.870   0.018  0.00  0.00    -0.740 N 
ATOM      4  H   LIG    1       -1.204   2.840   0.023  0.00  0.00    +0.400 HD
ATOM      5  N   LIG    1        1.143   1.901   0.001  0.00  0.00    -0.740 N 
ATOM      6  H   LIG    1        1.130   2.871   0.007  0.00  0.00    +0.400 HD
ENDROOT
BRANCH   3   7
ATOM      7  C   LIG    1       -2.449   1.120   0.020  0.00  0.00    +0.290 C 
ATOM      8  C   LIG    1       -2.837   0.763   1.466  0.00  0.00    +0.060 C 
ATOM      9  C   LIG    1       -4.309   0.279   1.424  0.00  0.00    -0.300 C 
ATOM     10  S   LIG    1       -5.093   1.484   0.286  0.00  0.00    +2.400 S 
ATOM     11  O   LIG    1       -5.591   2.584   1.034  0.00  0.00    -0.930 OA
ATOM     12  O   LIG    1       -5.949   0.793  -0.614  0.00  0.00    -0.930 OA
ATOM     13  C   LIG    1       -3.569   1.986  -0.590  0.00  0.00    -0.320 C 
ENDBRANCH   3   7
BRANCH   5  14
ATOM     14  C   LIG    1        2.422   1.186  -0.015  0.00  0.00    +0.300 C 
BRANCH  14  15
ATOM     15  C   LIG    1        3.571   2.196  -0.020  0.00  0.00    +0.180 C 
BRANCH  15  16
ATOM     16  O   LIG    1        3.565   2.932   1.205  0.00  0.00    -0.570 OA
ATOM     17  H   LIG    1        4.268   3.592   1.271  0.00  0.00    +0.380 HD
ENDBRANCH  15  16
ENDBRANCH  14  15
ENDBRANCH   5  14
TORSDOF 4
ENDMDL
MODEL      340
REMARK  Name = ZINC000003865799
REMARK                            x       y       z     vdW  Elec       q    Type
REMARK                         _______ _______ _______ _____ _____    ______ ____
ROOT
ATOM      1  O   LIG    1        0.002  -0.004   0.002  0.00  0.00    -0.590 OA
ATOM      2  C   LIG    1       -0.014   1.212   0.009  0.00  0.00    +0.700 C 
ATOM      3  N   LIG    1       -1.191   1.870   0.018  0.00  0.00    -0.730 N 
ATOM      4  H   LIG    1       -1.204   2.840   0.023  0.00  0.00    +0.400 HD
ATOM      5  N   LIG    1        1.143   1.901   0.001  0.00  0.00    -0.740 N 
ATOM      6  H   LIG    1        1.130   2.871   0.007  0.00  0.00    +0.400 HD
ENDROOT
BRANCH   3   7
ATOM      7  C   LIG    1       -2.449   1.120   0.020  0.00  0.00    +0.290 C 
ATOM      8  C   LIG    1       -2.871   0.795  -1.424  0.00  0.00    +0.060 C 
ATOM      9  C   LIG    1       -4.338   0.320  -1.415  0.00  0.00    -0.310 C 
ATOM     10  S   LIG    1       -5.095   1.138   0.035  0.00  0.00    +2.400 S 
ATOM     11  O   LIG    1       -5.488   0.153   0.980  0.00  0.00    -0.930 OA
ATOM     12  O   LIG    1       -6.034   2.108  -0.409  0.00  0.00    -0.930 OA
ATOM     13  C   LIG    1       -3.582   1.985   0.630  0.00  0.00    -0.320 C 
ENDBRANCH   3   7
BRANCH   5  14
ATOM     14  C   LIG    1        2.422   1.186  -0.015  0.00  0.00    +0.300 C 
BRANCH  14  15
ATOM     15  C   LIG    1        3.571   2.196  -0.020  0.00  0.00    +0.180 C 
BRANCH  15  16
ATOM     16  O   LIG    1        3.565   2.932   1.205  0.00  0.00    -0.570 OA
ATOM     17  H   LIG    1        4.268   3.592   1.271  0.00  0.00    +0.380 HD
ENDBRANCH  15  16
ENDBRANCH  14  15
ENDBRANCH   5  14
TORSDOF 4
ENDMDL
MODEL      341
REMARK  Name = ZINC000040169066
REMARK                            x       y       z     vdW  Elec       q    Type
REMARK                         _______ _______ _______ _____ _____    ______ ____
ROOT
ATOM      1  O   LIG    1        0.002  -0.004   0.002  0.00  0.00    -0.590 OA
ATOM      2  C   LIG    1       -0.014   1.212   0.009  0.00  0.00    +0.700 C 
ATOM      3  N   LIG    1       -1.191   1.870   0.018  0.00  0.00    -0.750 N 
ATOM      4  H   LIG    1       -1.204   2.840   0.023  0.00  0.00    +0.400 HD
ATOM      5  N   LIG    1        1.143   1.901   0.001  0.00  0.00    -0.740 N 
ATOM      6  H   LIG    1        1.130   2.871   0.007  0.00  0.00    +0.400 HD
ENDROOT
BRANCH   3   7
ATOM      7  C   LIG    1       -2.449   1.120   0.020  0.00  0.00    +0.310 C 
BRANCH   7   8
ATOM      8  C   LIG    1       -3.626   2.098   0.031  0.00  0.00    +0.000 C 
ATOM      9  C   LIG    1       -3.664   2.861   1.367  0.00  0.00    +0.070 C 
ATOM     10  C   LIG    1       -5.026   3.573   1.490  0.00  0.00    -0.310 C 
ATOM     11  S   LIG    1       -6.187   2.553   0.512  0.00  0.00    +2.390 S 
ATOM     12  O   LIG    1       -6.665   3.310  -0.592  0.00  0.00    -0.930 OA
ATOM     13  O   LIG    1       -7.110   1.919   1.387  0.00  0.00    -0.930 OA
ATOM     14  C   LIG    1       -4.963   1.322  -0.077  0.00  0.00    -0.300 C 
ENDBRANCH   7   8
ENDBRANCH   3   7
BRANCH   5  15
ATOM     15  C   LIG    1        2.422   1.186  -0.015  0.00  0.00    +0.300 C 
BRANCH  15  16
ATOM     16  C   LIG    1        3.571   2.196  -0.020  0.00  0.00    +0.180 C 
BRANCH  16  17
ATOM     17  O   LIG    1        3.565   2.932   1.205  0.00  0.00    -0.570 OA
ATOM     18  H   LIG    1        4.268   3.592   1.271  0.00  0.00    +0.380 HD
ENDBRANCH  16  17
ENDBRANCH  15  16
ENDBRANCH   5  15
TORSDOF 5
ENDMDL
MODEL      342
REMARK  Name = ZINC000040169068
REMARK                            x       y       z     vdW  Elec       q    Type
REMARK                         _______ _______ _______ _____ _____    ______ ____
ROOT
ATOM      1  O   LIG    1        0.002  -0.004   0.002  0.00  0.00    -0.590 OA
ATOM      2  C   LIG    1       -0.014   1.212   0.009  0.00  0.00    +0.700 C 
ATOM      3  N   LIG    1       -1.191   1.870   0.018  0.00  0.00    -0.750 N 
ATOM      4  H   LIG    1       -1.204   2.840   0.023  0.00  0.00    +0.400 HD
ATOM      5  N   LIG    1        1.143   1.901   0.001  0.00  0.00    -0.740 N 
ATOM      6  H   LIG    1        1.130   2.871   0.007  0.00  0.00    +0.400 HD
ENDROOT
BRANCH   3   7
ATOM      7  C   LIG    1       -2.449   1.120   0.020  0.00  0.00    +0.310 C 
BRANCH   7   8
ATOM      8  C   LIG    1       -3.626   2.098   0.031  0.00  0.00    +0.010 C 
ATOM      9  C   LIG    1       -3.655   2.887  -1.290  0.00  0.00    +0.070 C 
ATOM     10  C   LIG    1       -5.031   3.599  -1.352  0.00  0.00    -0.310 C 
ATOM     11  S   LIG    1       -6.179   2.298  -0.762  0.00  0.00    +2.390 S 
ATOM     12  O   LIG    1       -6.644   1.542  -1.873  0.00  0.00    -0.930 OA
ATOM     13  O   LIG    1       -7.112   2.869   0.145  0.00  0.00    -0.940 OA
ATOM     14  C   LIG    1       -4.948   1.317   0.166  0.00  0.00    -0.310 C 
ENDBRANCH   7   8
ENDBRANCH   3   7
BRANCH   5  15
ATOM     15  C   LIG    1        2.422   1.186  -0.015  0.00  0.00    +0.300 C 
BRANCH  15  16
ATOM     16  C   LIG    1        3.571   2.196  -0.020  0.00  0.00    +0.180 C 
BRANCH  16  17
ATOM     17  O   LIG    1        3.565   2.932   1.205  0.00  0.00    -0.570 OA
ATOM     18  H   LIG    1        4.268   3.592   1.271  0.00  0.00    +0.380 HD
ENDBRANCH  16  17
ENDBRANCH  15  16
ENDBRANCH   5  15
TORSDOF 5
ENDMDL
MODEL      343
REMARK  Name = ZINC000004336385
REMARK                            x       y       z     vdW  Elec       q    Type
REMARK                         _______ _______ _______ _____ _____    ______ ____
ROOT
ATOM      1  C   LIG    1        0.834  -1.700   3.194  0.00  0.00    +0.280 C 
ATOM      2  O   LIG    1        0.853  -3.129   3.186  0.00  0.00    -0.350 OA
ATOM      3  C   LIG    1        1.546  -3.709   4.293  0.00  0.00    +0.220 C 
ATOM      4  C   LIG    1        0.858  -3.297   5.597  0.00  0.00    +0.120 C 
ATOM      5  C   LIG    1        0.829  -1.768   5.689  0.00  0.00    +0.210 C 
ATOM      6  C   LIG    1        0.117  -1.207   4.453  0.00  0.00    +0.190 C 
ENDROOT
BRANCH   1   8
ATOM      7  N   LIG    1        0.711  -0.489   1.189  0.00  0.00    -0.180 NA
ATOM      8  N   LIG    1        0.126  -1.215   2.007  0.00  0.00    -0.200 NA
BRANCH   7   9
ATOM      9  C   LIG    1        0.002  -0.004   0.002  0.00  0.00    +0.460 C 
BRANCH   9  10
ATOM     10  N   LIG    1       -0.018   1.465   0.010  0.00  0.00    -0.820 NA
ATOM     11  H   LIG    1       -0.556   1.823  -0.764  0.00  0.00    +0.360 HD
ATOM     12  H   LIG    1        0.919   1.839   0.003  0.00  0.00    +0.360 HD
ENDBRANCH   9  10
BRANCH   9  13
ATOM     13  N   LIG    1        0.690  -0.478  -1.207  0.00  0.00    -0.860 NA
ATOM     14  H   LIG    1        0.220  -0.156  -2.039  0.00  0.00    +0.360 HD
ATOM     15  H   LIG    1        0.773  -1.483  -1.204  0.00  0.00    +0.350 HD
ENDBRANCH   9  13
ENDBRANCH   7   9
ENDBRANCH   1   8
BRANCH   5  16
ATOM     16  O   LIG    1        0.125  -1.373   6.868  0.00  0.00    -0.540 OA
ATOM     17  H   LIG    1        0.518  -1.700   7.689  0.00  0.00    +0.380 HD
ENDBRANCH   5  16
BRANCH   4  18
ATOM     18  O   LIG    1       -0.478  -3.803   5.613  0.00  0.00    -0.540 OA
ATOM     19  H   LIG    1       -0.534  -4.767   5.553  0.00  0.00    +0.380 HD
ENDBRANCH   4  18
BRANCH   6  20
ATOM     20  O   LIG    1        0.146   0.221   4.493  0.00  0.00    -0.550 OA
ATOM     21  H   LIG    1       -0.287   0.645   3.740  0.00  0.00    +0.380 HD
ENDBRANCH   6  20
TORSDOF 7
ENDMDL
MODEL      344
REMARK  Name = ZINC000004336381
REMARK                            x       y       z     vdW  Elec       q    Type
REMARK                         _______ _______ _______ _____ _____    ______ ____
ROOT
ATOM      1  C   LIG    1        2.228  -1.650  -2.466  0.00  0.00    +0.270 C 
ATOM      2  O   LIG    1        2.248  -3.079  -2.474  0.00  0.00    -0.340 OA
ATOM      3  C   LIG    1        2.794  -3.648  -3.666  0.00  0.00    +0.200 C 
ATOM      4  C   LIG    1        4.249  -3.199  -3.824  0.00  0.00    +0.180 C 
ATOM      5  C   LIG    1        4.302  -1.668  -3.855  0.00  0.00    +0.170 C 
ATOM      6  C   LIG    1        3.660  -1.120  -2.576  0.00  0.00    +0.150 C 
ENDROOT
BRANCH   1   8
ATOM      7  N   LIG    1        0.603  -0.477  -1.247  0.00  0.00    -0.230 NA
ATOM      8  N   LIG    1        1.627  -1.177  -1.217  0.00  0.00    -0.200 NA
BRANCH   7   9
ATOM      9  C   LIG    1        0.002  -0.004   0.002  0.00  0.00    +0.460 C 
BRANCH   9  10
ATOM     10  N   LIG    1       -0.018   1.465   0.010  0.00  0.00    -0.810 NA
ATOM     11  H   LIG    1       -0.556   1.823  -0.764  0.00  0.00    +0.360 HD
ATOM     12  H   LIG    1        0.919   1.839   0.003  0.00  0.00    +0.350 HD
ENDBRANCH   9  10
BRANCH   9  13
ATOM     13  N   LIG    1       -1.372  -0.513   0.108  0.00  0.00    -0.830 NA
ATOM     14  H   LIG    1       -1.809  -0.200   0.962  0.00  0.00    +0.370 HD
ATOM     15  H   LIG    1       -1.391  -1.520   0.040  0.00  0.00    +0.360 HD
ENDBRANCH   9  13
ENDBRANCH   7   9
ENDBRANCH   1   8
BRANCH   5  16
ATOM     16  O   LIG    1        5.663  -1.239  -3.930  0.00  0.00    -0.550 OA
ATOM     17  H   LIG    1        5.771  -0.278  -3.954  0.00  0.00    +0.400 HD
ENDBRANCH   5  16
BRANCH   4  18
ATOM     18  O   LIG    1        5.021  -3.683  -2.723  0.00  0.00    -0.550 OA
ATOM     19  H   LIG    1        5.955  -3.435  -2.758  0.00  0.00    +0.390 HD
ENDBRANCH   4  18
BRANCH   6  20
ATOM     20  O   LIG    1        3.640   0.308  -2.627  0.00  0.00    -0.560 OA
ATOM     21  H   LIG    1        3.246   0.723  -1.847  0.00  0.00    +0.380 HD
ENDBRANCH   6  20
BRANCH   3  22
ATOM     22  C   LIG    1        2.738  -5.175  -3.574  0.00  0.00    +0.230 C 
BRANCH  22  23
ATOM     23  O   LIG    1        1.374  -5.600  -3.542  0.00  0.00    -0.570 OA
ATOM     24  H   LIG    1        1.263  -6.559  -3.484  0.00  0.00    +0.390 HD
ENDBRANCH  22  23
ENDBRANCH   3  22
TORSDOF 9
ENDMDL
MODEL      345
REMARK  Name = ZINC000008856523
REMARK                            x       y       z     vdW  Elec       q    Type
REMARK                         _______ _______ _______ _____ _____    ______ ____
ROOT
ATOM      1  C   LIG    1        1.053  -1.697   3.130  0.00  0.00    +0.390 C 
ATOM      2  N   LIG    1        0.425  -1.303   4.400  0.00  0.00    -0.710 N 
ATOM      3  H   LIG    1        0.272  -0.391   4.693  0.00  0.00    +0.440 HD
ATOM      4  C   LIG    1        0.097  -2.404   5.089  0.00  0.00    +0.720 C 
ATOM      5  N   LIG    1        0.414  -3.548   4.468  0.00  0.00    -0.710 N 
ATOM      6  H   LIG    1        0.253  -4.439   4.815  0.00  0.00    +0.440 HD
ATOM      7  O   LIG    1       -0.439  -2.369   6.180  0.00  0.00    -0.570 OA
ATOM      8  C   LIG    1        1.049  -3.237   3.175  0.00  0.00    +0.380 C 
ENDROOT
BRANCH   1  10
ATOM      9  N   LIG    1        0.791  -0.488   1.138  0.00  0.00    -0.200 NA
ATOM     10  N   LIG    1        0.264  -1.213   1.995  0.00  0.00    -0.190 NA
BRANCH   9  11
ATOM     11  C   LIG    1        0.002  -0.004   0.002  0.00  0.00    +0.490 C 
BRANCH  11  12
ATOM     12  N   LIG    1       -0.018   1.465   0.010  0.00  0.00    -0.860 NA
ATOM     13  H   LIG    1       -0.556   1.823  -0.764  0.00  0.00    +0.360 HD
ATOM     14  H   LIG    1        0.919   1.839   0.003  0.00  0.00    +0.350 HD
ENDBRANCH  11  12
BRANCH  11  15
ATOM     15  N   LIG    1        0.605  -0.479  -1.251  0.00  0.00    -0.860 NA
ATOM     16  H   LIG    1        1.551  -0.142  -1.347  0.00  0.00    +0.350 HD
ATOM     17  H   LIG    1        0.043  -0.212  -2.046  0.00  0.00    +0.360 HD
ENDBRANCH  11  15
ENDBRANCH   9  11
ENDBRANCH   1  10
BRANCH   8  18
ATOM     18  N   LIG    1        0.258  -3.784   2.069  0.00  0.00    -0.200 NA
ATOM     19  N   LIG    1        0.770  -4.592   1.281  0.00  0.00    -0.230 NA
BRANCH  19  20
ATOM     20  C   LIG    1       -0.021  -5.138   0.175  0.00  0.00    +0.450 C 
BRANCH  20  21
ATOM     21  N   LIG    1       -0.092  -6.601   0.300  0.00  0.00    -0.830 NA
ATOM     22  H   LIG    1       -0.633  -7.002  -0.452  0.00  0.00    +0.370 HD
ATOM     23  H   LIG    1       -0.466  -6.869   1.198  0.00  0.00    +0.350 HD
ENDBRANCH  20  21
BRANCH  20  24
ATOM     24  N   LIG    1        0.613  -4.786  -1.102  0.00  0.00    -0.810 NA
ATOM     25  H   LIG    1        1.548  -5.161  -1.157  0.00  0.00    +0.360 HD
ATOM     26  H   LIG    1        0.616  -3.787  -1.241  0.00  0.00    +0.360 HD
ENDBRANCH  20  24
ENDBRANCH  19  20
ENDBRANCH   8  18
TORSDOF 8
ENDMDL
MODEL      346
REMARK  Name = ZINC000004336501
REMARK                            x       y       z     vdW  Elec       q    Type
REMARK                         _______ _______ _______ _____ _____    ______ ____
ROOT
ATOM      1  C   LIG    1        2.228  -1.650  -2.466  0.00  0.00    +0.270 C 
ATOM      2  O   LIG    1        2.248  -3.079  -2.474  0.00  0.00    -0.340 OA
ATOM      3  C   LIG    1        2.794  -3.648  -3.666  0.00  0.00    +0.190 C 
ATOM      4  C   LIG    1        4.249  -3.199  -3.824  0.00  0.00    +0.170 C 
ATOM      5  C   LIG    1        4.302  -1.668  -3.855  0.00  0.00    +0.170 C 
ATOM      6  C   LIG    1        3.660  -1.120  -2.576  0.00  0.00    +0.150 C 
ENDROOT
BRANCH   1   8
ATOM      7  N   LIG    1        0.603  -0.477  -1.247  0.00  0.00    -0.230 NA
ATOM      8  N   LIG    1        1.627  -1.177  -1.217  0.00  0.00    -0.200 NA
BRANCH   7   9
ATOM      9  C   LIG    1        0.002  -0.004   0.002  0.00  0.00    +0.460 C 
BRANCH   9  10
ATOM     10  N   LIG    1       -0.018   1.465   0.010  0.00  0.00    -0.810 NA
ATOM     11  H   LIG    1       -0.556   1.823  -0.764  0.00  0.00    +0.360 HD
ATOM     12  H   LIG    1        0.919   1.839   0.003  0.00  0.00    +0.350 HD
ENDBRANCH   9  10
BRANCH   9  13
ATOM     13  N   LIG    1       -1.372  -0.513   0.108  0.00  0.00    -0.830 NA
ATOM     14  H   LIG    1       -1.809  -0.200   0.962  0.00  0.00    +0.370 HD
ATOM     15  H   LIG    1       -1.391  -1.520   0.040  0.00  0.00    +0.360 HD
ENDBRANCH   9  13
ENDBRANCH   7   9
ENDBRANCH   1   8
BRANCH   5  16
ATOM     16  O   LIG    1        5.663  -1.239  -3.930  0.00  0.00    -0.550 OA
ATOM     17  H   LIG    1        5.771  -0.278  -3.954  0.00  0.00    +0.400 HD
ENDBRANCH   5  16
BRANCH   4  18
ATOM     18  O   LIG    1        4.780  -3.721  -5.044  0.00  0.00    -0.550 OA
ATOM     19  H   LIG    1        5.700  -3.475  -5.209  0.00  0.00    +0.400 HD
ENDBRANCH   4  18
BRANCH   6  20
ATOM     20  O   LIG    1        3.640   0.308  -2.627  0.00  0.00    -0.550 OA
ATOM     21  H   LIG    1        3.246   0.723  -1.847  0.00  0.00    +0.380 HD
ENDBRANCH   6  20
BRANCH   3  22
ATOM     22  C   LIG    1        2.738  -5.175  -3.574  0.00  0.00    +0.230 C 
BRANCH  22  23
ATOM     23  O   LIG    1        1.374  -5.600  -3.542  0.00  0.00    -0.570 OA
ATOM     24  H   LIG    1        1.263  -6.559  -3.484  0.00  0.00    +0.390 HD
ENDBRANCH  22  23
ENDBRANCH   3  22
TORSDOF 9
ENDMDL
MODEL      347
REMARK  Name = ZINC000002028082
REMARK                            x       y       z     vdW  Elec       q    Type
REMARK                         _______ _______ _______ _____ _____    ______ ____
ROOT
ATOM      1  C   LIG    1       -1.330   1.944   0.019  0.00  0.00    +0.210 C 
ENDROOT
BRANCH   1   3
ATOM      2  O   LIG    1        0.002  -0.004   0.002  0.00  0.00    -0.520 OA
ATOM      3  C   LIG    1       -0.014   1.209   0.009  0.00  0.00    +0.500 C 
ATOM      4  N   LIG    1        1.143   1.898   0.001  0.00  0.00    -0.720 N 
ATOM      5  H   LIG    1        1.130   2.868   0.007  0.00  0.00    +0.400 HD
BRANCH   4   6
ATOM      6  C   LIG    1        2.422   1.183  -0.015  0.00  0.00    +0.290 C 
BRANCH   6   7
ATOM      7  C   LIG    1        3.571   2.193  -0.020  0.00  0.00    +0.190 C 
BRANCH   7   8
ATOM      8  O   LIG    1        3.565   2.929   1.205  0.00  0.00    -0.570 OA
ATOM      9  H   LIG    1        4.268   3.589   1.271  0.00  0.00    +0.390 HD
ENDBRANCH   7   8
ENDBRANCH   6   7
ENDBRANCH   4   6
ENDBRANCH   1   3
BRANCH   1  10
ATOM     10  O   LIG    1       -2.400   1.005   0.136  0.00  0.00    -0.520 OA
ATOM     11  H   LIG    1       -2.439   0.361  -0.584  0.00  0.00    +0.390 HD
ENDBRANCH   1  10
BRANCH   1  12
ATOM     12  C   LIG    1       -1.483   2.732  -1.283  0.00  0.00    +0.210 C 
BRANCH  12  13
ATOM     13  C   LIG    1       -2.849   3.369  -1.327  0.00  0.00    +0.500 C 
ATOM     14  N   LIG    1       -3.178   4.319  -0.431  0.00  0.00    -0.720 N 
ATOM     15  H   LIG    1       -2.537   4.594   0.243  0.00  0.00    +0.400 HD
ATOM     16  O   LIG    1       -3.651   3.025  -2.170  0.00  0.00    -0.520 OA
BRANCH  14  17
ATOM     17  C   LIG    1       -4.506   4.938  -0.474  0.00  0.00    +0.290 C 
BRANCH  17  18
ATOM     18  C   LIG    1       -4.621   5.976   0.644  0.00  0.00    +0.190 C 
BRANCH  18  19
ATOM     19  O   LIG    1       -3.699   7.041   0.401  0.00  0.00    -0.570 OA
ATOM     20  H   LIG    1       -3.718   7.738   1.072  0.00  0.00    +0.390 HD
ENDBRANCH  18  19
ENDBRANCH  17  18
ENDBRANCH  14  17
ENDBRANCH  12  13
BRANCH  12  21
ATOM     21  O   LIG    1       -1.334   1.848  -2.396  0.00  0.00    -0.520 OA
ATOM     22  H   LIG    1       -1.982   1.131  -2.418  0.00  0.00    +0.390 HD
ENDBRANCH  12  21
ENDBRANCH   1  12
TORSDOF 11
ENDMDL
MODEL      348
REMARK  Name = ZINC000028622874
REMARK                            x       y       z     vdW  Elec       q    Type
REMARK                         _______ _______ _______ _____ _____    ______ ____
ROOT
ATOM      1  C   LIG    1        2.385   0.233  -0.068  0.00  0.00    +0.600 C 
ATOM      2  N   LIG    1        3.594  -0.337  -0.237  0.00  0.00    -0.610 N 
ATOM      3  C   LIG    1        4.833   0.456  -0.157  0.00  0.00    +0.300 C 
ATOM      4  C   LIG    1        5.675  -0.090   0.999  0.00  0.00    +0.260 C 
ATOM      5  N   LIG    1        5.745  -1.544   0.945  0.00  0.00    -0.720 N 
ATOM      6  H   LIG    1        6.484  -1.976   1.400  0.00  0.00    +0.400 HD
ATOM      7  C   LIG    1        4.866  -2.322   0.312  0.00  0.00    +0.510 C 
ATOM      8  O   LIG    1        4.986  -3.525   0.405  0.00  0.00    -0.540 OA
ATOM      9  C   LIG    1        3.731  -1.776  -0.504  0.00  0.00    +0.320 C 
ATOM     10  O   LIG    1        2.294   1.438   0.061  0.00  0.00    -0.510 OA
ENDROOT
BRANCH   1  16
ATOM     11  C   LIG    1        0.530  -0.881   1.182  0.00  0.00    +0.400 A 
ATOM     12  N   LIG    1       -0.561  -1.637   1.197  0.00  0.00    -0.500 NA
ATOM     13  C   LIG    1       -1.037  -2.131   0.068  0.00  0.00    +0.310 A 
ATOM     14  C   LIG    1       -0.402  -1.864  -1.136  0.00  0.00    +0.170 A 
ATOM     15  N   LIG    1        0.682  -1.116  -1.166  0.00  0.00    -0.370 NA
ATOM     16  C   LIG    1        1.170  -0.607  -0.038  0.00  0.00    -0.040 A 
BRANCH  11  17
ATOM     17  N   LIG    1        1.032  -0.361   2.361  0.00  0.00    -0.830 N 
ATOM     18  H   LIG    1        0.547  -0.487   3.192  0.00  0.00    +0.410 HD
ATOM     19  H   LIG    1        1.867   0.132   2.357  0.00  0.00    +0.410 HD
ENDBRANCH  11  17
ENDBRANCH   1  16
TORSDOF 2
ENDMDL
MODEL      349
REMARK  Name = ZINC000254450429
REMARK                            x       y       z     vdW  Elec       q    Type
REMARK                         _______ _______ _______ _____ _____    ______ ____
ROOT
ATOM      1  C   LIG    1       -0.018   1.503   0.010  0.00  0.00    +0.130 C 
ATOM      2  C   LIG    1        0.002  -0.004   0.002  0.00  0.00    -0.250 A 
ATOM      3  C   LIG    1       -1.150  -0.709   0.004  0.00  0.00    +0.340 A 
ATOM      4  N   LIG    1       -1.106  -2.067  -0.012  0.00  0.00    -0.540 N 
ATOM      5  C   LIG    1        0.099  -2.727   0.055  0.00  0.00    +0.570 A 
ATOM      6  O   LIG    1       -0.094  -4.090   0.174  0.00  0.00    -0.230 OA
ATOM      7  C   LIG    1       -1.357  -4.172   0.789  0.00  0.00    +0.140 C 
ATOM      8  C   LIG    1       -2.408  -5.235   0.810  0.00  0.00    +0.230 C 
ATOM      9  C   LIG    1       -3.674  -4.352   1.062  0.00  0.00    +0.190 C 
ATOM     10  O   LIG    1       -3.330  -3.002   0.647  0.00  0.00    -0.340 OA
ATOM     11  N   LIG    1        1.225  -2.050   0.035  0.00  0.00    -0.560 NA
ATOM     12  C   LIG    1       -2.125  -3.110  -0.108  0.00  0.00    +0.390 C 
ATOM     13  C   LIG    1        1.231  -0.711  -0.013  0.00  0.00    +0.530 A 
ATOM     14  O   LIG    1        2.289  -0.103  -0.061  0.00  0.00    -0.490 OA
ENDROOT
BRANCH   8  15
ATOM     15  O   LIG    1       -2.487  -5.913  -0.446  0.00  0.00    -0.540 OA
ATOM     16  H   LIG    1       -3.157  -6.611  -0.474  0.00  0.00    +0.390 HD
ENDBRANCH   8  15
BRANCH   9  17
ATOM     17  C   LIG    1       -4.850  -4.872   0.231  0.00  0.00    +0.200 C 
BRANCH  17  18
ATOM     18  O   LIG    1       -6.027  -4.131   0.557  0.00  0.00    -0.560 OA
ATOM     19  H   LIG    1       -6.814  -4.407   0.067  0.00  0.00    +0.390 HD
ENDBRANCH  17  18
ENDBRANCH   9  17
TORSDOF 3
ENDMDL
MODEL      350
REMARK  Name = ZINC000002028078
REMARK                            x       y       z     vdW  Elec       q    Type
REMARK                         _______ _______ _______ _____ _____    ______ ____
ROOT
ATOM      1  C   LIG    1       -1.330   1.944   0.019  0.00  0.00    +0.210 C 
ENDROOT
BRANCH   1   3
ATOM      2  O   LIG    1        0.002  -0.004   0.002  0.00  0.00    -0.520 OA
ATOM      3  C   LIG    1       -0.014   1.209   0.009  0.00  0.00    +0.500 C 
ATOM      4  N   LIG    1        1.143   1.898   0.001  0.00  0.00    -0.720 N 
ATOM      5  H   LIG    1        1.130   2.868   0.007  0.00  0.00    +0.400 HD
BRANCH   4   6
ATOM      6  C   LIG    1        2.422   1.183  -0.015  0.00  0.00    +0.290 C 
BRANCH   6   7
ATOM      7  C   LIG    1        3.571   2.193  -0.020  0.00  0.00    +0.180 C 
BRANCH   7   8
ATOM      8  O   LIG    1        3.565   2.929   1.205  0.00  0.00    -0.570 OA
ATOM      9  H   LIG    1        4.268   3.589   1.271  0.00  0.00    +0.380 HD
ENDBRANCH   7   8
ENDBRANCH   6   7
ENDBRANCH   4   6
ENDBRANCH   1   3
BRANCH   1  10
ATOM     10  O   LIG    1       -2.401   1.006  -0.099  0.00  0.00    -0.520 OA
ATOM     11  H   LIG    1       -2.433   0.354   0.615  0.00  0.00    +0.390 HD
ENDBRANCH   1  10
BRANCH   1  12
ATOM     12  C   LIG    1       -1.471   2.718   1.331  0.00  0.00    +0.210 C 
BRANCH  12  13
ATOM     13  C   LIG    1       -2.836   3.354   1.395  0.00  0.00    +0.500 C 
ATOM     14  N   LIG    1       -3.174   4.314   0.512  0.00  0.00    -0.720 N 
ATOM     15  H   LIG    1       -2.539   4.596  -0.165  0.00  0.00    +0.400 HD
ATOM     16  O   LIG    1       -3.630   3.001   2.241  0.00  0.00    -0.520 OA
BRANCH  14  17
ATOM     17  C   LIG    1       -4.501   4.932   0.574  0.00  0.00    +0.280 C 
BRANCH  17  18
ATOM     18  C   LIG    1       -4.626   5.983  -0.531  0.00  0.00    +0.180 C 
BRANCH  18  19
ATOM     19  O   LIG    1       -4.567   5.342  -1.807  0.00  0.00    -0.570 OA
ATOM     20  H   LIG    1       -4.641   5.949  -2.556  0.00  0.00    +0.380 HD
ENDBRANCH  18  19
ENDBRANCH  17  18
ENDBRANCH  14  17
ENDBRANCH  12  13
BRANCH  12  21
ATOM     21  O   LIG    1       -1.311   1.822   2.433  0.00  0.00    -0.520 OA
ATOM     22  H   LIG    1       -1.959   1.104   2.453  0.00  0.00    +0.390 HD
ENDBRANCH  12  21
ENDBRANCH   1  12
TORSDOF 11
ENDMDL
MODEL      351
REMARK  Name = ZINC000012559193
REMARK                            x       y       z     vdW  Elec       q    Type
REMARK                         _______ _______ _______ _____ _____    ______ ____
ROOT
ATOM      1  C   LIG    1       -1.330   1.944   0.019  0.00  0.00    +0.200 C 
ENDROOT
BRANCH   1   3
ATOM      2  O   LIG    1        0.002  -0.004   0.002  0.00  0.00    -0.530 OA
ATOM      3  C   LIG    1       -0.014   1.209   0.009  0.00  0.00    +0.490 C 
ATOM      4  N   LIG    1        1.143   1.898   0.001  0.00  0.00    -0.710 N 
ATOM      5  H   LIG    1        1.130   2.868   0.007  0.00  0.00    +0.410 HD
BRANCH   4   6
ATOM      6  C   LIG    1        2.422   1.183  -0.015  0.00  0.00    +0.280 C 
BRANCH   6   7
ATOM      7  C   LIG    1        3.571   2.193  -0.020  0.00  0.00    +0.190 C 
BRANCH   7   8
ATOM      8  O   LIG    1        3.565   2.929   1.205  0.00  0.00    -0.570 OA
ATOM      9  H   LIG    1        4.268   3.589   1.271  0.00  0.00    +0.390 HD
ENDBRANCH   7   8
ENDBRANCH   6   7
ENDBRANCH   4   6
ENDBRANCH   1   3
BRANCH   1  10
ATOM     10  O   LIG    1       -2.400   1.005   0.136  0.00  0.00    -0.520 OA
ATOM     11  H   LIG    1       -2.439   0.361  -0.584  0.00  0.00    +0.390 HD
ENDBRANCH   1  10
BRANCH   1  12
ATOM     12  C   LIG    1       -1.483   2.732  -1.283  0.00  0.00    +0.200 C 
BRANCH  12  13
ATOM     13  C   LIG    1       -2.798   3.468  -1.273  0.00  0.00    +0.490 C 
ATOM     14  N   LIG    1       -3.956   2.778  -1.272  0.00  0.00    -0.710 N 
ATOM     15  H   LIG    1       -3.943   1.808  -1.277  0.00  0.00    +0.410 HD
ATOM     16  O   LIG    1       -2.815   4.681  -1.266  0.00  0.00    -0.530 OA
BRANCH  14  17
ATOM     17  C   LIG    1       -5.235   3.494  -1.262  0.00  0.00    +0.280 C 
BRANCH  17  18
ATOM     18  C   LIG    1       -6.384   2.484  -1.262  0.00  0.00    +0.180 C 
BRANCH  18  19
ATOM     19  O   LIG    1       -6.360   1.735  -0.045  0.00  0.00    -0.570 OA
ATOM     20  H   LIG    1       -7.063   1.074   0.024  0.00  0.00    +0.380 HD
ENDBRANCH  18  19
ENDBRANCH  17  18
ENDBRANCH  14  17
ENDBRANCH  12  13
BRANCH  12  21
ATOM     21  O   LIG    1       -0.413   3.672  -1.401  0.00  0.00    -0.520 OA
ATOM     22  H   LIG    1       -0.374   4.316  -0.680  0.00  0.00    +0.390 HD
ENDBRANCH  12  21
ENDBRANCH   1  12
TORSDOF 11
ENDMDL
MODEL      352
REMARK  Name = ZINC000100382106
REMARK                            x       y       z     vdW  Elec       q    Type
REMARK                         _______ _______ _______ _____ _____    ______ ____
ROOT
ATOM      1  C   LIG    1       -2.902  -2.434   0.017  0.00  0.00    +0.290 C 
ATOM      2  N   LIG    1       -2.853  -3.866  -0.344  0.00  0.00    -0.400 NA
ATOM      3  H   LIG    1       -3.402  -4.050  -1.170  0.00  0.00    +0.360 HD
ATOM      4  N   LIG    1       -3.337  -4.556   0.728  0.00  0.00    -0.500 N 
ATOM      5  H   LIG    1       -3.417  -5.522   0.762  0.00  0.00    +0.450 HD
ATOM      6  C   LIG    1       -3.697  -3.718   1.752  0.00  0.00    +0.150 C 
ATOM      7  C   LIG    1       -4.258  -3.687   3.134  0.00  0.00    +0.600 C 
ATOM      8  O   LIG    1       -4.590  -4.653   3.789  0.00  0.00    -0.440 OA
ATOM      9  N   LIG    1       -4.331  -2.403   3.528  0.00  0.00    -0.670 N 
ATOM     10  H   LIG    1       -4.660  -2.102   4.389  0.00  0.00    +0.440 HD
ATOM     11  C   LIG    1       -3.877  -1.599   2.549  0.00  0.00    +0.610 C 
ATOM     12  O   LIG    1       -3.816  -0.386   2.600  0.00  0.00    -0.460 OA
ATOM     13  C   LIG    1       -3.471  -2.425   1.414  0.00  0.00    -0.350 C 
ENDROOT
BRANCH   1  14
ATOM     14  C   LIG    1       -1.518  -1.840   0.007  0.00  0.00    +0.470 C 
ATOM     15  O   LIG    1       -0.550  -2.562  -0.006  0.00  0.00    -0.480 OA
BRANCH  14  16
ATOM     16  O   LIG    1       -1.360  -0.507   0.012  0.00  0.00    -0.350 OA
BRANCH  16  18
ATOM     17  C   LIG    1       -0.019   1.526   0.010  0.00  0.00    +0.070 C 
ATOM     18  C   LIG    1        0.002  -0.004   0.002  0.00  0.00    +0.200 C 
ENDBRANCH  16  18
ENDBRANCH  14  16
ENDBRANCH   1  14
TORSDOF 3
ENDMDL
MODEL      353
REMARK  Name = ZINC000100619193
REMARK                            x       y       z     vdW  Elec       q    Type
REMARK                         _______ _______ _______ _____ _____    ______ ____
ROOT
ATOM      1  C   LIG    1        1.468  -2.356  -2.550  0.00  0.00    +0.260 C 
ATOM      2  C   LIG    1        1.620  -3.663  -2.806  0.00  0.00    -0.290 C 
ATOM      3  C   LIG    1        1.286  -5.075  -2.638  0.00  0.00    +0.620 C 
ATOM      4  N   LIG    1        1.347  -5.658  -3.856  0.00  0.00    -0.570 N 
ATOM      5  C   LIG    1        1.940  -4.871  -4.785  0.00  0.00    +0.560 C 
ATOM      6  O   LIG    1        1.973  -5.054  -5.982  0.00  0.00    -0.450 OA
ATOM      7  O   LIG    1        1.003  -5.626  -1.591  0.00  0.00    -0.460 OA
ATOM      8  C   LIG    1        2.551  -3.719  -4.027  0.00  0.00    +0.150 C 
ATOM      9  N   LIG    1        2.329  -2.401  -4.632  0.00  0.00    -0.390 NA
ATOM     10  H   LIG    1        3.157  -2.077  -5.108  0.00  0.00    +0.360 HD
ATOM     11  N   LIG    1        2.027  -1.595  -3.555  0.00  0.00    -0.560 N 
ATOM     12  H   LIG    1        2.188  -0.640  -3.508  0.00  0.00    +0.440 HD
ENDROOT
BRANCH   1  13
ATOM     13  C   LIG    1        0.787  -1.805  -1.354  0.00  0.00    +0.510 C 
ATOM     14  O   LIG    1        0.323  -2.556  -0.519  0.00  0.00    -0.450 OA
BRANCH  13  15
ATOM     15  O   LIG    1        0.682  -0.472  -1.193  0.00  0.00    -0.350 OA
BRANCH  15  17
ATOM     16  C   LIG    1       -0.019   1.526   0.010  0.00  0.00    +0.080 C 
ATOM     17  C   LIG    1        0.002  -0.004   0.002  0.00  0.00    +0.220 C 
ENDBRANCH  15  17
ENDBRANCH  13  15
ENDBRANCH   1  13
BRANCH   4  18
ATOM     18  C   LIG    1        0.828  -6.998  -4.141  0.00  0.00    +0.300 C 
ATOM     19  C   LIG    1       -0.635  -6.896  -4.576  0.00  0.00    +0.030 C 
ENDBRANCH   4  18
TORSDOF 4
ENDMDL
MODEL      354
REMARK  Name = ZINC000100382104
REMARK                            x       y       z     vdW  Elec       q    Type
REMARK                         _______ _______ _______ _____ _____    ______ ____
ROOT
ATOM      1  C   LIG    1        1.468  -2.356  -2.550  0.00  0.00    +0.270 C 
ATOM      2  C   LIG    1        1.620  -3.663  -2.806  0.00  0.00    -0.290 C 
ATOM      3  C   LIG    1        1.286  -5.075  -2.638  0.00  0.00    +0.620 C 
ATOM      4  N   LIG    1        1.347  -5.658  -3.856  0.00  0.00    -0.680 N 
ATOM      5  H   LIG    1        1.003  -6.545  -4.045  0.00  0.00    +0.430 HD
ATOM      6  C   LIG    1        1.940  -4.871  -4.785  0.00  0.00    +0.560 C 
ATOM      7  O   LIG    1        1.973  -5.054  -5.982  0.00  0.00    -0.460 OA
ATOM      8  O   LIG    1        1.003  -5.626  -1.591  0.00  0.00    -0.460 OA
ATOM      9  C   LIG    1        2.551  -3.719  -4.027  0.00  0.00    +0.150 C 
ATOM     10  N   LIG    1        2.329  -2.401  -4.632  0.00  0.00    -0.390 NA
ATOM     11  H   LIG    1        3.157  -2.077  -5.108  0.00  0.00    +0.360 HD
ATOM     12  N   LIG    1        2.027  -1.595  -3.555  0.00  0.00    -0.560 N 
ATOM     13  H   LIG    1        2.188  -0.640  -3.508  0.00  0.00    +0.440 HD
ENDROOT
BRANCH   1  14
ATOM     14  C   LIG    1        0.787  -1.805  -1.354  0.00  0.00    +0.510 C 
ATOM     15  O   LIG    1        0.323  -2.556  -0.519  0.00  0.00    -0.450 OA
BRANCH  14  16
ATOM     16  O   LIG    1        0.682  -0.472  -1.193  0.00  0.00    -0.350 OA
BRANCH  16  18
ATOM     17  C   LIG    1       -0.019   1.526   0.010  0.00  0.00    +0.080 C 
ATOM     18  C   LIG    1        0.002  -0.004   0.002  0.00  0.00    +0.220 C 
ENDBRANCH  16  18
ENDBRANCH  14  16
ENDBRANCH   1  14
TORSDOF 3
ENDMDL
MODEL      355
REMARK  Name = ZINC000100382109
REMARK                            x       y       z     vdW  Elec       q    Type
REMARK                         _______ _______ _______ _____ _____    ______ ____
ROOT
ATOM      1  C   LIG    1        1.468  -2.356  -2.550  0.00  0.00    +0.270 C 
ATOM      2  C   LIG    1        1.620  -3.663  -2.806  0.00  0.00    -0.290 C 
ATOM      3  C   LIG    1        1.286  -5.075  -2.638  0.00  0.00    +0.620 C 
ATOM      4  N   LIG    1        1.347  -5.658  -3.856  0.00  0.00    -0.680 N 
ATOM      5  H   LIG    1        1.003  -6.545  -4.045  0.00  0.00    +0.430 HD
ATOM      6  C   LIG    1        1.940  -4.871  -4.785  0.00  0.00    +0.560 C 
ATOM      7  O   LIG    1        1.973  -5.054  -5.982  0.00  0.00    -0.460 OA
ATOM      8  O   LIG    1        1.003  -5.626  -1.591  0.00  0.00    -0.460 OA
ATOM      9  C   LIG    1        2.551  -3.719  -4.027  0.00  0.00    +0.150 C 
ATOM     10  N   LIG    1        2.329  -2.401  -4.632  0.00  0.00    -0.390 NA
ATOM     11  H   LIG    1        3.157  -2.077  -5.108  0.00  0.00    +0.360 HD
ATOM     12  N   LIG    1        2.027  -1.595  -3.555  0.00  0.00    -0.560 N 
ATOM     13  H   LIG    1        2.188  -0.640  -3.508  0.00  0.00    +0.440 HD
ENDROOT
BRANCH   1  14
ATOM     14  C   LIG    1        0.787  -1.805  -1.354  0.00  0.00    +0.510 C 
ATOM     15  O   LIG    1        0.323  -2.556  -0.519  0.00  0.00    -0.450 OA
BRANCH  14  16
ATOM     16  O   LIG    1        0.682  -0.472  -1.193  0.00  0.00    -0.350 OA
BRANCH  16  18
ATOM     17  C   LIG    1       -0.019   1.526   0.010  0.00  0.00    +0.080 C 
ATOM     18  C   LIG    1        0.002  -0.004   0.002  0.00  0.00    +0.220 C 
ENDBRANCH  16  18
ENDBRANCH  14  16
ENDBRANCH   1  14
TORSDOF 3
ENDMDL
MODEL      356
REMARK  Name = ZINC000100619197
REMARK                            x       y       z     vdW  Elec       q    Type
REMARK                         _______ _______ _______ _____ _____    ______ ____
ROOT
ATOM      1  C   LIG    1        1.468  -2.356  -2.550  0.00  0.00    +0.260 C 
ATOM      2  C   LIG    1        1.620  -3.663  -2.806  0.00  0.00    -0.290 C 
ATOM      3  C   LIG    1        1.286  -5.075  -2.638  0.00  0.00    +0.620 C 
ATOM      4  N   LIG    1        1.347  -5.658  -3.856  0.00  0.00    -0.570 N 
ATOM      5  C   LIG    1        1.940  -4.871  -4.785  0.00  0.00    +0.560 C 
ATOM      6  O   LIG    1        1.973  -5.054  -5.982  0.00  0.00    -0.450 OA
ATOM      7  O   LIG    1        1.003  -5.626  -1.591  0.00  0.00    -0.460 OA
ATOM      8  C   LIG    1        2.551  -3.719  -4.027  0.00  0.00    +0.150 C 
ATOM      9  N   LIG    1        2.329  -2.401  -4.632  0.00  0.00    -0.390 NA
ATOM     10  H   LIG    1        3.157  -2.077  -5.108  0.00  0.00    +0.360 HD
ATOM     11  N   LIG    1        2.027  -1.595  -3.555  0.00  0.00    -0.560 N 
ATOM     12  H   LIG    1        2.188  -0.640  -3.508  0.00  0.00    +0.440 HD
ENDROOT
BRANCH   1  13
ATOM     13  C   LIG    1        0.787  -1.805  -1.354  0.00  0.00    +0.510 C 
ATOM     14  O   LIG    1        0.323  -2.556  -0.519  0.00  0.00    -0.450 OA
BRANCH  13  15
ATOM     15  O   LIG    1        0.682  -0.472  -1.193  0.00  0.00    -0.350 OA
BRANCH  15  17
ATOM     16  C   LIG    1       -0.019   1.526   0.010  0.00  0.00    +0.080 C 
ATOM     17  C   LIG    1        0.002  -0.004   0.002  0.00  0.00    +0.220 C 
ENDBRANCH  15  17
ENDBRANCH  13  15
ENDBRANCH   1  13
BRANCH   4  18
ATOM     18  C   LIG    1        0.828  -6.998  -4.141  0.00  0.00    +0.300 C 
ATOM     19  C   LIG    1       -0.635  -6.896  -4.576  0.00  0.00    +0.030 C 
ENDBRANCH   4  18
TORSDOF 4
ENDMDL
MODEL      357
REMARK  Name = ZINC000004503405
REMARK                            x       y       z     vdW  Elec       q    Type
REMARK                         _______ _______ _______ _____ _____    ______ ____
ROOT
ATOM      1  C   LIG    1        1.468  -2.356  -2.550  0.00  0.00    +0.260 C 
ATOM      2  C   LIG    1        1.620  -3.663  -2.806  0.00  0.00    -0.290 C 
ATOM      3  C   LIG    1        1.286  -5.075  -2.638  0.00  0.00    +0.620 C 
ATOM      4  N   LIG    1        1.347  -5.658  -3.856  0.00  0.00    -0.570 N 
ATOM      5  C   LIG    1        1.940  -4.871  -4.785  0.00  0.00    +0.560 C 
ATOM      6  O   LIG    1        1.973  -5.054  -5.982  0.00  0.00    -0.450 OA
ATOM      7  O   LIG    1        1.003  -5.626  -1.591  0.00  0.00    -0.460 OA
ATOM      8  C   LIG    1        2.551  -3.719  -4.027  0.00  0.00    +0.150 C 
ATOM      9  N   LIG    1        2.329  -2.401  -4.632  0.00  0.00    -0.390 NA
ATOM     10  H   LIG    1        3.157  -2.077  -5.108  0.00  0.00    +0.360 HD
ATOM     11  N   LIG    1        2.027  -1.595  -3.555  0.00  0.00    -0.560 N 
ATOM     12  H   LIG    1        2.188  -0.640  -3.508  0.00  0.00    +0.440 HD
ENDROOT
BRANCH   1  13
ATOM     13  C   LIG    1        0.787  -1.805  -1.354  0.00  0.00    +0.510 C 
ATOM     14  O   LIG    1        0.323  -2.556  -0.519  0.00  0.00    -0.450 OA
BRANCH  13  15
ATOM     15  O   LIG    1        0.682  -0.472  -1.193  0.00  0.00    -0.350 OA
BRANCH  15  17
ATOM     16  C   LIG    1       -0.019   1.526   0.010  0.00  0.00    +0.080 C 
ATOM     17  C   LIG    1        0.002  -0.004   0.002  0.00  0.00    +0.220 C 
ENDBRANCH  15  17
ENDBRANCH  13  15
ENDBRANCH   1  13
BRANCH   4  18
ATOM     18  C   LIG    1        0.828  -6.998  -4.141  0.00  0.00    +0.300 C 
ATOM     19  C   LIG    1       -0.635  -6.896  -4.576  0.00  0.00    +0.030 C 
ENDBRANCH   4  18
TORSDOF 4
ENDMDL
MODEL      358
REMARK  Name = ZINC000100619194
REMARK                            x       y       z     vdW  Elec       q    Type
REMARK                         _______ _______ _______ _____ _____    ______ ____
ROOT
ATOM      1  C   LIG    1        1.468  -2.356  -2.550  0.00  0.00    +0.260 C 
ATOM      2  C   LIG    1        1.620  -3.663  -2.806  0.00  0.00    -0.290 C 
ATOM      3  C   LIG    1        1.286  -5.075  -2.638  0.00  0.00    +0.620 C 
ATOM      4  N   LIG    1        1.347  -5.658  -3.856  0.00  0.00    -0.570 N 
ATOM      5  C   LIG    1        1.940  -4.871  -4.785  0.00  0.00    +0.560 C 
ATOM      6  O   LIG    1        1.973  -5.054  -5.982  0.00  0.00    -0.450 OA
ATOM      7  O   LIG    1        1.003  -5.626  -1.591  0.00  0.00    -0.460 OA
ATOM      8  C   LIG    1        2.551  -3.719  -4.027  0.00  0.00    +0.150 C 
ATOM      9  N   LIG    1        2.329  -2.401  -4.632  0.00  0.00    -0.390 NA
ATOM     10  H   LIG    1        3.157  -2.077  -5.108  0.00  0.00    +0.360 HD
ATOM     11  N   LIG    1        2.027  -1.595  -3.555  0.00  0.00    -0.560 N 
ATOM     12  H   LIG    1        2.188  -0.640  -3.508  0.00  0.00    +0.440 HD
ENDROOT
BRANCH   1  13
ATOM     13  C   LIG    1        0.787  -1.805  -1.354  0.00  0.00    +0.510 C 
ATOM     14  O   LIG    1        0.323  -2.556  -0.519  0.00  0.00    -0.450 OA
BRANCH  13  15
ATOM     15  O   LIG    1        0.682  -0.472  -1.193  0.00  0.00    -0.350 OA
BRANCH  15  17
ATOM     16  C   LIG    1       -0.019   1.526   0.010  0.00  0.00    +0.080 C 
ATOM     17  C   LIG    1        0.002  -0.004   0.002  0.00  0.00    +0.220 C 
ENDBRANCH  15  17
ENDBRANCH  13  15
ENDBRANCH   1  13
BRANCH   4  18
ATOM     18  C   LIG    1        0.828  -6.998  -4.141  0.00  0.00    +0.300 C 
ATOM     19  C   LIG    1       -0.635  -6.896  -4.576  0.00  0.00    +0.030 C 
ENDBRANCH   4  18
TORSDOF 4
ENDMDL
MODEL      359
REMARK  Name = ZINC000020028810
REMARK                            x       y       z     vdW  Elec       q    Type
REMARK                         _______ _______ _______ _____ _____    ______ ____
ROOT
ATOM      1  C   LIG    1       -1.000  -2.388  -0.892  0.00  0.00    +0.060 C 
ENDROOT
BRANCH   1   2
ATOM      2  S   LIG    1       -1.512  -0.906   0.012  0.00  0.00    +0.100 S 
BRANCH   2   6
ATOM      3  N   LIG    1       -0.016   1.329   0.009  0.00  0.00    -0.740 N 
ATOM      4  H   LIG    1       -0.863   1.802   0.016  0.00  0.00    +0.450 HD
ATOM      5  H   LIG    1        0.817   1.825   0.004  0.00  0.00    +0.430 HD
ATOM      6  C   LIG    1        0.002  -0.004   0.002  0.00  0.00    +0.470 C 
BRANCH   6   7
ATOM      7  N   LIG    1        1.165  -0.655  -0.013  0.00  0.00    -0.770 N 
ATOM      8  H   LIG    1        1.999  -0.158  -0.018  0.00  0.00    +0.430 HD
ATOM      9  H   LIG    1        1.179  -1.625  -0.018  0.00  0.00    +0.440 HD
ENDBRANCH   6   7
ENDBRANCH   2   6
ENDBRANCH   1   2
BRANCH   1  10
ATOM     10  C   LIG    1       -2.187  -3.347  -1.012  0.00  0.00    +0.280 C 
BRANCH  10  11
ATOM     11  O   LIG    1       -3.205  -2.747  -1.815  0.00  0.00    -0.530 OA
ATOM     12  H   LIG    1       -2.921  -2.531  -2.714  0.00  0.00    +0.380 HD
ENDBRANCH  10  11
BRANCH  10  13
ATOM     13  C   LIG    1       -1.724  -4.651  -1.665  0.00  0.00    -0.490 C 
BRANCH  13  14
ATOM     14  S   LIG    1       -3.131  -5.788  -1.807  0.00  0.00    +2.640 S 
ATOM     15  O   LIG    1       -4.158  -5.163  -2.627  0.00  0.00    -1.040 OA
ATOM     16  O   LIG    1       -3.650  -6.061  -0.476  0.00  0.00    -1.060 OA
ATOM     17  O   LIG    1       -2.675  -7.021  -2.430  0.00  0.00    -1.060 OA
ENDBRANCH  13  14
ENDBRANCH  10  13
ENDBRANCH   1  10
TORSDOF 7
ENDMDL
MODEL      360
REMARK  Name = ZINC000257355276
REMARK                            x       y       z     vdW  Elec       q    Type
REMARK                         _______ _______ _______ _____ _____    ______ ____
ROOT
ATOM      1  C   LIG    1       -2.571  -2.688   0.012  0.00  0.00    +0.180 C 
ATOM      2  O   LIG    1       -3.240  -2.228   1.188  0.00  0.00    -0.390 OA
ATOM      3  C   LIG    1       -4.603  -2.646   1.286  0.00  0.00    +0.310 C 
ATOM      4  C   LIG    1       -4.664  -4.175   1.329  0.00  0.00    +0.140 C 
ATOM      5  C   LIG    1       -3.989  -4.742   0.076  0.00  0.00    +0.160 C 
ATOM      6  C   LIG    1       -2.551  -4.219   0.004  0.00  0.00    +0.180 C 
ENDROOT
BRANCH   5   7
ATOM      7  O   LIG    1       -4.709  -4.324  -1.085  0.00  0.00    -0.540 OA
ATOM      8  H   LIG    1       -5.631  -4.616  -1.102  0.00  0.00    +0.380 HD
ENDBRANCH   5   7
BRANCH   4   9
ATOM      9  O   LIG    1       -3.985  -4.647   2.494  0.00  0.00    -0.550 OA
ATOM     10  H   LIG    1       -4.358  -4.324   3.325  0.00  0.00    +0.390 HD
ENDBRANCH   4   9
BRANCH   3  11
ATOM     11  O   LIG    1       -5.182  -2.112   2.478  0.00  0.00    -0.540 OA
ATOM     12  H   LIG    1       -5.176  -1.146   2.519  0.00  0.00    +0.390 HD
ENDBRANCH   3  11
BRANCH   6  13
ATOM     13  O   LIG    1       -1.933  -4.684  -1.198  0.00  0.00    -0.550 OA
ATOM     14  H   LIG    1       -1.891  -5.647  -1.271  0.00  0.00    +0.390 HD
ENDBRANCH   6  13
BRANCH   1  15
ATOM     15  C   LIG    1       -1.136  -2.159   0.001  0.00  0.00    +0.310 C 
BRANCH  15  18
ATOM     16  C   LIG    1       -0.018   1.503   0.010  0.00  0.00    +0.100 C 
ATOM     17  C   LIG    1        0.002  -0.004   0.002  0.00  0.00    +0.510 C 
ATOM     18  N   LIG    1       -1.156  -0.694   0.009  0.00  0.00    -0.730 N 
ATOM     19  H   LIG    1       -2.002  -0.220   0.020  0.00  0.00    +0.400 HD
ATOM     20  O   LIG    1        1.060  -0.596  -0.011  0.00  0.00    -0.550 OA
ENDBRANCH  15  18
ENDBRANCH   1  15
TORSDOF 6
ENDMDL
MODEL      361
REMARK  Name = ZINC000020028811
REMARK                            x       y       z     vdW  Elec       q    Type
REMARK                         _______ _______ _______ _____ _____    ______ ____
ROOT
ATOM      1  C   LIG    1       -1.000  -2.388  -0.892  0.00  0.00    +0.060 C 
ENDROOT
BRANCH   1   2
ATOM      2  S   LIG    1       -1.512  -0.906   0.012  0.00  0.00    +0.100 S 
BRANCH   2   6
ATOM      3  N   LIG    1       -0.016   1.329   0.009  0.00  0.00    -0.740 N 
ATOM      4  H   LIG    1       -0.863   1.802   0.016  0.00  0.00    +0.450 HD
ATOM      5  H   LIG    1        0.817   1.825   0.004  0.00  0.00    +0.430 HD
ATOM      6  C   LIG    1        0.002  -0.004   0.002  0.00  0.00    +0.470 C 
BRANCH   6   7
ATOM      7  N   LIG    1        1.165  -0.655  -0.013  0.00  0.00    -0.770 N 
ATOM      8  H   LIG    1        1.999  -0.158  -0.018  0.00  0.00    +0.430 HD
ATOM      9  H   LIG    1        1.179  -1.625  -0.018  0.00  0.00    +0.440 HD
ENDBRANCH   6   7
ENDBRANCH   2   6
ENDBRANCH   1   2
BRANCH   1  10
ATOM     10  C   LIG    1       -2.187  -3.347  -1.012  0.00  0.00    +0.280 C 
BRANCH  10  11
ATOM     11  O   LIG    1       -2.634  -3.716   0.294  0.00  0.00    -0.530 OA
ATOM     12  H   LIG    1       -1.962  -4.159   0.829  0.00  0.00    +0.380 HD
ENDBRANCH  10  11
BRANCH  10  13
ATOM     13  C   LIG    1       -1.754  -4.600  -1.776  0.00  0.00    -0.490 C 
BRANCH  13  14
ATOM     14  S   LIG    1       -3.194  -5.670  -2.047  0.00  0.00    +2.640 S 
ATOM     15  O   LIG    1       -4.184  -4.937  -2.822  0.00  0.00    -1.060 OA
ATOM     16  O   LIG    1       -3.748  -6.047  -0.756  0.00  0.00    -1.040 OA
ATOM     17  O   LIG    1       -2.767  -6.855  -2.774  0.00  0.00    -1.060 OA
ENDBRANCH  13  14
ENDBRANCH  10  13
ENDBRANCH   1  10
TORSDOF 7
ENDMDL
MODEL      362
REMARK  Name = ZINC000247918596
REMARK                            x       y       z     vdW  Elec       q    Type
REMARK                         _______ _______ _______ _____ _____    ______ ____
ROOT
ATOM      1  C   LIG    1       -0.018   1.503   0.010  0.00  0.00    +0.110 C 
ATOM      2  C   LIG    1        0.002  -0.004   0.002  0.00  0.00    +0.510 C 
ATOM      3  N   LIG    1       -1.156  -0.694   0.009  0.00  0.00    -0.610 N 
ATOM      4  C   LIG    1       -2.446   0.011   0.019  0.00  0.00    +0.280 C 
ATOM      5  C   LIG    1       -3.298  -0.568   1.155  0.00  0.00    +0.180 C 
ATOM      6  N   LIG    1       -3.405  -2.022   0.982  0.00  0.00    -0.690 NA
ATOM      7  H   LIG    1       -4.069  -2.416   1.631  0.00  0.00    +0.360 HD
ATOM      8  C   LIG    1       -2.098  -2.681   1.100  0.00  0.00    +0.160 C 
ATOM      9  C   LIG    1       -2.295  -4.196   0.827  0.00  0.00    -0.290 C 
ATOM     10  S   LIG    1       -2.489  -4.252  -0.995  0.00  0.00    +2.410 S 
ATOM     11  C   LIG    1       -1.627  -2.679  -1.360  0.00  0.00    -0.320 C 
ATOM     12  O   LIG    1       -3.865  -4.126  -1.326  0.00  0.00    -0.920 OA
ATOM     13  O   LIG    1       -1.732  -5.335  -1.516  0.00  0.00    -0.940 OA
ATOM     14  C   LIG    1       -1.151  -2.159   0.002  0.00  0.00    +0.280 C 
ATOM     15  O   LIG    1        1.060  -0.596  -0.011  0.00  0.00    -0.540 OA
ENDROOT
TORSDOF 0
ENDMDL
MODEL      363
REMARK  Name = ZINC000002115081
REMARK                            x       y       z     vdW  Elec       q    Type
REMARK                         _______ _______ _______ _____ _____    ______ ____
ROOT
ATOM      1  C   LIG    1       -0.018   1.461   0.010  0.00  0.00    +0.330 C 
ATOM      2  N   LIG    1        0.002  -0.004   0.002  0.00  0.00    -0.650 N 
ATOM      3  C   LIG    1        0.009  -0.835  -1.086  0.00  0.00    +0.720 C 
ATOM      4  N   LIG    1       -0.414  -2.102  -0.766  0.00  0.00    -0.610 N 
ATOM      5  C   LIG    1       -0.958  -1.977   0.522  0.00  0.00    +0.390 C 
ATOM      6  N   LIG    1       -1.318  -2.715   1.659  0.00  0.00    -0.710 N 
ATOM      7  H   LIG    1       -1.468  -3.671   1.722  0.00  0.00    +0.430 HD
ATOM      8  C   LIG    1       -1.410  -1.782   2.661  0.00  0.00    +0.730 C 
ATOM      9  N   LIG    1       -0.848  -0.589   2.305  0.00  0.00    -0.750 N 
ATOM     10  H   LIG    1       -0.983   0.273   2.730  0.00  0.00    +0.430 HD
ATOM     11  O   LIG    1       -1.931  -1.993   3.739  0.00  0.00    -0.540 OA
ATOM     12  O   LIG    1        0.349  -0.493  -2.202  0.00  0.00    -0.540 OA
ATOM     13  C   LIG    1        0.025  -0.907   1.159  0.00  0.00    +0.430 C 
ENDROOT
BRANCH   4  14
ATOM     14  C   LIG    1       -0.317  -3.312  -1.585  0.00  0.00    +0.340 C 
BRANCH  14  15
ATOM     15  C   LIG    1        1.008  -4.020  -1.296  0.00  0.00    +0.160 C 
BRANCH  15  16
ATOM     16  O   LIG    1        1.018  -4.477   0.058  0.00  0.00    -0.570 OA
ATOM     17  H   LIG    1        1.831  -4.936   0.312  0.00  0.00    +0.380 HD
ENDBRANCH  15  16
ENDBRANCH  14  15
ENDBRANCH   4  14
TORSDOF 3
ENDMDL
MODEL      364
REMARK  Name = ZINC000002115085
REMARK                            x       y       z     vdW  Elec       q    Type
REMARK                         _______ _______ _______ _____ _____    ______ ____
ROOT
ATOM      1  C   LIG    1       -0.018   1.461   0.010  0.00  0.00    +0.340 C 
ATOM      2  N   LIG    1        0.002  -0.004   0.002  0.00  0.00    -0.640 N 
ATOM      3  C   LIG    1        0.008  -0.772  -1.095  0.00  0.00    +0.700 C 
ATOM      4  N   LIG    1        0.027  -2.086  -0.838  0.00  0.00    -0.630 N 
ATOM      5  C   LIG    1        0.036  -2.298   0.617  0.00  0.00    +0.470 C 
ATOM      6  N   LIG    1        1.338  -2.840   1.029  0.00  0.00    -0.720 N 
ATOM      7  H   LIG    1        1.663  -3.732   0.828  0.00  0.00    +0.440 HD
ATOM      8  C   LIG    1        2.004  -1.912   1.726  0.00  0.00    +0.700 C 
ATOM      9  N   LIG    1        1.340  -0.758   1.869  0.00  0.00    -0.740 N 
ATOM     10  H   LIG    1        1.667   0.023   2.342  0.00  0.00    +0.430 HD
ATOM     11  O   LIG    1        3.113  -2.099   2.188  0.00  0.00    -0.580 OA
ATOM     12  O   LIG    1       -0.003  -0.318  -2.222  0.00  0.00    -0.570 OA
ATOM     13  C   LIG    1        0.025  -0.860   1.196  0.00  0.00    +0.470 C 
ENDROOT
BRANCH   4  14
ATOM     14  C   LIG    1        0.037  -3.147  -1.848  0.00  0.00    +0.340 C 
BRANCH  14  15
ATOM     15  C   LIG    1        1.483  -3.496  -2.206  0.00  0.00    +0.170 C 
BRANCH  15  16
ATOM     16  O   LIG    1        2.135  -4.056  -1.064  0.00  0.00    -0.580 OA
ATOM     17  H   LIG    1        3.057  -4.301  -1.219  0.00  0.00    +0.390 HD
ENDBRANCH  15  16
ENDBRANCH  14  15
ENDBRANCH   4  14
TORSDOF 3
ENDMDL
MODEL      365
REMARK  Name = ZINC000008581215
REMARK                            x       y       z     vdW  Elec       q    Type
REMARK                         _______ _______ _______ _____ _____    ______ ____
ROOT
ATOM      1  C   LIG    1       -0.018   1.461   0.010  0.00  0.00    +0.340 C 
ATOM      2  N   LIG    1        0.002  -0.004   0.002  0.00  0.00    -0.520 N 
ATOM      3  C   LIG    1       -1.185  -0.700   0.004  0.00  0.00    +0.280 A 
ATOM      4  C   LIG    1       -1.156  -2.089  -0.004  0.00  0.00    -0.090 A 
ATOM      5  C   LIG    1        0.147  -2.756  -0.014  0.00  0.00    +0.600 A 
ATOM      6  N   LIG    1        1.262  -1.993  -0.015  0.00  0.00    -0.550 N 
ATOM      7  C   LIG    1        2.578  -2.637  -0.025  0.00  0.00    +0.350 C 
ATOM      8  O   LIG    1        0.225  -3.971  -0.021  0.00  0.00    -0.480 OA
ATOM      9  N   LIG    1       -2.440  -2.521   0.001  0.00  0.00    -0.400 NA
ATOM     10  C   LIG    1       -3.235  -1.491   0.010  0.00  0.00    +0.230 A 
ATOM     11  N   LIG    1       -2.497  -0.344   0.013  0.00  0.00    -0.540 N 
ATOM     12  H   LIG    1       -2.844   0.562   0.020  0.00  0.00    +0.440 HD
ATOM     13  C   LIG    1        1.180  -0.652  -0.013  0.00  0.00    +0.720 A 
ATOM     14  O   LIG    1        2.208  -0.002  -0.014  0.00  0.00    -0.530 OA
ENDROOT
BRANCH  10  15
ATOM     15  C   LIG    1       -4.741  -1.556   0.018  0.00  0.00    +0.350 C 
BRANCH  15  16
ATOM     16  O   LIG    1       -5.274  -0.230   0.028  0.00  0.00    -0.580 OA
ATOM     17  H   LIG    1       -6.241  -0.195   0.033  0.00  0.00    +0.400 HD
ENDBRANCH  15  16
ENDBRANCH  10  15
TORSDOF 2
ENDMDL
MODEL      366
REMARK  Name = ZINC000002115087
REMARK                            x       y       z     vdW  Elec       q    Type
REMARK                         _______ _______ _______ _____ _____    ______ ____
ROOT
ATOM      1  C   LIG    1       -0.018   1.461   0.010  0.00  0.00    +0.340 C 
ATOM      2  N   LIG    1        0.002  -0.004   0.002  0.00  0.00    -0.650 N 
ATOM      3  C   LIG    1        0.009  -0.835  -1.086  0.00  0.00    +0.720 C 
ATOM      4  N   LIG    1        0.469  -2.090  -0.770  0.00  0.00    -0.610 N 
ATOM      5  C   LIG    1        1.020  -1.950   0.514  0.00  0.00    +0.390 C 
ATOM      6  N   LIG    1        1.409  -2.677   1.647  0.00  0.00    -0.710 N 
ATOM      7  H   LIG    1        1.586  -3.629   1.710  0.00  0.00    +0.430 HD
ATOM      8  C   LIG    1        1.484  -1.742   2.649  0.00  0.00    +0.730 C 
ATOM      9  N   LIG    1        0.887  -0.565   2.299  0.00  0.00    -0.740 N 
ATOM     10  H   LIG    1        1.000   0.300   2.723  0.00  0.00    +0.430 HD
ATOM     11  O   LIG    1        2.019  -1.938   3.723  0.00  0.00    -0.540 OA
ATOM     12  O   LIG    1       -0.349  -0.503  -2.200  0.00  0.00    -0.540 OA
ATOM     13  C   LIG    1        0.025  -0.907   1.159  0.00  0.00    +0.420 C 
ENDROOT
BRANCH   4  14
ATOM     14  C   LIG    1        0.400  -3.303  -1.588  0.00  0.00    +0.330 C 
BRANCH  14  15
ATOM     15  C   LIG    1        1.655  -3.403  -2.458  0.00  0.00    +0.160 C 
BRANCH  15  16
ATOM     16  O   LIG    1        2.801  -3.575  -1.622  0.00  0.00    -0.570 OA
ATOM     17  H   LIG    1        3.635  -3.647  -2.108  0.00  0.00    +0.380 HD
ENDBRANCH  15  16
ENDBRANCH  14  15
ENDBRANCH   4  14
TORSDOF 3
ENDMDL
MODEL      367
REMARK  Name = ZINC000002025497
REMARK                            x       y       z     vdW  Elec       q    Type
REMARK                         _______ _______ _______ _____ _____    ______ ____
ROOT
ATOM      1  C   UNK A  1       -1.305   1.933   0.019  0.00  0.00    +0.030 A 
ATOM      2  C   UNK A  1       -2.569   1.360   0.027  0.00  0.00    -0.010 A 
ATOM      3  N   UNK A  1       -3.461   2.402   0.035  0.00  0.00    -0.550 N 
ATOM      4  H   UNK A  1       -4.428   2.330   0.041  0.00  0.00    +0.430 HD
ATOM      5  C   ACE A  0       -2.747   3.545   0.031  0.00  0.00    +0.440 A 
ATOM      6  N   UNK A  1       -1.472   3.266   0.027  0.00  0.00    -0.470 NA
ENDROOT
BRANCH   1   8
ATOM      7  O   UNK A  1        0.002  -0.004   0.002  0.00  0.00    -0.490 OA
ATOM      8  C   UNK A  1       -0.014   1.211   0.009  0.00  0.00    +0.580 C 
ATOM      9  N   UNK A  1        1.143   1.901   0.001  0.00  0.00    -0.710 N 
ATOM     10  H   UNK A  1        1.130   2.871   0.007  0.00  0.00    +0.410 HD
BRANCH   9  11
ATOM     11  C   UNK A  1        2.422   1.186  -0.015  0.00  0.00    +0.280 C 
BRANCH  11  12
ATOM     12  C   UNK A  1        3.571   2.196  -0.020  0.00  0.00    +0.170 C 
BRANCH  12  13
ATOM     13  O   UNK A  1        3.565   2.931   1.205  0.00  0.00    -0.570 OA
ATOM     14  H   UNK A  1        4.268   3.592   1.271  0.00  0.00    +0.380 HD
ENDBRANCH  12  13
ENDBRANCH  11  12
ENDBRANCH   9  11
ENDBRANCH   1   8
BRANCH   2  15
ATOM     15  C   UNK A  1       -2.889  -0.078   0.028  0.00  0.00    +0.570 C 
ATOM     16  N   GLY A  2       -4.175  -0.482   0.037  0.00  0.00    -0.730 N 
ATOM     17  H   GLY A  2       -4.889   0.173   0.043  0.00  0.00    +0.390 HD
ATOM     18  O   UNK A  1       -1.993  -0.900   0.021  0.00  0.00    -0.460 OA
BRANCH  16  19
ATOM     19  CA  GLY A  2       -4.493  -1.912   0.038  0.00  0.00    +0.290 C 
BRANCH  19  20
ATOM     20  C   GLY A  2       -6.011  -2.097   0.049  0.00  0.00    +0.180 C 
BRANCH  20  21
ATOM     21  O   GLY A  2       -6.562  -1.588  -1.168  0.00  0.00    -0.570 OA
ATOM     22  H   GLY A  2       -7.523  -1.673  -1.230  0.00  0.00    +0.380 HD
ENDBRANCH  20  21
ENDBRANCH  19  20
ENDBRANCH  16  19
ENDBRANCH   2  15
TORSDOF 8
ENDMDL
MODEL      368
REMARK  Name = ZINC000389328918
REMARK                            x       y       z     vdW  Elec       q    Type
REMARK                         _______ _______ _______ _____ _____    ______ ____
ROOT
ATOM      1  N   LIG    1        1.411  -0.227   2.988  0.00  0.00    -0.670 NA
ATOM      2  H   LIG    1        1.935  -1.078   2.849  0.00  0.00    +0.370 HD
ENDROOT
BRANCH   1   3
ATOM      3  C   LIG    1        1.452   0.193   4.395  0.00  0.00    +0.160 C 
ATOM      4  C   LIG    1        2.803  -0.187   5.035  0.00  0.00    +0.100 C 
ATOM      5  C   LIG    1        3.393   1.147   5.437  0.00  0.00    +0.540 C 
ATOM      6  N   LIG    1        2.545   2.125   5.095  0.00  0.00    -0.680 N 
ATOM      7  H   LIG    1        2.730   3.062   5.262  0.00  0.00    +0.420 HD
ATOM      8  O   LIG    1        4.465   1.306   5.982  0.00  0.00    -0.470 OA
ATOM      9  C   LIG    1        1.417   1.702   4.502  0.00  0.00    +0.540 C 
ATOM     10  O   LIG    1        0.518   2.416   4.113  0.00  0.00    -0.470 OA
ENDBRANCH   1   3
BRANCH   1  11
ATOM     11  C   LIG    1        0.025  -0.379   2.525  0.00  0.00    +0.340 C 
BRANCH  11  17
ATOM     12  C   LIG    1       -0.018   1.461   0.010  0.00  0.00    +0.400 C 
ATOM     13  N   LIG    1        0.002  -0.004   0.002  0.00  0.00    -0.290 N 
ATOM     14  N   LIG    1        0.008  -0.765  -1.040  0.00  0.00    -0.090 NA
ATOM     15  N   LIG    1        0.027  -1.994  -0.657  0.00  0.00    -0.070 NA
ATOM     16  N   LIG    1        0.033  -2.040   0.630  0.00  0.00    -0.300 NA
ATOM     17  C   LIG    1        0.023  -0.809   1.080  0.00  0.00    +0.180 A 
ENDBRANCH  11  17
ENDBRANCH   1  11
TORSDOF 3
ENDMDL
MODEL      369
REMARK  Name = ZINC000030754032
REMARK                            x       y       z     vdW  Elec       q    Type
REMARK                         _______ _______ _______ _____ _____    ______ ____
ROOT
ATOM      1  N   LIG    1        1.580  -1.046  -1.877  0.00  0.00    -1.010 NA
ATOM      2  C   LIG    1        2.276  -0.044  -2.698  0.00  0.00    +0.290 C 
ATOM      3  C   LIG    1        3.570   0.363  -1.986  0.00  0.00    +0.020 C 
ATOM      4  C   LIG    1        4.398  -0.889  -1.686  0.00  0.00    +0.030 C 
ATOM      5  C   LIG    1        3.608  -1.815  -0.758  0.00  0.00    -0.020 C 
ATOM      6  C   LIG    1        2.316  -2.244  -1.451  0.00  0.00    +0.330 C 
ENDROOT
BRANCH   5   7
ATOM      7  C   LIG    1        4.437  -3.031  -0.437  0.00  0.00    +0.520 C 
ATOM      8  O   LIG    1        4.033  -4.136  -0.733  0.00  0.00    -0.540 OA
ATOM      9  N   LIG    1        5.627  -2.892   0.180  0.00  0.00    -0.850 N 
ATOM     10  H   LIG    1        6.161  -3.675   0.387  0.00  0.00    +0.400 HD
ATOM     11  H   LIG    1        5.950  -2.008   0.417  0.00  0.00    +0.400 HD
ENDBRANCH   5   7
BRANCH   1  12
ATOM     12  S   LIG    1       -0.000  -0.824  -1.437  0.00  0.00    +2.780 S 
ATOM     13  O   LIG    1       -0.566   0.055  -2.399  0.00  0.00    -0.970 OA
ATOM     14  O   LIG    1       -0.525  -2.116  -1.161  0.00  0.00    -0.970 OA
BRANCH  12  16
ATOM     15  C   LIG    1       -0.018   1.461   0.010  0.00  0.00    +0.290 C 
ATOM     16  N   LIG    1        0.002  -0.004   0.002  0.00  0.00    -1.020 NA
ATOM     17  C   LIG    1        0.024  -0.743   1.267  0.00  0.00    +0.290 C 
ENDBRANCH  12  16
ENDBRANCH   1  12
TORSDOF 3
ENDMDL
MODEL      370
REMARK  Name = ZINC000409415374
REMARK                            x       y       z     vdW  Elec       q    Type
REMARK                         _______ _______ _______ _____ _____    ______ ____
ROOT
ATOM      1  C   LIG    1       -1.136  -2.159   0.001  0.00  0.00    +0.280 C 
ATOM      2  C   LIG    1       -0.993  -2.676   1.435  0.00  0.00    +0.310 C 
ATOM      3  O   LIG    1       -1.032  -4.105   1.430  0.00  0.00    -0.380 OA
ATOM      4  C   LIG    1       -2.252  -4.653   0.927  0.00  0.00    +0.150 C 
ATOM      5  C   LIG    1       -2.446  -4.215  -0.526  0.00  0.00    +0.130 C 
ATOM      6  C   LIG    1       -2.444  -2.685  -0.596  0.00  0.00    +0.190 C 
ENDROOT
BRANCH   1  11
ATOM      7  N   LIG    1       -0.016   1.344   0.009  0.00  0.00    -0.870 N 
ATOM      8  H   LIG    1       -0.863   1.817   0.016  0.00  0.00    +0.390 HD
ATOM      9  H   LIG    1        0.817   1.840   0.004  0.00  0.00    +0.420 HD
ATOM     10  C   LIG    1        0.002  -0.004   0.002  0.00  0.00    +0.710 C 
ATOM     11  N   LIG    1       -1.156  -0.694   0.009  0.00  0.00    -0.730 N 
ATOM     12  H   LIG    1       -2.002  -0.220   0.020  0.00  0.00    +0.390 HD
ATOM     13  O   LIG    1        1.063  -0.598  -0.011  0.00  0.00    -0.570 OA
ENDBRANCH   1  11
BRANCH   5  14
ATOM     14  O   LIG    1       -1.379  -4.731  -1.327  0.00  0.00    -0.540 OA
ATOM     15  H   LIG    1       -1.318  -5.696  -1.326  0.00  0.00    +0.380 HD
ENDBRANCH   5  14
BRANCH   2  16
ATOM     16  O   LIG    1        0.253  -2.235   1.979  0.00  0.00    -0.510 OA
ATOM     17  H   LIG    1        0.411  -2.527   2.887  0.00  0.00    +0.380 HD
ENDBRANCH   2  16
BRANCH   6  18
ATOM     18  O   LIG    1       -2.553  -2.268  -1.959  0.00  0.00    -0.540 OA
ATOM     19  H   LIG    1       -3.358  -2.573  -2.400  0.00  0.00    +0.380 HD
ENDBRANCH   6  18
BRANCH   4  20
ATOM     20  C   LIG    1       -2.191  -6.181   0.997  0.00  0.00    +0.210 C 
BRANCH  20  21
ATOM     21  O   LIG    1       -2.126  -6.593   2.363  0.00  0.00    -0.560 OA
ATOM     22  H   LIG    1       -2.085  -7.552   2.483  0.00  0.00    +0.390 HD
ENDBRANCH  20  21
ENDBRANCH   4  20
TORSDOF 6
ENDMDL
MODEL      371
REMARK  Name = ZINC000389328921
REMARK                            x       y       z     vdW  Elec       q    Type
REMARK                         _______ _______ _______ _____ _____    ______ ____
ROOT
ATOM      1  N   LIG    1        1.411  -0.227   2.988  0.00  0.00    -0.660 NA
ATOM      2  H   LIG    1        1.935  -1.078   2.849  0.00  0.00    +0.360 HD
ENDROOT
BRANCH   1   3
ATOM      3  C   LIG    1        1.452   0.193   4.395  0.00  0.00    +0.200 C 
ATOM      4  C   LIG    1        2.792   0.887   4.715  0.00  0.00    +0.110 C 
ATOM      5  C   LIG    1        3.405   0.002   5.778  0.00  0.00    +0.530 C 
ATOM      6  N   LIG    1        2.578  -1.020   6.031  0.00  0.00    -0.680 N 
ATOM      7  H   LIG    1        2.779  -1.709   6.684  0.00  0.00    +0.420 HD
ATOM      8  O   LIG    1        4.476   0.188   6.315  0.00  0.00    -0.470 OA
ATOM      9  C   LIG    1        1.446  -1.012   5.311  0.00  0.00    +0.500 C 
ATOM     10  O   LIG    1        0.562  -1.839   5.381  0.00  0.00    -0.470 OA
ENDBRANCH   1   3
BRANCH   1  11
ATOM     11  C   LIG    1        0.025  -0.379   2.525  0.00  0.00    +0.330 C 
BRANCH  11  17
ATOM     12  C   LIG    1       -0.018   1.461   0.010  0.00  0.00    +0.400 C 
ATOM     13  N   LIG    1        0.002  -0.004   0.002  0.00  0.00    -0.300 N 
ATOM     14  N   LIG    1        0.008  -0.765  -1.040  0.00  0.00    -0.090 NA
ATOM     15  N   LIG    1        0.027  -1.994  -0.657  0.00  0.00    -0.070 NA
ATOM     16  N   LIG    1        0.033  -2.040   0.630  0.00  0.00    -0.290 NA
ATOM     17  C   LIG    1        0.023  -0.809   1.080  0.00  0.00    +0.180 A 
ENDBRANCH  11  17
ENDBRANCH   1  11
TORSDOF 3
ENDMDL
MODEL      372
REMARK  Name = ZINC000001634324
REMARK                            x       y       z     vdW  Elec       q    Type
REMARK                         _______ _______ _______ _____ _____    ______ ____
ROOT
ATOM      1  C   LIG    1        1.280   1.980   0.001  0.00  0.00    +0.080 C 
ENDROOT
BRANCH   1   3
ATOM      2  O   LIG    1        0.002  -0.004   0.002  0.00  0.00    -0.540 OA
ATOM      3  C   LIG    1       -0.014   1.209   0.009  0.00  0.00    +0.510 C 
ATOM      4  N   LIG    1       -1.191   1.867   0.018  0.00  0.00    -0.730 N 
ATOM      5  H   LIG    1       -1.204   2.837   0.023  0.00  0.00    +0.410 HD
BRANCH   4   6
ATOM      6  C   LIG    1       -2.449   1.117   0.020  0.00  0.00    +0.280 C 
BRANCH   6   7
ATOM      7  C   LIG    1       -3.626   2.095   0.031  0.00  0.00    +0.170 C 
BRANCH   7   8
ATOM      8  O   LIG    1       -3.633   2.844  -1.186  0.00  0.00    -0.570 OA
ATOM      9  H   LIG    1       -4.354   3.486  -1.249  0.00  0.00    +0.380 HD
ENDBRANCH   7   8
ENDBRANCH   6   7
ENDBRANCH   4   6
ENDBRANCH   1   3
BRANCH   1  10
ATOM     10  C   LIG    1        2.457   1.002  -0.016  0.00  0.00    +0.080 C 
BRANCH  10  11
ATOM     11  C   LIG    1        3.751   1.773  -0.024  0.00  0.00    +0.510 C 
ATOM     12  N   LIG    1        4.928   1.115  -0.039  0.00  0.00    -0.730 N 
ATOM     13  H   LIG    1        4.941   0.145  -0.044  0.00  0.00    +0.410 HD
ATOM     14  O   LIG    1        3.735   2.985  -0.018  0.00  0.00    -0.540 OA
BRANCH  12  15
ATOM     15  C   LIG    1        6.186   1.865  -0.047  0.00  0.00    +0.280 C 
BRANCH  15  16
ATOM     16  C   LIG    1        7.362   0.886  -0.064  0.00  0.00    +0.170 C 
BRANCH  16  17
ATOM     17  O   LIG    1        7.353   0.150  -1.288  0.00  0.00    -0.570 OA
ATOM     18  H   LIG    1        8.073  -0.490  -1.368  0.00  0.00    +0.380 HD
ENDBRANCH  16  17
ENDBRANCH  15  16
ENDBRANCH  12  15
ENDBRANCH  10  11
ENDBRANCH   1  10
TORSDOF 9
ENDMDL
MODEL      373
REMARK  Name = ZINC000032451071
REMARK                            x       y       z     vdW  Elec       q    Type
REMARK                         _______ _______ _______ _____ _____    ______ ____
ROOT
ATOM      1  C   LIG    1       -4.410  -4.342   0.021  0.00  0.00    +0.230 C 
ENDROOT
BRANCH   1   3
ATOM      2  C   LIG    1       -2.869  -2.425   0.016  0.00  0.00    -0.030 C 
ATOM      3  C   LIG    1       -3.025  -3.747   0.011  0.00  0.00    +0.040 C 
BRANCH   2   4
ATOM      4  C   LIG    1       -1.519  -1.845   0.007  0.00  0.00    +0.500 C 
ATOM      5  O   LIG    1       -0.545  -2.572  -0.007  0.00  0.00    -0.510 OA
BRANCH   4   6
ATOM      6  O   LIG    1       -1.360  -0.507   0.012  0.00  0.00    -0.350 OA
BRANCH   6   8
ATOM      7  C   LIG    1       -0.019   1.526   0.010  0.00  0.00    +0.070 C 
ATOM      8  C   LIG    1        0.002  -0.004   0.002  0.00  0.00    +0.200 C 
ENDBRANCH   6   8
ENDBRANCH   4   6
ENDBRANCH   2   4
ENDBRANCH   1   3
BRANCH   1   9
ATOM      9  O   LIG    1       -4.570  -5.155   1.185  0.00  0.00    -0.540 OA
ATOM     10  H   LIG    1       -3.944  -5.889   1.241  0.00  0.00    +0.380 HD
ENDBRANCH   1   9
BRANCH   1  11
ATOM     11  C   LIG    1       -4.606  -5.199  -1.231  0.00  0.00    +0.170 C 
BRANCH  11  12
ATOM     12  O   LIG    1       -4.445  -4.386  -2.395  0.00  0.00    -0.550 OA
ATOM     13  H   LIG    1       -5.072  -3.651  -2.451  0.00  0.00    +0.380 HD
ENDBRANCH  11  12
BRANCH  11  14
ATOM     14  C   LIG    1       -6.011  -5.803  -1.221  0.00  0.00    +0.200 C 
BRANCH  14  15
ATOM     15  O   LIG    1       -6.978  -4.759  -1.089  0.00  0.00    -0.540 OA
ATOM     16  H   LIG    1       -6.952  -4.107  -1.802  0.00  0.00    +0.370 HD
ENDBRANCH  14  15
BRANCH  14  17
ATOM     17  C   LIG    1       -6.252  -6.558  -2.530  0.00  0.00    +0.170 C 
BRANCH  17  18
ATOM     18  O   LIG    1       -7.517  -7.218  -2.474  0.00  0.00    -0.570 OA
ATOM     19  H   LIG    1       -7.736  -7.718  -3.272  0.00  0.00    +0.380 HD
ENDBRANCH  17  18
ENDBRANCH  14  17
ENDBRANCH  11  14
ENDBRANCH   1  11
TORSDOF 11
ENDMDL
MODEL      374
REMARK  Name = ZINC000004318065
REMARK                            x       y       z     vdW  Elec       q    Type
REMARK                         _______ _______ _______ _____ _____    ______ ____
ROOT
ATOM      1  N   LIG    1        0.844  -1.956  -1.207  0.00  0.00    -0.440 N 
ATOM      2  C   LIG    1        1.871  -2.664  -0.667  0.00  0.00    +0.550 A 
ATOM      3  N   LIG    1        1.636  -3.953  -0.808  0.00  0.00    -0.540 NA
ATOM      4  C   LIG    1        0.471  -4.138  -1.432  0.00  0.00    +0.350 A 
ATOM      5  N   LIG    1       -0.236  -5.264  -1.823  0.00  0.00    -0.510 N 
ATOM      6  C   LIG    1        0.307  -6.598  -1.556  0.00  0.00    +0.350 C 
ATOM      7  C   LIG    1       -1.417  -5.132  -2.456  0.00  0.00    +0.710 A 
ATOM      8  O   LIG    1       -2.022  -6.130  -2.796  0.00  0.00    -0.540 OA
ATOM      9  N   LIG    1       -1.945  -3.924  -2.718  0.00  0.00    -0.650 N 
ATOM     10  H   LIG    1       -2.800  -3.865  -3.173  0.00  0.00    +0.440 HD
ATOM     11  C   LIG    1       -1.305  -2.793  -2.357  0.00  0.00    +0.600 A 
ATOM     12  O   LIG    1       -1.795  -1.704  -2.600  0.00  0.00    -0.510 OA
ATOM     13  C   LIG    1       -0.067  -2.883  -1.697  0.00  0.00    -0.160 A 
ENDROOT
BRANCH   2  14
ATOM     14  N   LIG    1        2.983  -2.119  -0.067  0.00  0.00    -0.820 N 
ATOM     15  H   LIG    1        3.672  -2.699   0.294  0.00  0.00    +0.430 HD
ATOM     16  H   LIG    1        3.078  -1.156  -0.005  0.00  0.00    +0.410 HD
ENDBRANCH   2  14
BRANCH   1  17
ATOM     17  C   LIG    1        0.718  -0.497  -1.257  0.00  0.00    +0.330 C 
BRANCH  17  19
ATOM     18  C   LIG    1       -0.019   1.526   0.010  0.00  0.00    +0.020 C 
ATOM     19  C   LIG    1        0.002  -0.004   0.002  0.00  0.00    +0.150 C 
BRANCH  19  20
ATOM     20  O   LIG    1       -1.339  -0.499   0.012  0.00  0.00    -0.550 OA
ATOM     21  H   LIG    1       -1.853  -0.225   0.784  0.00  0.00    +0.380 HD
ENDBRANCH  19  20
ENDBRANCH  17  19
ENDBRANCH   1  17
TORSDOF 4
ENDMDL
MODEL      375
REMARK  Name = ZINC000016969357
REMARK                            x       y       z     vdW  Elec       q    Type
REMARK                         _______ _______ _______ _____ _____    ______ ____
ROOT
ATOM      1  C1*   C A  1        0.001  -4.173  -0.023  0.00  0.00    +0.430 C 
ATOM      2  O4*   C A  1        1.345  -4.699   0.038  0.00  0.00    -0.360 OA
ATOM      3  C4*   C A  1        1.201  -6.054   0.516  0.00  0.00    +0.150 C 
ATOM      4  C3*   C A  1        0.118  -5.973   1.615  0.00  0.00    +0.130 C 
ATOM      5  C2*   C A  1       -0.692  -4.706   1.251  0.00  0.00    +0.190 C 
ENDROOT
BRANCH   1   9
ATOM      6  C4    C A  1        0.002  -0.004   0.002  0.00  0.00    +0.510 A 
ATOM      7  N3    C A  1       -1.135  -0.687   0.004  0.00  0.00    -0.610 NA
ATOM      8  C2    C A  1       -1.129  -2.018  -0.004  0.00  0.00    +0.670 A 
ATOM      9  N1    C A  1        0.026  -2.708  -0.014  0.00  0.00    -0.520 N 
ATOM     10  C6    C A  1        1.220  -2.050  -0.016  0.00  0.00    +0.390 A 
ATOM     11  O2    C A  1       -2.189  -2.623  -0.003  0.00  0.00    -0.540 OA
ATOM     12  C5    C A  1        1.230  -0.697  -0.013  0.00  0.00    -0.170 A 
BRANCH   6  13
ATOM     13  N4    C A  1       -0.017   1.371   0.010  0.00  0.00    -0.820 N 
ATOM     14  H41   C A  1       -0.863   1.845   0.016  0.00  0.00    +0.410 HD
ATOM     15  H42   C A  1        0.817   1.868   0.004  0.00  0.00    +0.410 HD
ENDBRANCH   6  13
ENDBRANCH   1   9
BRANCH   4  16
ATOM     16  O3*   C A  1       -0.718  -7.130   1.580  0.00  0.00    -0.550 OA
ATOM     17  H3*   C A  1       -0.249  -7.960   1.742  0.00  0.00    +0.390 HD
ENDBRANCH   4  16
BRANCH   5  18
ATOM     18  O2*   C A  1       -0.616  -3.744   2.304  0.00  0.00    -0.540 OA
ATOM     19  H2*   C A  1       -0.982  -4.051   3.145  0.00  0.00    +0.390 HD
ENDBRANCH   5  18
BRANCH   3  20
ATOM     20  C5*   C A  1        2.523  -6.554   1.103  0.00  0.00    +0.210 C 
BRANCH  20  21
ATOM     21  O5*   C A  1        3.495  -6.664   0.062  0.00  0.00    -0.560 OA
ATOM     22  H5*   C A  1        4.360  -6.976   0.363  0.00  0.00    +0.390 HD
ENDBRANCH  20  21
ENDBRANCH   3  20
TORSDOF 6
ENDMDL
MODEL      376
REMARK  Name = ZINC000012364126
REMARK                            x       y       z     vdW  Elec       q    Type
REMARK                         _______ _______ _______ _____ _____    ______ ____
ROOT
ATOM      1  C   LIG    1       -0.181   1.617   0.072  0.00  0.00    +0.130 C 
ATOM      2  C   LIG    1       -0.093   0.114   0.009  0.00  0.00    +0.550 C 
ATOM      3  N   LIG    1       -1.219  -0.627   0.008  0.00  0.00    -0.600 N 
ATOM      4  C   LIG    1       -2.467  -0.144   0.053  0.00  0.00    +0.700 C 
ATOM      5  N   LIG    1       -3.416  -1.089   0.041  0.00  0.00    -0.600 N 
ATOM      6  C   LIG    1       -2.779  -2.413  -0.020  0.00  0.00    +0.430 C 
ATOM      7  C   LIG    1       -4.744  -0.862   0.079  0.00  0.00    +0.530 C 
ATOM      8  O   LIG    1       -5.163   0.269   0.202  0.00  0.00    -0.460 OA
ATOM      9  C   LIG    1       -5.709  -2.015  -0.032  0.00  0.00    +0.140 C 
ATOM     10  O   LIG    1       -2.716   1.044   0.101  0.00  0.00    -0.490 OA
ATOM     11  C   LIG    1       -1.271  -2.096  -0.049  0.00  0.00    +0.420 C 
ATOM     12  O   LIG    1        0.990  -0.428  -0.039  0.00  0.00    -0.500 OA
ENDROOT
BRANCH   6  13
ATOM     13  O   LIG    1       -3.168  -3.102  -1.210  0.00  0.00    -0.530 OA
ATOM     14  H   LIG    1       -4.125  -3.168  -1.331  0.00  0.00    +0.390 HD
ENDBRANCH   6  13
BRANCH  11  15
ATOM     15  O   LIG    1       -0.679  -2.583  -1.255  0.00  0.00    -0.530 OA
ATOM     16  H   LIG    1        0.270  -2.410  -1.325  0.00  0.00    +0.400 HD
ENDBRANCH  11  15
TORSDOF 2
ENDMDL
MODEL      377
REMARK  Name = ZINC000004353285
REMARK                            x       y       z     vdW  Elec       q    Type
REMARK                         _______ _______ _______ _____ _____    ______ ____
ROOT
ATOM      1  C   LIG    1        0.002  -0.004   0.002  0.00  0.00    +0.110 C 
ATOM      2  C   LIG    1        0.713  -0.501  -1.261  0.00  0.00    +0.180 C 
ATOM      3  O   LIG    1       -0.059  -0.128  -2.406  0.00  0.00    -0.390 OA
ATOM      4  C   LIG    1       -1.396  -0.635  -2.390  0.00  0.00    +0.390 C 
ATOM      5  O   LIG    1       -2.071  -0.161  -1.222  0.00  0.00    -0.340 OA
ATOM      6  C   LIG    1       -1.435  -0.537   0.006  0.00  0.00    +0.180 C 
ENDROOT
BRANCH   6   7
ATOM      7  C   LIG    1       -2.205   0.061   1.185  0.00  0.00    +0.190 C 
ATOM      8  O   LIG    1       -2.125   1.488   1.136  0.00  0.00    -0.340 OA
ATOM      9  C   LIG    1       -2.858   2.143   2.173  0.00  0.00    +0.390 C 
ATOM     10  O   LIG    1       -4.236   1.770   2.091  0.00  0.00    -0.390 OA
ATOM     11  C   LIG    1       -4.460   0.362   2.205  0.00  0.00    +0.180 C 
ATOM     12  C   LIG    1       -3.677  -0.360   1.103  0.00  0.00    +0.110 C 
BRANCH  12  13
ATOM     13  O   LIG    1       -4.206  -0.000  -0.175  0.00  0.00    -0.520 OA
ATOM     14  H   LIG    1       -5.138  -0.228  -0.292  0.00  0.00    +0.370 HD
ENDBRANCH  12  13
ENDBRANCH   6   7
BRANCH   1  15
ATOM     15  O   LIG    1       -0.017   1.425   0.010  0.00  0.00    -0.520 OA
ATOM     16  H   LIG    1        0.861   1.830   0.004  0.00  0.00    +0.370 HD
ENDBRANCH   1  15
TORSDOF 3
ENDMDL
MODEL      378
REMARK  Name = ZINC000019500841
REMARK                            x       y       z     vdW  Elec       q    Type
REMARK                         _______ _______ _______ _____ _____    ______ ____
ROOT
ATOM      1  C   LIG    1        0.718  -0.497  -1.257  0.00  0.00    +0.240 C 
ATOM      2  N   LIG    1       -0.018  -0.041  -2.439  0.00  0.00    -0.510 NA
ATOM      3  C   LIG    1        0.607   0.141  -3.558  0.00  0.00    +0.390 A 
ATOM      4  C   LIG    1        2.084  -0.020  -3.599  0.00  0.00    +0.020 A 
ATOM      5  C   LIG    1        2.731  -0.008  -4.930  0.00  0.00    +0.590 A 
ATOM      6  N   LIG    1        1.953   0.265  -6.001  0.00  0.00    -0.560 N 
ATOM      7  C   LIG    1        0.649   0.548  -5.885  0.00  0.00    +0.710 A 
ATOM      8  O   LIG    1        0.042   0.859  -6.891  0.00  0.00    -0.510 OA
ATOM      9  C   LIG    1        2.557   0.252  -7.336  0.00  0.00    +0.370 C 
ATOM     10  O   LIG    1        3.918  -0.236  -5.056  0.00  0.00    -0.440 OA
ATOM     11  N   LIG    1        2.745  -0.129  -2.491  0.00  0.00    -0.140 NA
ATOM     12  N   LIG    1       -0.031   0.510  -4.726  0.00  0.00    -0.530 N 
ATOM     13  C   LIG    1       -1.453   0.861  -4.702  0.00  0.00    +0.360 C 
ATOM     14  C   LIG    1        0.752  -2.027  -1.248  0.00  0.00    +0.060 C 
ATOM     15  O   LIG    1        2.053  -0.001  -1.260  0.00  0.00    -0.170 OA
ENDROOT
BRANCH   1  17
ATOM     16  C   LIG    1       -0.019   1.526   0.010  0.00  0.00    +0.030 C 
ATOM     17  C   LIG    1        0.002  -0.004   0.002  0.00  0.00    +0.100 C 
ENDBRANCH   1  17
TORSDOF 1
ENDMDL
MODEL      379
REMARK  Name = ZINC000005528344
REMARK                            x       y       z     vdW  Elec       q    Type
REMARK                         _______ _______ _______ _____ _____    ______ ____
ROOT
ATOM      1  N   LIG    1       -0.016   1.299   0.009  0.00  0.00    -0.770 NA
ATOM      2  H   LIG    1        0.818   1.796   0.004  0.00  0.00    +0.350 HD
ATOM      3  C   LIG    1        0.002  -0.004   0.002  0.00  0.00    +0.650 C 
ATOM      4  N   LIG    1       -1.136  -0.824   0.003  0.00  0.00    -0.700 N 
ATOM      5  H   LIG    1       -2.063  -0.546  -0.062  0.00  0.00    +0.430 HD
ATOM      6  C   LIG    1       -0.639  -2.146   0.120  0.00  0.00    +0.380 C 
ATOM      7  C   LIG    1       -1.117  -3.456  -0.319  0.00  0.00    -0.060 A 
ATOM      8  C   LIG    1       -2.347  -4.037  -0.539  0.00  0.00    +0.040 A 
ATOM      9  C   LIG    1       -2.447  -5.357  -0.937  0.00  0.00    +0.050 A 
ATOM     10  C   LIG    1       -1.310  -6.123  -1.126  0.00  0.00    +0.030 A 
ATOM     11  C   LIG    1       -0.065  -5.563  -0.929  0.00  0.00    +0.090 A 
ATOM     12  C   LIG    1        0.053  -4.234  -0.540  0.00  0.00    -0.150 A 
ATOM     13  C   LIG    1        1.257  -3.368  -0.327  0.00  0.00    +0.420 C 
ATOM     14  O   LIG    1        2.372  -3.686   0.028  0.00  0.00    -0.400 OA
ATOM     15  C   LIG    1        0.726  -2.010  -0.668  0.00  0.00    +0.270 C 
ATOM     16  N   LIG    1        1.164  -0.793  -0.014  0.00  0.00    -0.760 N 
ATOM     17  H   LIG    1        2.044  -0.577   0.332  0.00  0.00    +0.430 HD
ENDROOT
BRANCH   6  18
ATOM     18  O   LIG    1       -0.228  -2.310   1.479  0.00  0.00    -0.570 OA
ATOM     19  H   LIG    1       -0.942  -2.203   2.121  0.00  0.00    +0.390 HD
ENDBRANCH   6  18
BRANCH  15  20
ATOM     20  O   LIG    1        0.552  -1.838  -2.075  0.00  0.00    -0.520 OA
ATOM     21  H   LIG    1        1.370  -1.920  -2.586  0.00  0.00    +0.390 HD
ENDBRANCH  15  20
TORSDOF 2
ENDMDL
MODEL      380
REMARK  Name = ZINC000001637983
REMARK                            x       y       z     vdW  Elec       q    Type
REMARK                         _______ _______ _______ _____ _____    ______ ____
ROOT
ATOM      1  N   PRO A  1       -6.117   1.136   0.037  0.00  0.00    -0.680 N 
ATOM      2  H   PRO A  1       -6.130   2.106   0.043  0.00  0.00    +0.420 HD
ATOM      3  C   PRO A  1       -7.275   0.446   0.039  0.00  0.00    +0.510 C 
ATOM      4  O   PRO A  1       -7.259  -0.766   0.032  0.00  0.00    -0.530 OA
ENDROOT
BRANCH   3   5
ATOM      5  CA  PRO A  1       -8.591   1.182   0.049  0.00  0.00    +0.180 C 
ATOM      6  CB  PRO A  1       -8.745   2.029  -1.239  0.00  0.00    +0.100 C 
ATOM      7  CG  PRO A  1      -10.287   2.160  -1.345  0.00  0.00    +0.080 C 
ATOM      8  CD  PRO A  1      -10.789   0.795  -0.827  0.00  0.00    +0.270 C 
ATOM      9  N   PRO A  1       -9.716   0.224   0.012  0.00  0.00    -0.500 N 
ATOM     10  H1  PRO A  1      -10.062   0.069   0.947  0.00  0.00    +0.440 HD
ATOM     11  H2  PRO A  1       -9.404  -0.649  -0.385  0.00  0.00    +0.440 HD
ENDBRANCH   3   5
BRANCH   1  12
ATOM     12  CA  PRO A  1       -4.839   0.421   0.027  0.00  0.00    +0.310 C 
BRANCH  12  15
ATOM     13  N   PRO A  1       -2.430   0.984   0.019  0.00  0.00    -0.680 N 
ATOM     14  H   PRO A  1       -2.240   0.033   0.013  0.00  0.00    +0.410 HD
ATOM     15  C   PRO A  1       -3.707   1.416   0.027  0.00  0.00    +0.490 C 
ATOM     16  O   PRO A  1       -3.945   2.605   0.035  0.00  0.00    -0.560 OA
BRANCH  13  17
ATOM     17  CA  PRO A  1       -1.330   1.951   0.019  0.00  0.00    +0.190 C 
BRANCH  17  19
ATOM     18  O   PRO A  1        0.002  -0.004   0.002  0.00  0.00    -0.690 OA
ATOM     19  C   PRO A  1       -0.015   1.215   0.009  0.00  0.00    +0.490 C 
ATOM     20  OXT PRO A  1        1.033   1.839   0.002  0.00  0.00    -0.680 OA
ENDBRANCH  17  19
ENDBRANCH  13  17
ENDBRANCH  12  15
ENDBRANCH   1  12
TORSDOF 5
ENDMDL
MODEL      381
REMARK  Name = ZINC000000052389
REMARK                            x       y       z     vdW  Elec       q    Type
REMARK                         _______ _______ _______ _____ _____    ______ ____
ROOT
ATOM      1  N   LIG    1       -0.016   1.299   0.009  0.00  0.00    -0.790 NA
ATOM      2  H   LIG    1        0.818   1.796   0.004  0.00  0.00    +0.350 HD
ATOM      3  C   LIG    1        0.002  -0.004   0.002  0.00  0.00    +0.640 C 
ATOM      4  N   LIG    1        1.151  -0.745  -0.007  0.00  0.00    -0.760 N 
ATOM      5  H   LIG    1        2.052  -0.386  -0.009  0.00  0.00    +0.430 HD
ATOM      6  C   LIG    1        0.803  -2.172  -0.014  0.00  0.00    +0.310 C 
ATOM      7  C   LIG    1        1.216  -2.809   1.290  0.00  0.00    +0.390 C 
ATOM      8  C   LIG    1       -0.002  -3.185   2.025  0.00  0.00    -0.170 A 
ATOM      9  C   LIG    1       -0.145  -3.804   3.277  0.00  0.00    +0.100 A 
ATOM     10  C   LIG    1       -1.401  -4.066   3.778  0.00  0.00    +0.020 A 
ATOM     11  C   LIG    1       -2.526  -3.720   3.051  0.00  0.00    +0.070 A 
ATOM     12  C   LIG    1       -2.395  -3.109   1.816  0.00  0.00    +0.040 A 
ATOM     13  C   LIG    1       -1.142  -2.840   1.299  0.00  0.00    -0.090 A 
ATOM     14  O   LIG    1        2.356  -2.980   1.667  0.00  0.00    -0.410 OA
ATOM     15  C   LIG    1       -0.740  -2.193  -0.004  0.00  0.00    +0.400 C 
ATOM     16  N   LIG    1       -1.127  -0.776   0.009  0.00  0.00    -0.720 N 
ATOM     17  H   LIG    1       -2.037  -0.442   0.016  0.00  0.00    +0.440 HD
ENDROOT
BRANCH   6  18
ATOM     18  O   LIG    1        1.341  -2.848  -1.153  0.00  0.00    -0.510 OA
ATOM     19  H   LIG    1        2.307  -2.826  -1.202  0.00  0.00    +0.390 HD
ENDBRANCH   6  18
BRANCH  15  20
ATOM     20  O   LIG    1       -1.269  -2.898  -1.129  0.00  0.00    -0.510 OA
ATOM     21  H   LIG    1       -2.235  -2.932  -1.152  0.00  0.00    +0.390 HD
ENDBRANCH  15  20
TORSDOF 2
ENDMDL
MODEL      382
REMARK  Name = ZINC000005528341
REMARK                            x       y       z     vdW  Elec       q    Type
REMARK                         _______ _______ _______ _____ _____    ______ ____
ROOT
ATOM      1  N   LIG    1       -0.016   1.299   0.009  0.00  0.00    -0.770 NA
ATOM      2  H   LIG    1        0.818   1.796   0.004  0.00  0.00    +0.350 HD
ATOM      3  C   LIG    1        0.002  -0.004   0.002  0.00  0.00    +0.650 C 
ATOM      4  N   LIG    1        1.164  -0.793  -0.007  0.00  0.00    -0.760 N 
ATOM      5  H   LIG    1        2.040  -0.573  -0.361  0.00  0.00    +0.430 HD
ATOM      6  C   LIG    1        0.733  -2.018   0.643  0.00  0.00    +0.270 C 
ATOM      7  C   LIG    1        1.263  -3.369   0.269  0.00  0.00    +0.420 C 
ATOM      8  C   LIG    1        0.063  -4.242   0.475  0.00  0.00    -0.150 A 
ATOM      9  C   LIG    1       -0.047  -5.589   0.802  0.00  0.00    +0.090 A 
ATOM     10  C   LIG    1       -1.289  -6.166   0.967  0.00  0.00    +0.030 A 
ATOM     11  C   LIG    1       -2.431  -5.401   0.806  0.00  0.00    +0.050 A 
ATOM     12  C   LIG    1       -2.338  -4.064   0.467  0.00  0.00    +0.040 A 
ATOM     13  C   LIG    1       -1.111  -3.464   0.282  0.00  0.00    -0.070 A 
ATOM     14  O   LIG    1        2.375  -3.676  -0.104  0.00  0.00    -0.400 OA
ATOM     15  C   LIG    1       -0.641  -2.143  -0.128  0.00  0.00    +0.380 C 
ATOM     16  N   LIG    1       -1.137  -0.824   0.009  0.00  0.00    -0.700 N 
ATOM     17  H   LIG    1       -2.063  -0.546   0.088  0.00  0.00    +0.430 HD
ENDROOT
BRANCH   6  18
ATOM     18  O   LIG    1        0.581  -1.858   2.055  0.00  0.00    -0.520 OA
ATOM     19  H   LIG    1        1.396  -1.608   2.512  0.00  0.00    +0.390 HD
ENDBRANCH   6  18
BRANCH  15  20
ATOM     20  O   LIG    1       -0.226  -2.271  -1.490  0.00  0.00    -0.560 OA
ATOM     21  H   LIG    1       -0.933  -2.539  -2.093  0.00  0.00    +0.390 HD
ENDBRANCH  15  20
TORSDOF 2
ENDMDL
MODEL      383
REMARK  Name = ZINC000005528343
REMARK                            x       y       z     vdW  Elec       q    Type
REMARK                         _______ _______ _______ _____ _____    ______ ____
ROOT
ATOM      1  N   LIG    1       -0.016   1.299   0.009  0.00  0.00    -0.790 NA
ATOM      2  H   LIG    1        0.818   1.796   0.004  0.00  0.00    +0.350 HD
ATOM      3  C   LIG    1        0.002  -0.004   0.002  0.00  0.00    +0.640 C 
ATOM      4  N   LIG    1        1.151  -0.745  -0.007  0.00  0.00    -0.760 N 
ATOM      5  H   LIG    1        2.052  -0.386  -0.010  0.00  0.00    +0.430 HD
ATOM      6  C   LIG    1        0.803  -2.172  -0.011  0.00  0.00    +0.310 C 
ATOM      7  C   LIG    1        1.204  -2.795  -1.326  0.00  0.00    +0.390 C 
ATOM      8  C   LIG    1       -0.021  -3.164  -2.054  0.00  0.00    -0.170 A 
ATOM      9  C   LIG    1       -0.175  -3.770  -3.310  0.00  0.00    +0.100 A 
ATOM     10  C   LIG    1       -1.435  -4.026  -3.803  0.00  0.00    +0.020 A 
ATOM     11  C   LIG    1       -2.554  -3.687  -3.062  0.00  0.00    +0.070 A 
ATOM     12  C   LIG    1       -2.412  -3.090  -1.823  0.00  0.00    +0.040 A 
ATOM     13  C   LIG    1       -1.154  -2.827  -1.314  0.00  0.00    -0.090 A 
ATOM     14  O   LIG    1        2.340  -2.963  -1.715  0.00  0.00    -0.410 OA
ATOM     15  C   LIG    1       -0.740  -2.193  -0.008  0.00  0.00    +0.400 C 
ATOM     16  N   LIG    1       -1.127  -0.776   0.009  0.00  0.00    -0.720 N 
ATOM     17  H   LIG    1       -2.037  -0.442   0.018  0.00  0.00    +0.440 HD
ENDROOT
BRANCH   6  18
ATOM     18  O   LIG    1        1.352  -2.860   1.115  0.00  0.00    -0.510 OA
ATOM     19  H   LIG    1        2.318  -2.838   1.156  0.00  0.00    +0.390 HD
ENDBRANCH   6  18
BRANCH  15  20
ATOM     20  O   LIG    1       -1.259  -2.909   1.115  0.00  0.00    -0.510 OA
ATOM     21  H   LIG    1       -2.225  -2.944   1.146  0.00  0.00    +0.390 HD
ENDBRANCH  15  20
TORSDOF 2
ENDMDL
MODEL      384
REMARK  Name = ZINC000004353283
REMARK                            x       y       z     vdW  Elec       q    Type
REMARK                         _______ _______ _______ _____ _____    ______ ____
ROOT
ATOM      1  C   LIG    1        0.002  -0.004   0.002  0.00  0.00    +0.120 C 
ATOM      2  C   LIG    1        0.713  -0.501  -1.261  0.00  0.00    +0.190 C 
ATOM      3  O   LIG    1        0.609  -1.927  -1.323  0.00  0.00    -0.390 OA
ATOM      4  C   LIG    1       -0.737  -2.407  -1.323  0.00  0.00    +0.410 C 
ATOM      5  O   LIG    1       -1.402  -1.961  -0.138  0.00  0.00    -0.380 OA
ATOM      6  C   LIG    1       -1.435  -0.537   0.006  0.00  0.00    +0.200 C 
ENDROOT
BRANCH   6   7
ATOM      7  C   LIG    1       -2.120  -0.172   1.325  0.00  0.00    +0.190 C 
ATOM      8  O   LIG    1       -2.157   1.251   1.467  0.00  0.00    -0.360 OA
ATOM      9  C   LIG    1       -2.825   1.695   2.651  0.00  0.00    +0.400 C 
ATOM     10  O   LIG    1       -4.170   1.211   2.649  0.00  0.00    -0.390 OA
ATOM     11  C   LIG    1       -4.269  -0.215   2.586  0.00  0.00    +0.180 C 
ATOM     12  C   LIG    1       -3.554  -0.712   1.325  0.00  0.00    +0.130 C 
BRANCH  12  13
ATOM     13  O   LIG    1       -4.243  -0.238   0.166  0.00  0.00    -0.550 OA
ATOM     14  H   LIG    1       -5.162  -0.533   0.107  0.00  0.00    +0.380 HD
ENDBRANCH  12  13
ENDBRANCH   6   7
BRANCH   1  15
ATOM     15  O   LIG    1       -0.017   1.425   0.010  0.00  0.00    -0.530 OA
ATOM     16  H   LIG    1        0.861   1.830   0.004  0.00  0.00    +0.380 HD
ENDBRANCH   1  15
TORSDOF 3
ENDMDL
MODEL      385
REMARK  Name = ZINC000013813187
REMARK                            x       y       z     vdW  Elec       q    Type
REMARK                         _______ _______ _______ _____ _____    ______ ____
ROOT
ATOM      1  N   LIG    1       -0.016   1.315   0.009  0.00  0.00    -0.690 NA
ATOM      2  H   LIG    1        0.818   1.812   0.004  0.00  0.00    +0.340 HD
ATOM      3  C   LIG    1        0.002  -0.004   0.002  0.00  0.00    +0.390 A 
ATOM      4  C   LIG    1       -1.252  -0.770   0.004  0.00  0.00    -0.020 A 
ATOM      5  C   LIG    1       -1.174  -2.113  -0.040  0.00  0.00    +0.300 A 
ATOM      6  N   LIG    1        0.045  -2.730  -0.088  0.00  0.00    -0.540 N 
ATOM      7  C   LIG    1        1.209  -1.985  -0.036  0.00  0.00    +0.570 A 
ATOM      8  O   LIG    1        2.314  -2.812  -0.001  0.00  0.00    -0.240 OA
ATOM      9  C   LIG    1        1.831  -3.984   0.624  0.00  0.00    +0.140 C 
ATOM     10  C   LIG    1        2.389  -5.368   0.346  0.00  0.00    +0.210 C 
ATOM     11  C   LIG    1        1.098  -6.227   0.192  0.00  0.00    +0.170 C 
ATOM     12  O   LIG    1       -0.028  -5.298   0.252  0.00  0.00    -0.330 OA
ATOM     13  C   LIG    1        0.485  -4.085  -0.199  0.00  0.00    +0.360 C 
ATOM     14  N   LIG    1        1.171  -0.676  -0.013  0.00  0.00    -0.560 NA
ENDROOT
BRANCH  10  15
ATOM     15  O   LIG    1        3.154  -5.374  -0.860  0.00  0.00    -0.540 OA
ATOM     16  H   LIG    1        3.532  -6.236  -1.082  0.00  0.00    +0.390 HD
ENDBRANCH  10  15
BRANCH  11  17
ATOM     17  C   LIG    1        1.004  -7.242   1.333  0.00  0.00    +0.210 C 
BRANCH  17  18
ATOM     18  O   LIG    1       -0.119  -8.099   1.117  0.00  0.00    -0.560 OA
ATOM     19  H   LIG    1       -0.241  -8.769   1.804  0.00  0.00    +0.390 HD
ENDBRANCH  17  18
ENDBRANCH  11  17
TORSDOF 3
ENDMDL
MODEL      386
REMARK  Name = ZINC000004027061
REMARK                            x       y       z     vdW  Elec       q    Type
REMARK                         _______ _______ _______ _____ _____    ______ ____
ROOT
ATOM      1  N   LIG    1       -0.016   1.315   0.009  0.00  0.00    -0.700 NA
ATOM      2  H   LIG    1        0.818   1.812   0.004  0.00  0.00    +0.340 HD
ATOM      3  C   LIG    1        0.002  -0.004   0.002  0.00  0.00    +0.390 A 
ATOM      4  C   LIG    1       -1.254  -0.767   0.004  0.00  0.00    -0.020 A 
ATOM      5  C   LIG    1       -1.174  -2.111  -0.014  0.00  0.00    +0.310 A 
ATOM      6  N   LIG    1        0.055  -2.714  -0.033  0.00  0.00    -0.550 N 
ATOM      7  C   LIG    1        1.207  -1.992  -0.021  0.00  0.00    +0.570 A 
ATOM      8  O   LIG    1        2.301  -2.796  -0.021  0.00  0.00    -0.260 OA
ATOM      9  C   LIG    1        1.905  -4.088  -0.507  0.00  0.00    +0.200 C 
ATOM     10  C   LIG    1        2.590  -5.188   0.324  0.00  0.00    +0.200 C 
ATOM     11  C   LIG    1        1.588  -5.525   1.440  0.00  0.00    +0.160 C 
ATOM     12  O   LIG    1        0.455  -4.666   1.288  0.00  0.00    -0.350 OA
ATOM     13  C   LIG    1        0.413  -4.149  -0.072  0.00  0.00    +0.420 C 
ATOM     14  N   LIG    1        1.172  -0.672  -0.013  0.00  0.00    -0.570 NA
ENDROOT
BRANCH  10  15
ATOM     15  O   LIG    1        2.840  -6.339  -0.486  0.00  0.00    -0.540 OA
ATOM     16  H   LIG    1        3.271  -7.065  -0.015  0.00  0.00    +0.400 HD
ENDBRANCH  10  15
BRANCH  11  17
ATOM     17  C   LIG    1        2.236  -5.292   2.805  0.00  0.00    +0.200 C 
BRANCH  17  18
ATOM     18  O   LIG    1        1.342  -5.717   3.836  0.00  0.00    -0.560 OA
ATOM     19  H   LIG    1        1.688  -5.598   4.731  0.00  0.00    +0.390 HD
ENDBRANCH  17  18
ENDBRANCH  11  17
TORSDOF 3
ENDMDL
MODEL      387
REMARK  Name = ZINC000040500933
REMARK                            x       y       z     vdW  Elec       q    Type
REMARK                         _______ _______ _______ _____ _____    ______ ____
ROOT
ATOM      1  C   LIG    1       -0.018   1.503   0.010  0.00  0.00    +0.090 C 
ATOM      2  C   LIG    1        0.002  -0.004   0.002  0.00  0.00    +0.510 C 
ATOM      3  N   LIG    1       -1.156  -0.694   0.009  0.00  0.00    -0.620 N 
ATOM      4  C   LIG    1       -2.446   0.010   0.019  0.00  0.00    +0.270 C 
ATOM      5  C   LIG    1       -3.281  -0.481  -1.169  0.00  0.00    +0.290 C 
ATOM      6  N   LIG    1       -3.276  -1.950  -1.172  0.00  0.00    -1.010 NA
ATOM      7  C   LIG    1       -1.986  -2.654  -1.182  0.00  0.00    +0.300 C 
ATOM      8  C   LIG    1       -1.151  -2.163   0.001  0.00  0.00    +0.290 C 
ATOM      9  O   LIG    1        1.060  -0.596  -0.011  0.00  0.00    -0.540 OA
ENDROOT
BRANCH   6  10
ATOM     10  S   LIG    1       -4.699  -2.798  -1.164  0.00  0.00    +2.780 S 
ATOM     11  O   LIG    1       -5.680  -1.930  -0.612  0.00  0.00    -0.970 OA
ATOM     12  O   LIG    1       -4.401  -4.077  -0.623  0.00  0.00    -0.970 OA
BRANCH  10  13
ATOM     13  N   LIG    1       -5.131  -3.046  -2.743  0.00  0.00    -1.010 NA
ATOM     14  C   LIG    1       -5.971  -2.066  -3.436  0.00  0.00    +0.290 C 
ATOM     15  C   LIG    1       -4.672  -4.246  -3.448  0.00  0.00    +0.290 C 
ENDBRANCH  10  13
ENDBRANCH   6  10
TORSDOF 2
ENDMDL
MODEL      388
REMARK  Name = ZINC000029727622
REMARK                            x       y       z     vdW  Elec       q    Type
REMARK                         _______ _______ _______ _____ _____    ______ ____
ROOT
ATOM      1  C   LIG    1       -1.306  -0.742   0.119  0.00  0.00    +0.270 C 
ENDROOT
BRANCH   1   2
ATOM      2  N   LIG    1       -1.505  -2.182  -0.063  0.00  0.00    -0.710 N 
ATOM      3  H   LIG    1       -0.846  -2.809   0.273  0.00  0.00    +0.420 HD
ATOM      4  C   LIG    1       -2.605  -2.635  -0.697  0.00  0.00    +0.720 C 
ATOM      5  N   LIG    1       -2.788  -3.960  -0.864  0.00  0.00    -0.740 N 
ATOM      6  H   LIG    1       -2.129  -4.587  -0.528  0.00  0.00    +0.410 HD
ATOM      7  O   LIG    1       -3.431  -1.849  -1.118  0.00  0.00    -0.580 OA
BRANCH   5   8
ATOM      8  C   LIG    1       -3.983  -4.453  -1.553  0.00  0.00    +0.340 C 
BRANCH   8   9
ATOM      9  C   LIG    1       -3.946  -5.981  -1.608  0.00  0.00    +0.450 C 
ATOM     10  F   LIG    1       -2.804  -6.396  -2.301  0.00  0.00    -0.180 F 
ATOM     11  F   LIG    1       -5.088  -6.452  -2.266  0.00  0.00    -0.170 F 
ATOM     12  F   LIG    1       -3.914  -6.494  -0.306  0.00  0.00    -0.180 F 
ENDBRANCH   8   9
ENDBRANCH   5   8
ENDBRANCH   1   2
BRANCH   1  16
ATOM     13  N   LIG    1        0.654   0.753  -0.088  0.00  0.00    -0.840 N 
ATOM     14  H   LIG    1        0.074   1.407  -0.508  0.00  0.00    +0.410 HD
ATOM     15  H   LIG    1        1.587   0.965   0.075  0.00  0.00    +0.410 HD
ATOM     16  C   LIG    1        0.166  -0.453   0.264  0.00  0.00    +0.520 C 
ATOM     17  O   LIG    1        0.911  -1.306   0.698  0.00  0.00    -0.510 OA
ENDBRANCH   1  16
BRANCH   1  18
ATOM     18  C   LIG    1       -2.032  -0.287   1.358  0.00  0.00    +0.510 C 
ATOM     19  O   LIG    1       -2.227  -1.065   2.267  0.00  0.00    -0.510 OA
ATOM     20  N   LIG    1       -2.464   0.986   1.457  0.00  0.00    -0.840 N 
ATOM     21  H   LIG    1       -2.994   1.261   2.222  0.00  0.00    +0.410 HD
ATOM     22  H   LIG    1       -2.246   1.628   0.763  0.00  0.00    +0.400 HD
ENDBRANCH   1  18
TORSDOF 5
ENDMDL
MODEL      389
REMARK  Name = ZINC000029318555
REMARK                            x       y       z     vdW  Elec       q    Type
REMARK                         _______ _______ _______ _____ _____    ______ ____
ROOT
ATOM      1  N   LIG    1       -1.504  -2.183  -0.061  0.00  0.00    -0.710 N 
ATOM      2  H   LIG    1       -1.704  -2.744   0.704  0.00  0.00    +0.410 HD
ATOM      3  C   LIG    1       -1.409  -2.728  -1.290  0.00  0.00    +0.720 C 
ATOM      4  N   LIG    1       -1.591  -4.053  -1.455  0.00  0.00    -0.740 N 
ATOM      5  H   LIG    1       -1.790  -4.615  -0.690  0.00  0.00    +0.400 HD
ATOM      6  O   LIG    1       -1.159  -2.025  -2.250  0.00  0.00    -0.590 OA
ENDROOT
BRANCH   1   7
ATOM      7  C   LIG    1       -1.307  -0.742   0.118  0.00  0.00    +0.260 C 
BRANCH   7  11
ATOM      8  N   LIG    1        0.651   0.753  -0.099  0.00  0.00    -0.850 N 
ATOM      9  H   LIG    1        0.070   1.404  -0.522  0.00  0.00    +0.400 HD
ATOM     10  H   LIG    1        1.583   0.968   0.063  0.00  0.00    +0.410 HD
ATOM     11  C   LIG    1        0.165  -0.451   0.261  0.00  0.00    +0.510 C 
ATOM     12  O   LIG    1        0.911  -1.300   0.699  0.00  0.00    -0.510 OA
ENDBRANCH   7  11
BRANCH   7  13
ATOM     13  C   LIG    1       -2.032  -0.287   1.358  0.00  0.00    +0.530 C 
ATOM     14  O   LIG    1       -2.226  -1.065   2.268  0.00  0.00    -0.510 OA
ATOM     15  N   LIG    1       -2.464   0.986   1.457  0.00  0.00    -0.840 N 
ATOM     16  H   LIG    1       -2.994   1.261   2.222  0.00  0.00    +0.410 HD
ATOM     17  H   LIG    1       -2.246   1.628   0.763  0.00  0.00    +0.400 HD
ENDBRANCH   7  13
ENDBRANCH   1   7
BRANCH   4  18
ATOM     18  C   LIG    1       -1.487  -4.646  -2.791  0.00  0.00    +0.410 C 
BRANCH  18  19
ATOM     19  C   LIG    1       -1.731  -6.131  -2.702  0.00  0.00    -0.040 A 
ATOM     20  C   LIG    1       -2.924  -6.740  -2.817  0.00  0.00    -0.030 A 
ATOM     21  C   LIG    1       -2.692  -8.127  -2.671  0.00  0.00    -0.070 A 
ATOM     22  C   LIG    1       -1.370  -8.282  -2.474  0.00  0.00    +0.190 A 
ATOM     23  O   LIG    1       -0.792  -7.070  -2.500  0.00  0.00    -0.170 OA
ENDBRANCH  18  19
ENDBRANCH   4  18
TORSDOF 5
ENDMDL
MODEL      390
REMARK  Name = ZINC000029320143
REMARK                            x       y       z     vdW  Elec       q    Type
REMARK                         _______ _______ _______ _____ _____    ______ ____
ROOT
ATOM      1  C   LIG    1       -1.307  -0.742   0.118  0.00  0.00    +0.260 C 
ENDROOT
BRANCH   1   2
ATOM      2  N   LIG    1       -1.504  -2.183  -0.061  0.00  0.00    -0.710 N 
ATOM      3  H   LIG    1       -1.704  -2.744   0.704  0.00  0.00    +0.410 HD
ATOM      4  C   LIG    1       -1.409  -2.728  -1.290  0.00  0.00    +0.720 C 
ATOM      5  N   LIG    1       -1.591  -4.053  -1.455  0.00  0.00    -0.710 N 
ATOM      6  H   LIG    1       -1.790  -4.615  -0.690  0.00  0.00    +0.400 HD
ATOM      7  O   LIG    1       -1.159  -2.025  -2.250  0.00  0.00    -0.590 OA
BRANCH   5   8
ATOM      8  C   LIG    1       -1.487  -4.646  -2.791  0.00  0.00    +0.240 C 
ATOM      9  C   LIG    1       -0.715  -5.960  -2.923  0.00  0.00    +0.010 C 
ATOM     10  C   LIG    1       -2.240  -5.954  -3.044  0.00  0.00    +0.020 C 
ENDBRANCH   5   8
ENDBRANCH   1   2
BRANCH   1  14
ATOM     11  N   LIG    1        0.651   0.753  -0.099  0.00  0.00    -0.850 N 
ATOM     12  H   LIG    1        0.070   1.404  -0.522  0.00  0.00    +0.400 HD
ATOM     13  H   LIG    1        1.583   0.968   0.063  0.00  0.00    +0.410 HD
ATOM     14  C   LIG    1        0.165  -0.451   0.261  0.00  0.00    +0.510 C 
ATOM     15  O   LIG    1        0.911  -1.300   0.699  0.00  0.00    -0.510 OA
ENDBRANCH   1  14
BRANCH   1  16
ATOM     16  C   LIG    1       -2.032  -0.287   1.358  0.00  0.00    +0.530 C 
ATOM     17  O   LIG    1       -2.226  -1.065   2.268  0.00  0.00    -0.520 OA
ATOM     18  N   LIG    1       -2.464   0.986   1.457  0.00  0.00    -0.840 N 
ATOM     19  H   LIG    1       -2.994   1.261   2.222  0.00  0.00    +0.410 HD
ATOM     20  H   LIG    1       -2.246   1.628   0.763  0.00  0.00    +0.400 HD
ENDBRANCH   1  16
TORSDOF 4
ENDMDL
MODEL      391
REMARK  Name = ZINC000002069062
REMARK                            x       y       z     vdW  Elec       q    Type
REMARK                         _______ _______ _______ _____ _____    ______ ____
ROOT
ATOM      1  C   LIG    1       -0.018   1.503   0.010  0.00  0.00    +0.110 C 
ATOM      2  C   LIG    1        0.002  -0.004   0.002  0.00  0.00    +0.540 C 
ATOM      3  N   LIG    1       -1.156  -0.694   0.009  0.00  0.00    -0.660 N 
ATOM      4  C   LIG    1       -2.504  -0.025   0.019  0.00  0.00    +0.560 C 
ATOM      5  N   LIG    1       -3.489  -0.730  -0.727  0.00  0.00    -0.500 N 
ATOM      6  C   LIG    1       -4.333  -1.734  -0.039  0.00  0.00    +0.350 C 
ATOM      7  C   LIG    1       -3.583  -2.993   0.094  0.00  0.00    +0.350 C 
ATOM      8  N   LIG    1       -2.292  -2.724   0.768  0.00  0.00    -0.500 N 
ATOM      9  C   LIG    1       -1.210  -2.198   0.002  0.00  0.00    +0.560 C 
ATOM     10  O   LIG    1        1.060  -0.596  -0.011  0.00  0.00    -0.520 OA
ENDROOT
BRANCH   8  11
ATOM     11  N   LIG    1       -2.138  -2.986   2.135  0.00  0.00    +0.210 N 
ATOM     12  O   LIG    1       -1.073  -2.763   2.682  0.00  0.00    -0.170 OA
ATOM     13  O   LIG    1       -3.069  -3.438   2.778  0.00  0.00    -0.180 OA
ENDBRANCH   8  11
BRANCH   5  14
ATOM     14  N   LIG    1       -3.658  -0.479  -2.095  0.00  0.00    +0.210 N 
ATOM     15  O   LIG    1       -4.504  -1.087  -2.726  0.00  0.00    -0.180 OA
ATOM     16  O   LIG    1       -2.959   0.348  -2.653  0.00  0.00    -0.180 OA
ENDBRANCH   5  14
TORSDOF 2
ENDMDL
MODEL      392
REMARK  Name = ZINC000004017415
REMARK                            x       y       z     vdW  Elec       q    Type
REMARK                         _______ _______ _______ _____ _____    ______ ____
ROOT
ATOM      1  C   LIG    1       -1.316  -0.727   0.111  0.00  0.00    +0.000 C 
ENDROOT
BRANCH   1   2
ATOM      2  C   LIG    1       -2.053  -0.258   1.367  0.00  0.00    +0.050 C 
ATOM      3  C   LIG    1       -2.442   1.223   1.216  0.00  0.00    +0.060 C 
ATOM      4  C   LIG    1       -3.454   1.533   2.349  0.00  0.00    -0.310 C 
ATOM      5  S   LIG    1       -4.534   0.052   2.336  0.00  0.00    +2.390 S 
ATOM      6  O   LIG    1       -5.624   0.272   1.452  0.00  0.00    -0.930 OA
ATOM      7  O   LIG    1       -4.779  -0.363   3.672  0.00  0.00    -0.930 OA
ATOM      8  C   LIG    1       -3.338  -1.088   1.554  0.00  0.00    -0.290 C 
ENDBRANCH   1   2
BRANCH   1  12
ATOM      9  N   LIG    1       -0.291   1.293  -0.883  0.00  0.00    -0.850 N 
ATOM     10  H   LIG    1       -1.142   1.479  -1.310  0.00  0.00    +0.400 HD
ATOM     11  H   LIG    1        0.450   1.910  -0.991  0.00  0.00    +0.410 HD
ATOM     12  C   LIG    1       -0.137   0.176  -0.146  0.00  0.00    +0.530 C 
ATOM     13  O   LIG    1        0.952  -0.104   0.310  0.00  0.00    -0.520 OA
ENDBRANCH   1  12
BRANCH   1  14
ATOM     14  C   LIG    1       -0.833  -2.140   0.309  0.00  0.00    +0.540 C 
ATOM     15  O   LIG    1       -1.056  -2.716   1.353  0.00  0.00    -0.520 OA
ATOM     16  N   LIG    1       -0.153  -2.765  -0.673  0.00  0.00    -0.850 N 
ATOM     17  H   LIG    1        0.157  -3.675  -0.545  0.00  0.00    +0.410 HD
ATOM     18  H   LIG    1        0.025  -2.304  -1.508  0.00  0.00    +0.400 HD
ENDBRANCH   1  14
TORSDOF 3
ENDMDL
MODEL      393
REMARK  Name = ZINC000029727374
REMARK                            x       y       z     vdW  Elec       q    Type
REMARK                         _______ _______ _______ _____ _____    ______ ____
ROOT
ATOM      1  C   LIG    1       -1.307  -0.742   0.118  0.00  0.00    +0.260 C 
ENDROOT
BRANCH   1   2
ATOM      2  N   LIG    1       -1.504  -2.183  -0.061  0.00  0.00    -0.710 N 
ATOM      3  H   LIG    1       -1.704  -2.744   0.704  0.00  0.00    +0.410 HD
ATOM      4  C   LIG    1       -1.409  -2.728  -1.290  0.00  0.00    +0.710 C 
ATOM      5  N   LIG    1       -1.591  -4.053  -1.455  0.00  0.00    -0.740 N 
ATOM      6  H   LIG    1       -1.790  -4.615  -0.690  0.00  0.00    +0.400 HD
ATOM      7  O   LIG    1       -1.159  -2.025  -2.250  0.00  0.00    -0.590 OA
BRANCH   5   8
ATOM      8  C   LIG    1       -1.487  -4.646  -2.791  0.00  0.00    +0.310 C 
BRANCH   8   9
ATOM      9  C   LIG    1       -1.735  -6.153  -2.701  0.00  0.00    -0.060 C 
ATOM     10  C   LIG    1       -2.958  -6.713  -3.429  0.00  0.00    +0.020 C 
ATOM     11  C   LIG    1       -1.554  -6.976  -3.978  0.00  0.00    +0.030 C 
ENDBRANCH   8   9
ENDBRANCH   5   8
ENDBRANCH   1   2
BRANCH   1  15
ATOM     12  N   LIG    1        0.651   0.753  -0.099  0.00  0.00    -0.850 N 
ATOM     13  H   LIG    1        0.070   1.404  -0.522  0.00  0.00    +0.400 HD
ATOM     14  H   LIG    1        1.583   0.968   0.063  0.00  0.00    +0.410 HD
ATOM     15  C   LIG    1        0.165  -0.451   0.261  0.00  0.00    +0.510 C 
ATOM     16  O   LIG    1        0.911  -1.300   0.699  0.00  0.00    -0.510 OA
ENDBRANCH   1  15
BRANCH   1  17
ATOM     17  C   LIG    1       -2.032  -0.287   1.358  0.00  0.00    +0.530 C 
ATOM     18  O   LIG    1       -2.226  -1.065   2.268  0.00  0.00    -0.520 OA
ATOM     19  N   LIG    1       -2.464   0.986   1.457  0.00  0.00    -0.840 N 
ATOM     20  H   LIG    1       -2.994   1.261   2.222  0.00  0.00    +0.410 HD
ATOM     21  H   LIG    1       -2.246   1.628   0.763  0.00  0.00    +0.400 HD
ENDBRANCH   1  17
TORSDOF 5
ENDMDL
MODEL      394
REMARK  Name = ZINC000029320733
REMARK                            x       y       z     vdW  Elec       q    Type
REMARK                         _______ _______ _______ _____ _____    ______ ____
ROOT
ATOM      1  C   LIG    1       -1.307  -0.742   0.118  0.00  0.00    +0.260 C 
ENDROOT
BRANCH   1   2
ATOM      2  N   LIG    1       -1.504  -2.183  -0.061  0.00  0.00    -0.720 N 
ATOM      3  H   LIG    1       -1.704  -2.744   0.704  0.00  0.00    +0.410 HD
ATOM      4  C   LIG    1       -1.409  -2.728  -1.290  0.00  0.00    +0.710 C 
ATOM      5  N   LIG    1       -1.591  -4.053  -1.455  0.00  0.00    -0.730 N 
ATOM      6  H   LIG    1       -1.790  -4.615  -0.690  0.00  0.00    +0.400 HD
ATOM      7  O   LIG    1       -1.159  -2.025  -2.250  0.00  0.00    -0.590 OA
BRANCH   5   8
ATOM      8  C   LIG    1       -1.487  -4.646  -2.791  0.00  0.00    +0.250 C 
ATOM      9  C   LIG    1       -0.023  -5.030  -3.087  0.00  0.00    +0.010 C 
ATOM     10  C   LIG    1        0.059  -6.531  -2.710  0.00  0.00    +0.010 C 
ATOM     11  C   LIG    1       -1.309  -7.078  -3.187  0.00  0.00    +0.010 C 
ATOM     12  C   LIG    1       -2.305  -5.948  -2.855  0.00  0.00    +0.020 C 
ENDBRANCH   5   8
ENDBRANCH   1   2
BRANCH   1  16
ATOM     13  N   LIG    1        0.651   0.753  -0.099  0.00  0.00    -0.850 N 
ATOM     14  H   LIG    1        0.070   1.404  -0.522  0.00  0.00    +0.400 HD
ATOM     15  H   LIG    1        1.583   0.968   0.063  0.00  0.00    +0.410 HD
ATOM     16  C   LIG    1        0.165  -0.451   0.261  0.00  0.00    +0.510 C 
ATOM     17  O   LIG    1        0.911  -1.300   0.699  0.00  0.00    -0.510 OA
ENDBRANCH   1  16
BRANCH   1  18
ATOM     18  C   LIG    1       -2.032  -0.287   1.358  0.00  0.00    +0.530 C 
ATOM     19  O   LIG    1       -2.226  -1.065   2.268  0.00  0.00    -0.520 OA
ATOM     20  N   LIG    1       -2.464   0.986   1.457  0.00  0.00    -0.840 N 
ATOM     21  H   LIG    1       -2.994   1.261   2.222  0.00  0.00    +0.410 HD
ATOM     22  H   LIG    1       -2.246   1.628   0.763  0.00  0.00    +0.400 HD
ENDBRANCH   1  18
TORSDOF 4
ENDMDL
MODEL      395
REMARK  Name = ZINC000024839338
REMARK                            x       y       z     vdW  Elec       q    Type
REMARK                         _______ _______ _______ _____ _____    ______ ____
ROOT
ATOM      1  C   LIG    1       -1.307  -0.742   0.118  0.00  0.00    +0.240 C 
ENDROOT
BRANCH   1   5
ATOM      2  N   LIG    1        0.651   0.753  -0.099  0.00  0.00    -0.850 N 
ATOM      3  H   LIG    1        0.070   1.404  -0.522  0.00  0.00    +0.400 HD
ATOM      4  H   LIG    1        1.583   0.968   0.063  0.00  0.00    +0.410 HD
ATOM      5  C   LIG    1        0.165  -0.451   0.261  0.00  0.00    +0.510 C 
ATOM      6  O   LIG    1        0.911  -1.300   0.699  0.00  0.00    -0.510 OA
ENDBRANCH   1   5
BRANCH   1   7
ATOM      7  C   LIG    1       -2.032  -0.287   1.358  0.00  0.00    +0.530 C 
ATOM      8  O   LIG    1       -2.226  -1.065   2.268  0.00  0.00    -0.510 OA
ATOM      9  N   LIG    1       -2.464   0.986   1.457  0.00  0.00    -0.840 N 
ATOM     10  H   LIG    1       -2.994   1.261   2.222  0.00  0.00    +0.410 HD
ATOM     11  H   LIG    1       -2.246   1.628   0.763  0.00  0.00    +0.400 HD
ENDBRANCH   1   7
BRANCH   1  12
ATOM     12  N   LIG    1       -1.504  -2.183  -0.061  0.00  0.00    -0.700 N 
ATOM     13  H   LIG    1       -1.704  -2.744   0.704  0.00  0.00    +0.420 HD
ATOM     14  C   LIG    1       -1.409  -2.728  -1.290  0.00  0.00    +0.520 C 
ATOM     15  O   LIG    1       -1.160  -2.026  -2.247  0.00  0.00    -0.530 OA
BRANCH  14  16
ATOM     16  C   LIG    1       -1.612  -4.210  -1.475  0.00  0.00    +0.070 C 
BRANCH  16  17
ATOM     17  C   LIG    1       -1.451  -4.566  -2.954  0.00  0.00    +0.040 C 
ATOM     18  C   LIG    1       -2.584  -3.980  -3.763  0.00  0.00    -0.030 C 
ATOM     19  C   LIG    1       -3.056  -4.851  -4.613  0.00  0.00    -0.050 C 
ATOM     20  C   LIG    1       -2.316  -6.165  -4.511  0.00  0.00    +0.040 C 
ATOM     21  C   LIG    1       -1.571  -6.095  -3.156  0.00  0.00    +0.030 C 
ENDBRANCH  16  17
ENDBRANCH  14  16
ENDBRANCH   1  12
TORSDOF 5
ENDMDL
MODEL      396
REMARK  Name = ZINC000004017414
REMARK                            x       y       z     vdW  Elec       q    Type
REMARK                         _______ _______ _______ _____ _____    ______ ____
ROOT
ATOM      1  C   LIG    1       -1.293  -0.775   0.010  0.00  0.00    +0.010 C 
ENDROOT
BRANCH   1   2
ATOM      2  C   LIG    1       -2.088  -0.423   1.269  0.00  0.00    +0.050 C 
ATOM      3  C   LIG    1       -3.436  -1.165   1.265  0.00  0.00    +0.090 C 
ATOM      4  C   LIG    1       -4.345  -0.543   2.344  0.00  0.00    -0.310 C 
ATOM      5  S   LIG    1       -3.787   1.192   2.495  0.00  0.00    +2.390 S 
ATOM      6  O   LIG    1       -3.256   1.404   3.796  0.00  0.00    -0.930 OA
ATOM      7  O   LIG    1       -4.796   2.057   1.993  0.00  0.00    -0.930 OA
ATOM      8  C   LIG    1       -2.414   1.093   1.285  0.00  0.00    -0.320 C 
ENDBRANCH   1   2
BRANCH   1  12
ATOM      9  N   LIG    1       -0.016   1.344   0.009  0.00  0.00    -0.850 N 
ATOM     10  H   LIG    1       -0.863   1.817   0.016  0.00  0.00    +0.410 HD
ATOM     11  H   LIG    1        0.817   1.840   0.004  0.00  0.00    +0.410 HD
ATOM     12  C   LIG    1        0.002  -0.004   0.002  0.00  0.00    +0.530 C 
ATOM     13  O   LIG    1        1.060  -0.596  -0.011  0.00  0.00    -0.530 OA
ENDBRANCH   1  12
BRANCH   1  14
ATOM     14  C   LIG    1       -0.997  -2.253  -0.001  0.00  0.00    +0.540 C 
ATOM     15  O   LIG    1       -1.385  -2.955   0.909  0.00  0.00    -0.530 OA
ATOM     16  N   LIG    1       -0.302  -2.794  -1.021  0.00  0.00    -0.840 N 
ATOM     17  H   LIG    1       -0.112  -3.745  -1.028  0.00  0.00    +0.410 HD
ATOM     18  H   LIG    1        0.007  -2.232  -1.748  0.00  0.00    +0.400 HD
ENDBRANCH   1  14
TORSDOF 3
ENDMDL
MODEL      397
REMARK  Name = ZINC000022877587
REMARK                            x       y       z     vdW  Elec       q    Type
REMARK                         _______ _______ _______ _____ _____    ______ ____
ROOT
ATOM      1  C   LIG    1       -1.307  -0.742   0.118  0.00  0.00    +0.250 C 
ENDROOT
BRANCH   1   5
ATOM      2  N   LIG    1        0.651   0.753  -0.099  0.00  0.00    -0.850 N 
ATOM      3  H   LIG    1        0.070   1.404  -0.522  0.00  0.00    +0.400 HD
ATOM      4  H   LIG    1        1.583   0.968   0.063  0.00  0.00    +0.410 HD
ATOM      5  C   LIG    1        0.165  -0.451   0.261  0.00  0.00    +0.510 C 
ATOM      6  O   LIG    1        0.911  -1.300   0.699  0.00  0.00    -0.510 OA
ENDBRANCH   1   5
BRANCH   1   7
ATOM      7  C   LIG    1       -2.032  -0.287   1.358  0.00  0.00    +0.530 C 
ATOM      8  O   LIG    1       -2.226  -1.065   2.268  0.00  0.00    -0.520 OA
ATOM      9  N   LIG    1       -2.464   0.986   1.457  0.00  0.00    -0.840 N 
ATOM     10  H   LIG    1       -2.994   1.261   2.222  0.00  0.00    +0.410 HD
ATOM     11  H   LIG    1       -2.246   1.628   0.763  0.00  0.00    +0.410 HD
ENDBRANCH   1   7
BRANCH   1  12
ATOM     12  N   LIG    1       -1.504  -2.183  -0.061  0.00  0.00    -0.700 N 
ATOM     13  H   LIG    1       -1.704  -2.744   0.704  0.00  0.00    +0.420 HD
ATOM     14  C   LIG    1       -1.409  -2.728  -1.290  0.00  0.00    +0.600 C 
ATOM     15  O   LIG    1       -1.159  -2.024  -2.250  0.00  0.00    -0.530 OA
BRANCH  14  16
ATOM     16  C   LIG    1       -1.608  -4.177  -1.471  0.00  0.00    -0.240 A 
ATOM     17  C   LIG    1       -1.898  -5.096  -0.505  0.00  0.00    +0.240 A 
ATOM     18  O   LIG    1       -1.998  -6.298  -1.083  0.00  0.00    -0.170 OA
ATOM     19  C   LIG    1       -1.783  -6.213  -2.405  0.00  0.00    +0.170 A 
ATOM     20  C   LIG    1       -1.541  -4.933  -2.730  0.00  0.00    +0.000 A 
ENDBRANCH  14  16
ENDBRANCH   1  12
TORSDOF 4
ENDMDL
MODEL      398
REMARK  Name = ZINC000000506677
REMARK                            x       y       z     vdW  Elec       q    Type
REMARK                         _______ _______ _______ _____ _____    ______ ____
ROOT
ATOM      1  C   LIG    1       -1.311  -0.725   0.113  0.00  0.00    -0.010 C 
ENDROOT
BRANCH   1   5
ATOM      2  N   LIG    1        0.842   0.474  -0.100  0.00  0.00    -0.850 N 
ATOM      3  H   LIG    1        0.384   1.143  -0.633  0.00  0.00    +0.400 HD
ATOM      4  H   LIG    1        1.781   0.586   0.116  0.00  0.00    +0.410 HD
ATOM      5  C   LIG    1        0.175  -0.613   0.337  0.00  0.00    +0.530 C 
ATOM      6  O   LIG    1        0.771  -1.500   0.910  0.00  0.00    -0.520 OA
ENDBRANCH   1   5
BRANCH   1   7
ATOM      7  C   LIG    1       -2.042  -0.265   1.348  0.00  0.00    +0.530 C 
ATOM      8  O   LIG    1       -2.254  -1.044   2.253  0.00  0.00    -0.520 OA
ATOM      9  N   LIG    1       -2.459   1.013   1.447  0.00  0.00    -0.850 N 
ATOM     10  H   LIG    1       -2.989   1.292   2.210  0.00  0.00    +0.410 HD
ATOM     11  H   LIG    1       -2.229   1.653   0.756  0.00  0.00    +0.400 HD
ENDBRANCH   1   7
BRANCH   1  12
ATOM     12  C   LIG    1       -1.674  -2.182  -0.181  0.00  0.00    +0.110 C 
BRANCH  12  13
ATOM     13  C   LIG    1       -1.031  -2.611  -1.502  0.00  0.00    +0.120 C 
ATOM     14  C   LIG    1       -1.292  -4.102  -1.737  0.00  0.00    +0.200 C 
ATOM     15  O   LIG    1       -0.786  -4.470  -3.024  0.00  0.00    -0.380 OA
ATOM     16  C   LIG    1       -1.357  -3.718  -4.099  0.00  0.00    +0.190 C 
ATOM     17  C   LIG    1       -1.096  -2.227  -3.864  0.00  0.00    +0.200 C 
ATOM     18  O   LIG    1       -1.601  -1.859  -2.577  0.00  0.00    -0.380 OA
ENDBRANCH  12  13
ENDBRANCH   1  12
TORSDOF 4
ENDMDL
MODEL      399
REMARK  Name = ZINC000024839333
REMARK                            x       y       z     vdW  Elec       q    Type
REMARK                         _______ _______ _______ _____ _____    ______ ____
ROOT
ATOM      1  C   LIG    1       -1.307  -0.742   0.118  0.00  0.00    +0.240 C 
ENDROOT
BRANCH   1   5
ATOM      2  N   LIG    1        0.651   0.753  -0.099  0.00  0.00    -0.850 N 
ATOM      3  H   LIG    1        0.070   1.404  -0.522  0.00  0.00    +0.400 HD
ATOM      4  H   LIG    1        1.583   0.968   0.063  0.00  0.00    +0.410 HD
ATOM      5  C   LIG    1        0.165  -0.451   0.261  0.00  0.00    +0.510 C 
ATOM      6  O   LIG    1        0.911  -1.300   0.699  0.00  0.00    -0.510 OA
ENDBRANCH   1   5
BRANCH   1   7
ATOM      7  C   LIG    1       -2.032  -0.287   1.358  0.00  0.00    +0.530 C 
ATOM      8  O   LIG    1       -2.226  -1.065   2.268  0.00  0.00    -0.510 OA
ATOM      9  N   LIG    1       -2.464   0.986   1.457  0.00  0.00    -0.840 N 
ATOM     10  H   LIG    1       -2.994   1.261   2.222  0.00  0.00    +0.410 HD
ATOM     11  H   LIG    1       -2.246   1.628   0.763  0.00  0.00    +0.400 HD
ENDBRANCH   1   7
BRANCH   1  12
ATOM     12  N   LIG    1       -1.504  -2.183  -0.061  0.00  0.00    -0.700 N 
ATOM     13  H   LIG    1       -1.704  -2.744   0.704  0.00  0.00    +0.420 HD
ATOM     14  C   LIG    1       -1.409  -2.728  -1.290  0.00  0.00    +0.520 C 
ATOM     15  O   LIG    1       -1.160  -2.026  -2.247  0.00  0.00    -0.530 OA
BRANCH  14  16
ATOM     16  C   LIG    1       -1.612  -4.210  -1.475  0.00  0.00    +0.070 C 
BRANCH  16  17
ATOM     17  C   LIG    1       -1.451  -4.566  -2.954  0.00  0.00    +0.040 C 
ATOM     18  C   LIG    1       -0.016  -4.379  -3.387  0.00  0.00    -0.030 C 
ATOM     19  C   LIG    1        0.394  -5.387  -4.107  0.00  0.00    -0.060 C 
ATOM     20  C   LIG    1       -0.700  -6.416  -4.274  0.00  0.00    +0.040 C 
ATOM     21  C   LIG    1       -1.739  -6.069  -3.181  0.00  0.00    +0.030 C 
ENDBRANCH  16  17
ENDBRANCH  14  16
ENDBRANCH   1  12
TORSDOF 5
ENDMDL
MODEL      400
REMARK  Name = ZINC000000506678
REMARK                            x       y       z     vdW  Elec       q    Type
REMARK                         _______ _______ _______ _____ _____    ______ ____
ROOT
ATOM      1  C   LIG    1       -1.209  -0.671   0.147  0.00  0.00    -0.020 C 
ENDROOT
BRANCH   1   5
ATOM      2  N   LIG    1        1.232  -0.291   0.005  0.00  0.00    -0.850 N 
ATOM      3  H   LIG    1        1.060   0.360  -0.692  0.00  0.00    +0.400 HD
ATOM      4  H   LIG    1        2.139  -0.444   0.314  0.00  0.00    +0.400 HD
ATOM      5  C   LIG    1        0.211  -0.988   0.543  0.00  0.00    +0.540 C 
ATOM      6  O   LIG    1        0.434  -1.869   1.346  0.00  0.00    -0.520 OA
ENDBRANCH   1   5
BRANCH   1   7
ATOM      7  C   LIG    1       -1.994  -0.273   1.369  0.00  0.00    +0.530 C 
ATOM      8  O   LIG    1       -2.517  -1.123   2.059  0.00  0.00    -0.520 OA
ATOM      9  N   LIG    1       -2.117   1.029   1.697  0.00  0.00    -0.850 N 
ATOM     10  H   LIG    1       -2.559   1.282   2.522  0.00  0.00    +0.410 HD
ATOM     11  H   LIG    1       -1.763   1.713   1.107  0.00  0.00    +0.400 HD
ENDBRANCH   1   7
BRANCH   1  12
ATOM     12  C   LIG    1       -1.848  -1.907  -0.489  0.00  0.00    +0.110 C 
BRANCH  12  13
ATOM     13  C   LIG    1       -1.142  -2.224  -1.809  0.00  0.00    +0.120 C 
ATOM     14  C   LIG    1       -1.849  -3.393  -2.500  0.00  0.00    +0.210 C 
ATOM     15  O   LIG    1       -1.118  -3.756  -3.676  0.00  0.00    -0.380 OA
ATOM     16  C   LIG    1        0.241  -4.117  -3.416  0.00  0.00    +0.190 C 
ATOM     17  C   LIG    1        0.949  -2.948  -2.724  0.00  0.00    +0.200 C 
ATOM     18  O   LIG    1        0.218  -2.584  -1.549  0.00  0.00    -0.370 OA
ENDBRANCH  12  13
ENDBRANCH   1  12
TORSDOF 4
ENDMDL
MODEL      401
REMARK  Name = ZINC000022877538
REMARK                            x       y       z     vdW  Elec       q    Type
REMARK                         _______ _______ _______ _____ _____    ______ ____
ROOT
ATOM      1  N   LIG    1       -1.504  -2.183  -0.061  0.00  0.00    -0.680 N 
ATOM      2  H   LIG    1       -1.704  -2.744   0.704  0.00  0.00    +0.430 HD
ATOM      3  C   LIG    1       -1.409  -2.728  -1.290  0.00  0.00    +0.600 C 
ATOM      4  O   LIG    1       -1.159  -2.025  -2.250  0.00  0.00    -0.520 OA
ENDROOT
BRANCH   3   5
ATOM      5  C   LIG    1       -1.609  -4.182  -1.471  0.00  0.00    +0.020 A 
ATOM      6  N   LIG    1       -1.884  -4.940  -0.434  0.00  0.00    -0.170 NA
ATOM      7  N   LIG    1       -2.065  -6.207  -0.539  0.00  0.00    -0.430 N 
ATOM      8  H   LIG    1       -2.266  -6.722   0.258  0.00  0.00    +0.450 HD
ATOM      9  C   LIG    1       -1.984  -6.839  -1.724  0.00  0.00    +0.480 A 
ATOM     10  C   LIG    1       -1.692  -6.097  -2.891  0.00  0.00    -0.010 A 
ATOM     11  O   LIG    1       -2.163  -8.044  -1.791  0.00  0.00    -0.520 OA
ATOM     12  C   LIG    1       -1.508  -4.753  -2.763  0.00  0.00    +0.140 A 
ENDBRANCH   3   5
BRANCH   1  13
ATOM     13  C   LIG    1       -1.307  -0.742   0.118  0.00  0.00    +0.250 C 
BRANCH  13  17
ATOM     14  N   LIG    1        0.651   0.753  -0.099  0.00  0.00    -0.850 N 
ATOM     15  H   LIG    1        0.070   1.404  -0.522  0.00  0.00    +0.400 HD
ATOM     16  H   LIG    1        1.583   0.968   0.063  0.00  0.00    +0.410 HD
ATOM     17  C   LIG    1        0.165  -0.451   0.261  0.00  0.00    +0.510 C 
ATOM     18  O   LIG    1        0.911  -1.300   0.699  0.00  0.00    -0.510 OA
ENDBRANCH  13  17
BRANCH  13  19
ATOM     19  C   LIG    1       -2.032  -0.287   1.358  0.00  0.00    +0.530 C 
ATOM     20  O   LIG    1       -2.226  -1.065   2.268  0.00  0.00    -0.510 OA
ATOM     21  N   LIG    1       -2.464   0.986   1.457  0.00  0.00    -0.840 N 
ATOM     22  H   LIG    1       -2.994   1.261   2.222  0.00  0.00    +0.410 HD
ATOM     23  H   LIG    1       -2.246   1.628   0.763  0.00  0.00    +0.400 HD
ENDBRANCH  13  19
ENDBRANCH   1  13
TORSDOF 4
ENDMDL
MODEL      402
REMARK  Name = ZINC000024831754
REMARK                            x       y       z     vdW  Elec       q    Type
REMARK                         _______ _______ _______ _____ _____    ______ ____
ROOT
ATOM      1  C   LIG    1       -1.307  -0.742   0.118  0.00  0.00    +0.240 C 
ENDROOT
BRANCH   1   5
ATOM      2  N   LIG    1        0.651   0.753  -0.099  0.00  0.00    -0.850 N 
ATOM      3  H   LIG    1        0.070   1.404  -0.522  0.00  0.00    +0.400 HD
ATOM      4  H   LIG    1        1.583   0.968   0.063  0.00  0.00    +0.410 HD
ATOM      5  C   LIG    1        0.165  -0.451   0.261  0.00  0.00    +0.510 C 
ATOM      6  O   LIG    1        0.911  -1.300   0.699  0.00  0.00    -0.510 OA
ENDBRANCH   1   5
BRANCH   1   7
ATOM      7  C   LIG    1       -2.032  -0.287   1.358  0.00  0.00    +0.530 C 
ATOM      8  O   LIG    1       -2.226  -1.065   2.268  0.00  0.00    -0.510 OA
ATOM      9  N   LIG    1       -2.464   0.986   1.457  0.00  0.00    -0.840 N 
ATOM     10  H   LIG    1       -2.994   1.261   2.222  0.00  0.00    +0.410 HD
ATOM     11  H   LIG    1       -2.246   1.628   0.763  0.00  0.00    +0.400 HD
ENDBRANCH   1   7
BRANCH   1  12
ATOM     12  N   LIG    1       -1.504  -2.183  -0.061  0.00  0.00    -0.700 N 
ATOM     13  H   LIG    1       -1.704  -2.744   0.704  0.00  0.00    +0.420 HD
ATOM     14  C   LIG    1       -1.409  -2.728  -1.290  0.00  0.00    +0.520 C 
ATOM     15  O   LIG    1       -1.160  -2.026  -2.247  0.00  0.00    -0.530 OA
BRANCH  14  16
ATOM     16  C   LIG    1       -1.612  -4.210  -1.475  0.00  0.00    +0.140 C 
BRANCH  16  17
ATOM     17  C   LIG    1       -1.453  -4.561  -2.932  0.00  0.00    -0.090 A 
ATOM     18  C   LIG    1       -2.477  -4.552  -3.788  0.00  0.00    -0.040 A 
ATOM     19  S   LIG    1       -1.911  -5.013  -5.388  0.00  0.00    +0.100 S 
ATOM     20  C   LIG    1       -0.268  -5.198  -4.787  0.00  0.00    -0.050 A 
ATOM     21  C   LIG    1       -0.234  -4.912  -3.484  0.00  0.00    +0.020 A 
ENDBRANCH  16  17
ENDBRANCH  14  16
ENDBRANCH   1  12
TORSDOF 5
ENDMDL
MODEL      403
REMARK  Name = ZINC000005566552
REMARK                            x       y       z     vdW  Elec       q    Type
REMARK                         _______ _______ _______ _____ _____    ______ ____
ROOT
ATOM      1  C   LIG    1       -1.310  -0.661  -0.019  0.00  0.00    -0.290 C 
ATOM      2  C   LIG    1       -1.388  -2.035   0.035  0.00  0.00    +0.460 C 
ENDROOT
BRANCH   2   3
ATOM      3  N   LIG    1       -0.255  -2.776   0.182  0.00  0.00    -0.510 N 
ATOM      4  C   LIG    1        1.106  -2.265   0.421  0.00  0.00    +0.320 C 
ATOM      5  C   LIG    1        1.949  -3.522   0.501  0.00  0.00    +0.520 C 
ATOM      6  N   LIG    1        1.093  -4.547   0.320  0.00  0.00    -0.630 N 
ATOM      7  H   LIG    1        1.354  -5.481   0.320  0.00  0.00    +0.450 HD
ATOM      8  O   LIG    1        3.145  -3.590   0.689  0.00  0.00    -0.430 OA
ATOM      9  C   LIG    1       -0.161  -4.117   0.144  0.00  0.00    +0.510 C 
ATOM     10  S   LIG    1       -1.497  -5.157  -0.113  0.00  0.00    -0.460 S 
ENDBRANCH   2   3
BRANCH   1  14
ATOM     11  N   LIG    1        0.645   0.147  -1.236  0.00  0.00    -0.850 N 
ATOM     12  H   LIG    1        0.279  -0.249  -2.042  0.00  0.00    +0.410 HD
ATOM     13  H   LIG    1        1.476   0.646  -1.274  0.00  0.00    +0.410 HD
ATOM     14  C   LIG    1        0.002  -0.001  -0.060  0.00  0.00    +0.560 C 
ATOM     15  O   LIG    1        0.508   0.412   0.966  0.00  0.00    -0.520 OA
ENDBRANCH   1  14
BRANCH   1  16
ATOM     16  C   LIG    1       -2.538   0.144  -0.034  0.00  0.00    +0.590 C 
ATOM     17  O   LIG    1       -3.624  -0.403  -0.093  0.00  0.00    -0.530 OA
ATOM     18  N   LIG    1       -2.464   1.489   0.016  0.00  0.00    -0.840 N 
ATOM     19  H   LIG    1       -3.274   2.018   0.080  0.00  0.00    +0.410 HD
ATOM     20  H   LIG    1       -1.599   1.928  -0.011  0.00  0.00    +0.400 HD
ENDBRANCH   1  16
TORSDOF 3
ENDMDL
MODEL      404
REMARK  Name = ZINC000023881008
REMARK                            x       y       z     vdW  Elec       q    Type
REMARK                         _______ _______ _______ _____ _____    ______ ____
ROOT
ATOM      1  C   LIG    1       -1.307  -0.742   0.118  0.00  0.00    +0.250 C 
ENDROOT
BRANCH   1   5
ATOM      2  N   LIG    1        0.651   0.753  -0.099  0.00  0.00    -0.850 N 
ATOM      3  H   LIG    1        0.070   1.405  -0.522  0.00  0.00    +0.400 HD
ATOM      4  H   LIG    1        1.583   0.968   0.062  0.00  0.00    +0.410 HD
ATOM      5  C   LIG    1        0.165  -0.451   0.261  0.00  0.00    +0.510 C 
ATOM      6  O   LIG    1        0.911  -1.300   0.699  0.00  0.00    -0.510 OA
ENDBRANCH   1   5
BRANCH   1   7
ATOM      7  C   LIG    1       -2.032  -0.287   1.358  0.00  0.00    +0.530 C 
ATOM      8  O   LIG    1       -2.226  -1.065   2.268  0.00  0.00    -0.510 OA
ATOM      9  N   LIG    1       -2.464   0.986   1.457  0.00  0.00    -0.840 N 
ATOM     10  H   LIG    1       -2.994   1.261   2.222  0.00  0.00    +0.410 HD
ATOM     11  H   LIG    1       -2.246   1.628   0.763  0.00  0.00    +0.410 HD
ENDBRANCH   1   7
BRANCH   1  12
ATOM     12  N   LIG    1       -1.504  -2.183  -0.061  0.00  0.00    -0.690 N 
ATOM     13  H   LIG    1       -1.704  -2.744   0.704  0.00  0.00    +0.420 HD
ATOM     14  C   LIG    1       -1.409  -2.728  -1.290  0.00  0.00    +0.570 C 
ATOM     15  O   LIG    1       -1.159  -2.025  -2.249  0.00  0.00    -0.530 OA
BRANCH  14  16
ATOM     16  C   LIG    1       -1.608  -4.182  -1.471  0.00  0.00    -0.110 A 
ATOM     17  C   LIG    1       -1.901  -4.991  -0.373  0.00  0.00    +0.050 A 
ATOM     18  C   LIG    1       -2.086  -6.348  -0.547  0.00  0.00    +0.050 A 
ATOM     19  C   LIG    1       -1.982  -6.907  -1.808  0.00  0.00    +0.020 A 
ATOM     20  C   LIG    1       -1.691  -6.110  -2.904  0.00  0.00    +0.090 A 
ATOM     21  F   LIG    1       -1.591  -6.663  -4.132  0.00  0.00    -0.130 F 
ATOM     22  C   LIG    1       -1.510  -4.750  -2.743  0.00  0.00    +0.060 A 
ENDBRANCH  14  16
ENDBRANCH   1  12
TORSDOF 4
ENDMDL
MODEL      405
REMARK  Name = ZINC000019831212
REMARK                            x       y       z     vdW  Elec       q    Type
REMARK                         _______ _______ _______ _____ _____    ______ ____
ROOT
ATOM      1  C   LIG    1       -1.282  -0.769   0.010  0.00  0.00    +0.510 C 
ATOM      2  N   LIG    1       -1.264  -2.116   0.003  0.00  0.00    -0.700 N 
ATOM      3  H   LIG    1       -0.417  -2.590  -0.008  0.00  0.00    +0.410 HD
ATOM      4  O   LIG    1       -2.341  -0.176   0.024  0.00  0.00    -0.520 OA
ENDROOT
BRANCH   1   8
ATOM      5  N   LIG    1       -0.016   1.344   0.009  0.00  0.00    -0.820 N 
ATOM      6  H   LIG    1       -0.863   1.817   0.016  0.00  0.00    +0.420 HD
ATOM      7  H   LIG    1        0.817   1.840   0.004  0.00  0.00    +0.410 HD
ATOM      8  C   LIG    1        0.002  -0.004   0.002  0.00  0.00    +0.510 C 
ATOM      9  O   LIG    1        1.061  -0.596  -0.011  0.00  0.00    -0.520 OA
ENDBRANCH   1   8
BRANCH   2  10
ATOM     10  C   LIG    1       -2.522  -2.866   0.011  0.00  0.00    +0.270 C 
BRANCH  10  11
ATOM     11  C   LIG    1       -2.222  -4.366  -0.000  0.00  0.00    +0.020 C 
BRANCH  11  12
ATOM     12  C   LIG    1       -3.537  -5.149   0.008  0.00  0.00    +0.180 C 
BRANCH  12  13
ATOM     13  N   LIG    1       -3.249  -6.590  -0.002  0.00  0.00    -0.540 NA
ATOM     14  C   LIG    1       -2.226  -6.915  -1.007  0.00  0.00    +0.140 C 
ATOM     15  C   LIG    1       -1.914  -8.413  -0.943  0.00  0.00    +0.220 C 
ATOM     16  O   LIG    1       -3.121  -9.155  -1.139  0.00  0.00    -0.390 OA
ATOM     17  C   LIG    1       -4.138  -8.863  -0.177  0.00  0.00    +0.220 C 
ATOM     18  C   LIG    1       -4.473  -7.370  -0.233  0.00  0.00    +0.150 C 
ENDBRANCH  12  13
ENDBRANCH  11  12
ENDBRANCH  10  11
ENDBRANCH   2  10
TORSDOF 5
ENDMDL
MODEL      406
REMARK  Name = ZINC000080578655
REMARK                            x       y       z     vdW  Elec       q    Type
REMARK                         _______ _______ _______ _____ _____    ______ ____
ROOT
ATOM      1  O   LIG    1        0.002  -0.004   0.002  0.00  0.00    -0.540 OA
ATOM      2  C   LIG    1       -0.014   1.212   0.009  0.00  0.00    +0.590 C 
ATOM      3  N   LIG    1        1.143   1.901   0.001  0.00  0.00    -0.710 N 
ATOM      4  H   LIG    1        1.130   2.871   0.007  0.00  0.00    +0.410 HD
ENDROOT
BRANCH   2   5
ATOM      5  C   LIG    1       -1.302   1.932   0.019  0.00  0.00    -0.090 A 
ATOM      6  C   LIG    1       -2.485   1.220   0.026  0.00  0.00    +0.380 A 
ATOM      7  N   LIG    1       -3.665   1.874   0.035  0.00  0.00    -0.590 N 
ATOM      8  H   LIG    1       -4.499   1.379   0.040  0.00  0.00    +0.430 HD
ATOM      9  C   LIG    1       -3.674   3.224   0.037  0.00  0.00    +0.480 A 
ATOM     10  C   LIG    1       -2.444   3.929   0.029  0.00  0.00    +0.250 A 
ATOM     11  O   LIG    1       -4.730   3.831   0.046  0.00  0.00    -0.510 OA
ATOM     12  N   LIG    1       -1.314   3.274   0.026  0.00  0.00    -0.380 NA
ENDBRANCH   2   5
BRANCH   3  13
ATOM     13  C   LIG    1        2.422   1.186  -0.015  0.00  0.00    +0.290 C 
BRANCH  13  14
ATOM     14  C   LIG    1        3.571   2.196  -0.020  0.00  0.00    +0.160 C 
BRANCH  14  15
ATOM     15  C   LIG    1        4.886   1.461  -0.037  0.00  0.00    +0.180 A 
ATOM     16  N   LIG    1        5.273   0.548   0.813  0.00  0.00    -0.280 NA
ATOM     17  N   LIG    1        6.449   0.134   0.498  0.00  0.00    -0.290 NA
ATOM     18  C   LIG    1        6.866   0.763  -0.567  0.00  0.00    +0.380 A 
ATOM     19  N   LIG    1        5.884   1.620  -0.939  0.00  0.00    -0.580 N 
ATOM     20  H   LIG    1        5.896   2.227  -1.696  0.00  0.00    +0.430 HD
ENDBRANCH  14  15
ENDBRANCH  13  14
ENDBRANCH   3  13
TORSDOF 4
ENDMDL
MODEL      407
REMARK  Name = ZINC000252642545
REMARK                            x       y       z     vdW  Elec       q    Type
REMARK                         _______ _______ _______ _____ _____    ______ ____
ROOT
ATOM      1  C   LIG    1        0.880  -0.358  -1.545  0.00  0.00    -0.900 C 
ATOM      2  C   LIG    1        1.140  -1.877  -1.802  0.00  0.00    +0.240 C 
ATOM      3  O   LIG    1        0.372  -2.344  -2.921  0.00  0.00    -0.340 OA
ATOM      4  C   LIG    1        1.227  -2.603  -4.044  0.00  0.00    +0.230 C 
ATOM      5  C   LIG    1        2.501  -1.758  -3.791  0.00  0.00    +0.080 C 
ATOM      6  C   LIG    1        2.635  -1.897  -2.277  0.00  0.00    -0.370 C 
ATOM      7  S   LIG    1        2.702  -0.285  -1.408  0.00  0.00    +2.410 S 
ATOM      8  O   LIG    1        3.098  -0.446  -0.053  0.00  0.00    -0.860 OA
ATOM      9  O   LIG    1        3.271   0.723  -2.233  0.00  0.00    -0.890 OA
ENDROOT
BRANCH   1  11
ATOM     10  C   LIG    1       -0.022   1.810   0.012  0.00  0.00    -0.240 C 
ATOM     11  S   LIG    1        0.002  -0.004   0.002  0.00  0.00    +2.450 S 
ATOM     12  O   LIG    1       -1.334  -0.474  -0.117  0.00  0.00    -0.910 OA
ATOM     13  O   LIG    1        0.801  -0.452   1.088  0.00  0.00    -0.890 OA
ENDBRANCH   1  11
TORSDOF 1
ENDMDL
MODEL      408
REMARK  Name = ZINC000223481733
REMARK                            x       y       z     vdW  Elec       q    Type
REMARK                         _______ _______ _______ _____ _____    ______ ____
ROOT
ATOM      1  C   LIG    1       -2.446  -0.291   0.654  0.00  0.00    +0.560 C 
ATOM      2  N   LIG    1       -2.713   1.028   0.579  0.00  0.00    -0.710 N 
ATOM      3  H   LIG    1       -2.092   1.625   0.134  0.00  0.00    +0.410 HD
ATOM      4  O   LIG    1       -3.176  -1.022   1.289  0.00  0.00    -0.530 OA
ENDROOT
BRANCH   2   5
ATOM      5  C   LIG    1       -3.943   1.561   1.171  0.00  0.00    +0.250 C 
ATOM      6  C   LIG    1       -5.094   1.425   0.169  0.00  0.00    -0.000 C 
ATOM      7  C   LIG    1       -6.356   2.055   0.765  0.00  0.00    +0.220 C 
ATOM      8  O   LIG    1       -6.097   3.423   1.086  0.00  0.00    -0.370 OA
ATOM      9  C   LIG    1       -5.062   3.610   2.054  0.00  0.00    +0.190 C 
ATOM     10  C   LIG    1       -3.748   3.042   1.512  0.00  0.00    +0.130 C 
BRANCH  10  11
ATOM     11  O   LIG    1       -2.726   3.177   2.501  0.00  0.00    -0.550 OA
ATOM     12  H   LIG    1       -2.553   4.090   2.766  0.00  0.00    +0.380 HD
ENDBRANCH  10  11
ENDBRANCH   2   5
BRANCH   1  13
ATOM     13  C   LIG    1       -1.240  -0.856  -0.050  0.00  0.00    -0.200 C 
ATOM     14  C   LIG    1       -1.357  -1.119  -1.553  0.00  0.00    +0.090 C 
ATOM     15  C   LIG    1       -1.335  -2.292  -0.571  0.00  0.00    +0.100 C 
BRANCH  13  19
ATOM     16  N   LIG    1        0.711  -1.082   1.454  0.00  0.00    -0.840 N 
ATOM     17  H   LIG    1        0.261  -1.831   1.877  0.00  0.00    +0.410 HD
ATOM     18  H   LIG    1        1.602  -0.828   1.741  0.00  0.00    +0.410 HD
ATOM     19  C   LIG    1        0.095  -0.393   0.473  0.00  0.00    +0.560 C 
ATOM     20  O   LIG    1        0.616   0.601   0.012  0.00  0.00    -0.530 OA
ENDBRANCH  13  19
ENDBRANCH   1  13
TORSDOF 4
ENDMDL
MODEL      409
REMARK  Name = ZINC000019831213
REMARK                            x       y       z     vdW  Elec       q    Type
REMARK                         _______ _______ _______ _____ _____    ______ ____
ROOT
ATOM      1  C   LIG    1        0.605  -2.159  -1.026  0.00  0.00    +0.510 C 
ATOM      2  N   LIG    1        1.188  -2.819  -2.046  0.00  0.00    -0.700 N 
ATOM      3  H   LIG    1        1.595  -2.325  -2.775  0.00  0.00    +0.410 HD
ATOM      4  O   LIG    1        0.097  -2.778  -0.115  0.00  0.00    -0.520 OA
ENDROOT
BRANCH   1   8
ATOM      5  C   LIG    1       -0.018   1.461   0.010  0.00  0.00    +0.300 C 
ATOM      6  N   LIG    1        0.002  -0.004   0.002  0.00  0.00    -0.700 N 
ATOM      7  H   LIG    1       -0.404  -0.499   0.731  0.00  0.00    +0.420 HD
ATOM      8  C   LIG    1        0.585  -0.664  -1.018  0.00  0.00    +0.510 C 
ATOM      9  O   LIG    1        1.093  -0.046  -1.930  0.00  0.00    -0.520 OA
ENDBRANCH   1   8
BRANCH   2  10
ATOM     10  C   LIG    1        1.208  -4.284  -2.054  0.00  0.00    +0.270 C 
BRANCH  10  11
ATOM     11  C   LIG    1        1.924  -4.778  -3.313  0.00  0.00    +0.020 C 
BRANCH  11  12
ATOM     12  C   LIG    1        1.945  -6.307  -3.321  0.00  0.00    +0.180 C 
BRANCH  12  13
ATOM     13  N   LIG    1        2.633  -6.781  -4.530  0.00  0.00    -0.540 NA
ATOM     14  C   LIG    1        2.158  -6.064  -5.722  0.00  0.00    +0.140 C 
ATOM     15  C   LIG    1        2.940  -6.545  -6.947  0.00  0.00    +0.220 C 
ATOM     16  O   LIG    1        2.794  -7.962  -7.073  0.00  0.00    -0.390 OA
ATOM     17  C   LIG    1        3.247  -8.692  -5.930  0.00  0.00    +0.220 C 
ATOM     18  C   LIG    1        2.467  -8.233  -4.696  0.00  0.00    +0.150 C 
ENDBRANCH  12  13
ENDBRANCH  11  12
ENDBRANCH  10  11
ENDBRANCH   2  10
TORSDOF 5
ENDMDL
MODEL      410
REMARK  Name = ZINC000010327275
REMARK                            x       y       z     vdW  Elec       q    Type
REMARK                         _______ _______ _______ _____ _____    ______ ____
ROOT
ATOM      1  C   LIG    1       -1.738  -0.894   0.584  0.00  0.00    -0.010 C 
ATOM      2  C   LIG    1       -2.270  -0.467  -0.786  0.00  0.00    +0.030 C 
ATOM      3  C   LIG    1       -3.583  -1.202  -1.072  0.00  0.00    +0.290 C 
ATOM      4  N   LIG    1       -3.354  -2.647  -0.938  0.00  0.00    -0.580 N 
ATOM      5  C   LIG    1       -2.761  -3.156   0.306  0.00  0.00    +0.280 C 
ATOM      6  C   LIG    1       -3.682  -3.490  -1.938  0.00  0.00    +0.510 C 
ATOM      7  O   LIG    1       -4.287  -3.077  -2.905  0.00  0.00    -0.520 OA
ATOM      8  C   LIG    1       -1.457  -2.399   0.576  0.00  0.00    +0.060 C 
ENDROOT
BRANCH   1  12
ATOM      9  N   LIG    1       -0.469   1.199   0.941  0.00  0.00    -0.860 N 
ATOM     10  H   LIG    1       -1.293   1.687   0.786  0.00  0.00    +0.400 HD
ATOM     11  H   LIG    1        0.351   1.680   1.134  0.00  0.00    +0.400 HD
ATOM     12  C   LIG    1       -0.464  -0.148   0.883  0.00  0.00    +0.520 C 
ATOM     13  O   LIG    1        0.567  -0.758   1.072  0.00  0.00    -0.540 OA
ENDBRANCH   1  12
BRANCH   6  14
ATOM     14  C   LIG    1       -3.301  -4.932  -1.854  0.00  0.00    +0.520 C 
ATOM     15  N   LIG    1       -3.739  -5.800  -2.788  0.00  0.00    -0.670 N 
ATOM     16  H   LIG    1       -4.301  -5.488  -3.514  0.00  0.00    +0.420 HD
ATOM     17  O   LIG    1       -2.597  -5.322  -0.946  0.00  0.00    -0.500 OA
BRANCH  15  18
ATOM     18  C   LIG    1       -3.365  -7.214  -2.706  0.00  0.00    +0.210 C 
ATOM     19  C   LIG    1       -4.460  -8.250  -2.968  0.00  0.00    +0.020 C 
ATOM     20  C   LIG    1       -3.361  -8.020  -4.007  0.00  0.00    +0.030 C 
ENDBRANCH  15  18
ENDBRANCH   6  14
TORSDOF 3
ENDMDL
MODEL      411
REMARK  Name = ZINC000024032542
REMARK                            x       y       z     vdW  Elec       q    Type
REMARK                         _______ _______ _______ _____ _____    ______ ____
ROOT
ATOM      1  C   LIG    1       -0.018   1.461   0.010  0.00  0.00    +0.330 C 
ATOM      2  N   LIG    1        0.002  -0.004   0.002  0.00  0.00    -0.560 N 
ATOM      3  C   LIG    1        0.006  -0.669  -1.171  0.00  0.00    +0.550 A 
ATOM      4  C   LIG    1        0.025  -2.085  -1.167  0.00  0.00    -0.120 A 
ATOM      5  C   LIG    1        0.040  -2.738   0.015  0.00  0.00    +0.210 A 
ATOM      6  N   LIG    1        0.036  -2.026   1.183  0.00  0.00    -0.520 N 
ATOM      7  C   LIG    1        0.052  -2.735   2.465  0.00  0.00    +0.350 C 
ATOM      8  O   LIG    1       -0.008  -0.058  -2.224  0.00  0.00    -0.510 OA
ATOM      9  C   LIG    1        0.022  -0.681   1.165  0.00  0.00    +0.690 A 
ATOM     10  O   LIG    1        0.019  -0.067   2.215  0.00  0.00    -0.530 OA
ENDROOT
BRANCH   5  11
ATOM     11  C   LIG    1        0.062  -4.245   0.047  0.00  0.00    +0.270 C 
BRANCH  11  12
ATOM     12  N   LIG    1        1.327  -4.704   0.636  0.00  0.00    -0.530 NA
ATOM     13  C   LIG    1        2.470  -3.982   0.059  0.00  0.00    +0.140 C 
ATOM     14  C   LIG    1        3.758  -4.448   0.742  0.00  0.00    +0.220 C 
ATOM     15  O   LIG    1        3.883  -5.865   0.597  0.00  0.00    -0.380 OA
ATOM     16  C   LIG    1        2.787  -6.599   1.149  0.00  0.00    +0.220 C 
ATOM     17  C   LIG    1        1.489  -6.155   0.470  0.00  0.00    +0.160 C 
ENDBRANCH  11  12
ENDBRANCH   5  11
TORSDOF 2
ENDMDL
MODEL      412
REMARK  Name = ZINC000070838822
REMARK                            x       y       z     vdW  Elec       q    Type
REMARK                         _______ _______ _______ _____ _____    ______ ____
ROOT
ATOM      1  C   LIG    1       -1.293  -0.775   0.010  0.00  0.00    -0.020 C 
ATOM      2  C   LIG    1       -1.922  -0.944  -1.384  0.00  0.00    +0.330 C 
ATOM      3  N   LIG    1       -2.211  -2.333  -0.976  0.00  0.00    -1.040 NA
ATOM      4  C   LIG    1       -1.104  -2.303   0.000  0.00  0.00    +0.350 C 
ENDROOT
BRANCH   1   8
ATOM      5  N   LIG    1       -0.016   1.344   0.009  0.00  0.00    -0.850 N 
ATOM      6  H   LIG    1       -0.863   1.817   0.016  0.00  0.00    +0.400 HD
ATOM      7  H   LIG    1        0.817   1.840   0.004  0.00  0.00    +0.400 HD
ATOM      8  C   LIG    1        0.002  -0.004   0.002  0.00  0.00    +0.530 C 
ATOM      9  O   LIG    1        1.060  -0.596  -0.011  0.00  0.00    -0.540 OA
ENDBRANCH   1   8
BRANCH   3  10
ATOM     10  S   LIG    1       -3.328  -3.468  -1.429  0.00  0.00    +2.660 S 
ATOM     11  O   LIG    1       -4.425  -2.705  -1.914  0.00  0.00    -0.950 OA
ATOM     12  O   LIG    1       -3.463  -4.302  -0.287  0.00  0.00    -0.940 OA
BRANCH  10  13
ATOM     13  C   LIG    1       -2.531  -4.370  -2.786  0.00  0.00    -0.530 C 
ATOM     14  C   LIG    1       -2.130  -5.824  -2.528  0.00  0.00    +0.110 C 
ATOM     15  C   LIG    1       -3.319  -5.508  -3.437  0.00  0.00    +0.100 C 
ENDBRANCH  10  13
ENDBRANCH   3  10
TORSDOF 3
ENDMDL
MODEL      413
REMARK  Name = ZINC000252624248
REMARK                            x       y       z     vdW  Elec       q    Type
REMARK                         _______ _______ _______ _____ _____    ______ ____
ROOT
ATOM      1  C   LIG    1       -1.416  -2.058  -0.121  0.00  0.00    +0.170 C 
ATOM      2  O   LIG    1       -0.817  -2.442  -1.399  0.00  0.00    -0.330 OA
ATOM      3  C   LIG    1       -1.501  -3.598  -1.738  0.00  0.00    +0.340 C 
ATOM      4  N   LIG    1       -1.641  -4.350  -2.938  0.00  0.00    -0.650 N 
ATOM      5  H   LIG    1       -0.999  -4.438  -3.660  0.00  0.00    +0.450 HD
ATOM      6  C   LIG    1       -2.886  -4.926  -2.851  0.00  0.00    +0.490 C 
ATOM      7  O   LIG    1       -3.557  -4.485  -1.735  0.00  0.00    -0.270 OA
ATOM      8  S   LIG    1       -3.517  -6.044  -3.982  0.00  0.00    -0.430 S 
ATOM      9  C   LIG    1       -3.011  -3.142  -1.562  0.00  0.00    +0.090 C 
ATOM     10  C   LIG    1       -2.872  -2.610  -0.130  0.00  0.00    +0.210 C 
ENDROOT
BRANCH  10  11
ATOM     11  O   LIG    1       -3.017  -3.666   0.821  0.00  0.00    -0.540 OA
ATOM     12  H   LIG    1       -3.879  -4.103   0.795  0.00  0.00    +0.400 HD
ENDBRANCH  10  11
BRANCH   1  13
ATOM     13  C   LIG    1       -1.433  -0.534   0.013  0.00  0.00    +0.240 C 
BRANCH  13  14
ATOM     14  O   LIG    1       -2.066  -0.171   1.242  0.00  0.00    -0.530 OA
ATOM     15  H   LIG    1       -1.626  -0.521   2.029  0.00  0.00    +0.380 HD
ENDBRANCH  13  14
BRANCH  13  16
ATOM     16  C   LIG    1        0.002  -0.004   0.002  0.00  0.00    +0.170 C 
BRANCH  16  17
ATOM     17  O   LIG    1       -0.017   1.425   0.010  0.00  0.00    -0.560 OA
ATOM     18  H   LIG    1        0.861   1.830   0.004  0.00  0.00    +0.390 HD
ENDBRANCH  16  17
ENDBRANCH  13  16
ENDBRANCH   1  13
TORSDOF 5
ENDMDL
MODEL      414
REMARK  Name = ZINC000000184482
REMARK                            x       y       z     vdW  Elec       q    Type
REMARK                         _______ _______ _______ _____ _____    ______ ____
ROOT
ATOM      1  N   LIG    1        1.461  -3.825  -2.510  0.00  0.00    -0.630 N 
ATOM      2  C   LIG    1        2.395  -4.641  -1.937  0.00  0.00    +0.730 C 
ATOM      3  N   LIG    1        1.922  -5.921  -1.763  0.00  0.00    -0.720 N 
ATOM      4  H   LIG    1        2.432  -6.729  -1.596  0.00  0.00    +0.430 HD
ATOM      5  C   LIG    1        0.529  -5.785  -1.885  0.00  0.00    +0.390 C 
ATOM      6  N   LIG    1       -0.647  -6.515  -2.103  0.00  0.00    -0.720 N 
ATOM      7  H   LIG    1       -0.782  -7.469  -1.994  0.00  0.00    +0.430 HD
ATOM      8  C   LIG    1       -1.567  -5.579  -2.505  0.00  0.00    +0.730 C 
ATOM      9  N   LIG    1       -0.980  -4.392  -2.841  0.00  0.00    -0.740 N 
ATOM     10  H   LIG    1       -1.412  -3.529  -2.934  0.00  0.00    +0.430 HD
ATOM     11  O   LIG    1       -2.765  -5.782  -2.557  0.00  0.00    -0.540 OA
ATOM     12  O   LIG    1        3.511  -4.278  -1.618  0.00  0.00    -0.530 OA
ATOM     13  C   LIG    1        0.435  -4.721  -3.048  0.00  0.00    +0.440 C 
ENDROOT
BRANCH   1  14
ATOM     14  C   LIG    1        1.479  -2.361  -2.569  0.00  0.00    +0.430 C 
BRANCH  14  15
ATOM     15  C   LIG    1        0.786  -1.801  -1.353  0.00  0.00    +0.430 C 
ATOM     16  O   LIG    1        0.325  -2.548  -0.523  0.00  0.00    -0.490 OA
BRANCH  15  17
ATOM     17  O   LIG    1        0.682  -0.472  -1.193  0.00  0.00    -0.360 OA
BRANCH  17  19
ATOM     18  C   LIG    1       -0.019   1.526   0.010  0.00  0.00    +0.070 C 
ATOM     19  C   LIG    1        0.002  -0.004   0.002  0.00  0.00    +0.200 C 
ENDBRANCH  17  19
ENDBRANCH  15  17
ENDBRANCH  14  15
ENDBRANCH   1  14
TORSDOF 4
ENDMDL
MODEL      415
REMARK  Name = ZINC000004373112
REMARK                            x       y       z     vdW  Elec       q    Type
REMARK                         _______ _______ _______ _____ _____    ______ ____
ROOT
ATOM      1  N   LIG    1        1.461  -3.825  -2.510  0.00  0.00    -0.620 N 
ATOM      2  C   LIG    1        2.395  -4.641  -1.937  0.00  0.00    +0.730 C 
ATOM      3  N   LIG    1        2.252  -5.949  -2.340  0.00  0.00    -0.720 N 
ATOM      4  H   LIG    1        2.622  -6.745  -1.928  0.00  0.00    +0.430 HD
ATOM      5  C   LIG    1        1.446  -5.861  -3.487  0.00  0.00    +0.390 C 
ATOM      6  N   LIG    1        0.632  -6.621  -4.338  0.00  0.00    -0.720 N 
ATOM      7  H   LIG    1        0.619  -7.585  -4.440  0.00  0.00    +0.430 HD
ATOM      8  C   LIG    1       -0.143  -5.697  -4.994  0.00  0.00    +0.730 C 
ATOM      9  N   LIG    1       -0.085  -4.466  -4.404  0.00  0.00    -0.750 N 
ATOM     10  H   LIG    1       -0.349  -3.617  -4.791  0.00  0.00    +0.430 HD
ATOM     11  O   LIG    1       -0.804  -5.945  -5.984  0.00  0.00    -0.530 OA
ATOM     12  O   LIG    1        3.250  -4.257  -1.162  0.00  0.00    -0.520 OA
ATOM     13  C   LIG    1        0.435  -4.721  -3.048  0.00  0.00    +0.430 C 
ENDROOT
BRANCH   1  14
ATOM     14  C   LIG    1        1.479  -2.361  -2.569  0.00  0.00    +0.420 C 
BRANCH  14  15
ATOM     15  C   LIG    1        0.786  -1.801  -1.353  0.00  0.00    +0.440 C 
ATOM     16  O   LIG    1        0.325  -2.548  -0.523  0.00  0.00    -0.490 OA
BRANCH  15  17
ATOM     17  O   LIG    1        0.682  -0.472  -1.193  0.00  0.00    -0.360 OA
BRANCH  17  19
ATOM     18  C   LIG    1       -0.019   1.526   0.010  0.00  0.00    +0.070 C 
ATOM     19  C   LIG    1        0.002  -0.004   0.002  0.00  0.00    +0.200 C 
ENDBRANCH  17  19
ENDBRANCH  15  17
ENDBRANCH  14  15
ENDBRANCH   1  14
TORSDOF 4
ENDMDL
MODEL      416
REMARK  Name = ZINC000032627416
REMARK                            x       y       z     vdW  Elec       q    Type
REMARK                         _______ _______ _______ _____ _____    ______ ____
ROOT
ATOM      1  C   LIG    1       -1.293  -0.775   0.010  0.00  0.00    -0.010 C 
ATOM      2  C   LIG    1       -2.112  -0.408  -1.229  0.00  0.00    +0.020 C 
ATOM      3  C   LIG    1       -3.443  -1.168  -1.199  0.00  0.00    +0.300 C 
ATOM      4  N   LIG    1       -3.164  -2.604  -1.064  0.00  0.00    -1.000 NA
ATOM      5  C   LIG    1       -2.310  -3.057   0.043  0.00  0.00    +0.300 C 
ATOM      6  C   LIG    1       -0.992  -2.276  -0.001  0.00  0.00    +0.050 C 
ENDROOT
BRANCH   1  10
ATOM      7  N   LIG    1       -0.016   1.344   0.009  0.00  0.00    -0.860 N 
ATOM      8  H   LIG    1       -0.863   1.817   0.016  0.00  0.00    +0.400 HD
ATOM      9  H   LIG    1        0.817   1.840   0.004  0.00  0.00    +0.400 HD
ATOM     10  C   LIG    1        0.002  -0.004   0.002  0.00  0.00    +0.520 C 
ATOM     11  O   LIG    1        1.060  -0.596  -0.011  0.00  0.00    -0.540 OA
ENDBRANCH   1  10
BRANCH   4  12
ATOM     12  S   LIG    1       -3.801  -3.692  -2.138  0.00  0.00    +2.790 S 
ATOM     13  O   LIG    1       -4.954  -3.078  -2.695  0.00  0.00    -0.980 OA
ATOM     14  O   LIG    1       -3.835  -4.945  -1.467  0.00  0.00    -0.980 OA
BRANCH  12  15
ATOM     15  N   LIG    1       -2.712  -3.854  -3.375  0.00  0.00    -1.260 NA
ATOM     16  H   LIG    1       -2.141  -3.109  -3.619  0.00  0.00    +0.410 HD
ATOM     17  H   LIG    1       -2.647  -4.693  -3.857  0.00  0.00    +0.420 HD
ENDBRANCH  12  15
ENDBRANCH   4  12
TORSDOF 3
ENDMDL
MODEL      417
REMARK  Name = ZINC000000184479
REMARK                            x       y       z     vdW  Elec       q    Type
REMARK                         _______ _______ _______ _____ _____    ______ ____
ROOT
ATOM      1  N   LIG    1        1.461  -3.825  -2.510  0.00  0.00    -0.620 N 
ATOM      2  C   LIG    1        2.400  -4.588  -1.937  0.00  0.00    +0.710 C 
ATOM      3  N   LIG    1        2.154  -5.902  -2.015  0.00  0.00    -0.740 N 
ATOM      4  H   LIG    1        2.723  -6.601  -1.657  0.00  0.00    +0.440 HD
ATOM      5  C   LIG    1        0.888  -6.119  -2.730  0.00  0.00    +0.480 C 
ATOM      6  N   LIG    1       -0.126  -6.628  -1.795  0.00  0.00    -0.740 N 
ATOM      7  H   LIG    1       -0.123  -7.509  -1.390  0.00  0.00    +0.430 HD
ATOM      8  C   LIG    1       -1.053  -5.684  -1.591  0.00  0.00    +0.710 C 
ATOM      9  N   LIG    1       -0.833  -4.549  -2.267  0.00  0.00    -0.730 N 
ATOM     10  H   LIG    1       -1.398  -3.762  -2.240  0.00  0.00    +0.430 HD
ATOM     11  O   LIG    1       -2.010  -5.843  -0.857  0.00  0.00    -0.570 OA
ATOM     12  O   LIG    1        3.386  -4.129  -1.394  0.00  0.00    -0.560 OA
ATOM     13  C   LIG    1        0.407  -4.685  -3.066  0.00  0.00    +0.480 C 
ENDROOT
BRANCH   1  14
ATOM     14  C   LIG    1        1.479  -2.361  -2.569  0.00  0.00    +0.420 C 
BRANCH  14  15
ATOM     15  C   LIG    1        0.786  -1.801  -1.353  0.00  0.00    +0.430 C 
ATOM     16  O   LIG    1        0.325  -2.548  -0.523  0.00  0.00    -0.490 OA
BRANCH  15  17
ATOM     17  O   LIG    1        0.682  -0.472  -1.193  0.00  0.00    -0.360 OA
BRANCH  17  19
ATOM     18  C   LIG    1       -0.019   1.526   0.010  0.00  0.00    +0.070 C 
ATOM     19  C   LIG    1        0.002  -0.004   0.002  0.00  0.00    +0.200 C 
ENDBRANCH  17  19
ENDBRANCH  15  17
ENDBRANCH  14  15
ENDBRANCH   1  14
TORSDOF 4
ENDMDL
MODEL      418
REMARK  Name = ZINC000000184478
REMARK                            x       y       z     vdW  Elec       q    Type
REMARK                         _______ _______ _______ _____ _____    ______ ____
ROOT
ATOM      1  N   LIG    1        1.461  -3.825  -2.510  0.00  0.00    -0.620 N 
ATOM      2  C   LIG    1        2.400  -4.588  -1.937  0.00  0.00    +0.710 C 
ATOM      3  N   LIG    1        2.154  -5.902  -2.015  0.00  0.00    -0.730 N 
ATOM      4  H   LIG    1        2.723  -6.601  -1.657  0.00  0.00    +0.440 HD
ATOM      5  C   LIG    1        0.888  -6.119  -2.730  0.00  0.00    +0.480 C 
ATOM      6  N   LIG    1        1.158  -6.733  -4.037  0.00  0.00    -0.740 N 
ATOM      7  H   LIG    1        1.472  -7.640  -4.177  0.00  0.00    +0.440 HD
ATOM      8  C   LIG    1        0.901  -5.845  -5.006  0.00  0.00    +0.710 C 
ATOM      9  N   LIG    1        0.478  -4.657  -4.556  0.00  0.00    -0.740 N 
ATOM     10  H   LIG    1        0.246  -3.897  -5.112  0.00  0.00    +0.430 HD
ATOM     11  O   LIG    1        1.040  -6.094  -6.188  0.00  0.00    -0.570 OA
ATOM     12  O   LIG    1        3.386  -4.129  -1.393  0.00  0.00    -0.560 OA
ATOM     13  C   LIG    1        0.407  -4.685  -3.066  0.00  0.00    +0.480 C 
ENDROOT
BRANCH   1  14
ATOM     14  C   LIG    1        1.479  -2.361  -2.569  0.00  0.00    +0.420 C 
BRANCH  14  15
ATOM     15  C   LIG    1        0.786  -1.801  -1.353  0.00  0.00    +0.440 C 
ATOM     16  O   LIG    1        0.325  -2.548  -0.523  0.00  0.00    -0.500 OA
BRANCH  15  17
ATOM     17  O   LIG    1        0.682  -0.472  -1.193  0.00  0.00    -0.360 OA
BRANCH  17  19
ATOM     18  C   LIG    1       -0.019   1.526   0.010  0.00  0.00    +0.070 C 
ATOM     19  C   LIG    1        0.002  -0.004   0.002  0.00  0.00    +0.200 C 
ENDBRANCH  17  19
ENDBRANCH  15  17
ENDBRANCH  14  15
ENDBRANCH   1  14
TORSDOF 4
ENDMDL
MODEL      419
REMARK  Name = ZINC000048889856
REMARK                            x       y       z     vdW  Elec       q    Type
REMARK                         _______ _______ _______ _____ _____    ______ ____
ROOT
ATOM      1  C   LIG    1        1.266  -4.115   2.027  0.00  0.00    +0.520 C 
ATOM      2  N   LIG    1        1.821  -4.933   2.943  0.00  0.00    -0.710 N 
ATOM      3  H   LIG    1        2.271  -4.561   3.717  0.00  0.00    +0.420 HD
ATOM      4  O   LIG    1        0.703  -4.581   1.060  0.00  0.00    -0.530 OA
ENDROOT
BRANCH   1   5
ATOM      5  C   LIG    1        1.347  -2.620   2.206  0.00  0.00    +0.340 C 
BRANCH   5   7
ATOM      6  C   LIG    1        0.620  -0.613   1.032  0.00  0.00    +0.650 C 
ATOM      7  N   LIG    1        0.674  -1.958   1.085  0.00  0.00    -0.700 N 
ATOM      8  H   LIG    1        0.268  -2.488   0.382  0.00  0.00    +0.420 HD
ATOM      9  O   LIG    1        1.129   0.051   1.913  0.00  0.00    -0.570 OA
BRANCH   6  11
ATOM     10  C   LIG    1       -0.018   1.448   0.010  0.00  0.00    +0.310 C 
ATOM     11  O   LIG    1        0.002  -0.004   0.002  0.00  0.00    -0.370 OA
ENDBRANCH   6  11
ENDBRANCH   5   7
ENDBRANCH   1   5
BRANCH   2  12
ATOM     12  C   LIG    1        1.743  -6.386   2.770  0.00  0.00    +0.300 C 
BRANCH  12  13
ATOM     13  C   LIG    1        2.434  -7.067   3.923  0.00  0.00    +0.510 C 
ATOM     14  N   LIG    1        2.489  -8.413   3.976  0.00  0.00    -0.620 N 
ATOM     15  C   LIG    1        1.875  -9.213   2.914  0.00  0.00    +0.290 C 
ATOM     16  C   LIG    1        3.161  -9.075   5.097  0.00  0.00    +0.290 C 
ATOM     17  O   LIG    1        2.942  -6.404   4.802  0.00  0.00    -0.530 OA
ENDBRANCH  12  13
ENDBRANCH   2  12
TORSDOF 5
ENDMDL
MODEL      420
REMARK  Name = ZINC000001870107
REMARK                            x       y       z     vdW  Elec       q    Type
REMARK                         _______ _______ _______ _____ _____    ______ ____
ROOT
ATOM      1  N   LIG    1        1.461  -3.825  -2.510  0.00  0.00    -0.550 N 
ATOM      2  C   LIG    1        2.478  -4.450  -1.899  0.00  0.00    +0.520 C 
ATOM      3  C   LIG    1        2.501  -5.950  -1.756  0.00  0.00    +0.370 C 
ATOM      4  N   LIG    1        1.667  -6.532  -2.821  0.00  0.00    -0.630 N 
ATOM      5  C   LIG    1        0.317  -5.974  -3.002  0.00  0.00    +0.350 C 
ATOM      6  C   LIG    1        2.122  -7.534  -3.599  0.00  0.00    +0.660 C 
ATOM      7  O   LIG    1        1.415  -7.995  -4.470  0.00  0.00    -0.530 OA
ATOM      8  O   LIG    1        3.396  -3.796  -1.454  0.00  0.00    -0.480 OA
ATOM      9  C   LIG    1        0.426  -4.471  -3.065  0.00  0.00    +0.520 C 
ATOM     10  O   LIG    1       -0.436  -3.836  -3.634  0.00  0.00    -0.480 OA
ENDROOT
BRANCH   1  11
ATOM     11  C   LIG    1        1.479  -2.361  -2.569  0.00  0.00    +0.380 C 
BRANCH  11  12
ATOM     12  C   LIG    1        0.786  -1.801  -1.353  0.00  0.00    +0.460 C 
ATOM     13  O   LIG    1        0.325  -2.548  -0.523  0.00  0.00    -0.500 OA
BRANCH  12  14
ATOM     14  O   LIG    1        0.682  -0.472  -1.193  0.00  0.00    -0.350 OA
BRANCH  14  16
ATOM     15  C   LIG    1       -0.019   1.526   0.010  0.00  0.00    +0.070 C 
ATOM     16  C   LIG    1        0.002  -0.004   0.002  0.00  0.00    +0.200 C 
ENDBRANCH  14  16
ENDBRANCH  12  14
ENDBRANCH  11  12
ENDBRANCH   1  11
TORSDOF 4
ENDMDL
MODEL      421
REMARK  Name = ZINC000001443997
REMARK                            x       y       z     vdW  Elec       q    Type
REMARK                         _______ _______ _______ _____ _____    ______ ____
ROOT
ATOM      1  C   LIG    1        0.002  -0.004   0.002  0.00  0.00    +0.330 C 
ATOM      2  C   LIG    1       -1.435  -0.550  -0.006  0.00  0.00    +0.090 C 
ATOM      3  C   LIG    1       -1.363  -2.086  -0.142  0.00  0.00    +0.280 C 
ATOM      4  N   LIG    1       -0.542  -2.566   0.976  0.00  0.00    -0.410 N 
ATOM      5  N   LIG    1       -0.530  -3.795   1.627  0.00  0.00    -0.080 NA
ATOM      6  N   LIG    1        0.386  -3.718   2.538  0.00  0.00    -0.020 NA
ATOM      7  N   LIG    1        0.944  -2.555   2.517  0.00  0.00    -0.360 NA
ATOM      8  C   LIG    1        0.410  -1.815   1.585  0.00  0.00    +0.510 A 
ATOM      9  C   LIG    1       -0.578  -2.381  -1.440  0.00  0.00    +0.180 C 
ATOM     10  C   LIG    1       -1.059  -1.392  -2.525  0.00  0.00    +0.220 C 
ATOM     11  O   LIG    1       -0.182  -0.257  -2.415  0.00  0.00    -0.370 OA
ATOM     12  O   LIG    1        0.788  -1.964  -1.185  0.00  0.00    -0.350 OA
ATOM     13  N   LIG    1        0.696  -0.506   1.202  0.00  0.00    -0.700 N 
ATOM     14  H   LIG    1        1.314   0.046   1.706  0.00  0.00    +0.430 HD
ATOM     15  C   LIG    1        0.719  -0.513  -1.257  0.00  0.00    +0.360 C 
ENDROOT
BRANCH   1  16
ATOM     16  O   LIG    1       -0.017   1.425   0.010  0.00  0.00    -0.520 OA
ATOM     17  H   LIG    1        0.861   1.830   0.004  0.00  0.00    +0.390 HD
ENDBRANCH   1  16
TORSDOF 1
ENDMDL
MODEL      422
REMARK  Name = ZINC000041910256
REMARK                            x       y       z     vdW  Elec       q    Type
REMARK                         _______ _______ _______ _____ _____    ______ ____
ROOT
ATOM      1  C   LIG    1       -0.019   1.526   0.010  0.00  0.00    +0.070 C 
ATOM      2  C   LIG    1        0.002  -0.004   0.002  0.00  0.00    +0.140 C 
ATOM      3  C   LIG    1        0.722  -0.499  -1.258  0.00  0.00    +0.270 C 
ATOM      4  N   LIG    1        0.894  -1.957  -1.151  0.00  0.00    -0.610 N 
ATOM      5  C   LIG    1        1.483  -2.495   0.085  0.00  0.00    +0.250 C 
ATOM      6  C   LIG    1        0.726  -1.903   1.280  0.00  0.00    +0.220 C 
ATOM      7  C   LIG    1        0.523  -2.775  -2.156  0.00  0.00    +0.510 C 
ATOM      8  O   LIG    1        0.039  -2.312  -3.167  0.00  0.00    -0.500 OA
ATOM      9  O   LIG    1        0.695  -0.479   1.159  0.00  0.00    -0.370 OA
ENDROOT
BRANCH   7  10
ATOM     10  C   LIG    1        0.709  -4.264  -2.023  0.00  0.00    +0.390 C 
BRANCH  10  11
ATOM     11  N   LIG    1        0.232  -4.926  -3.240  0.00  0.00    -0.310 N 
ATOM     12  C   LIG    1        0.932  -5.774  -4.016  0.00  0.00    +0.400 A 
ATOM     13  N   LIG    1        0.137  -6.133  -4.995  0.00  0.00    -0.300 NA
ATOM     14  N   LIG    1       -0.992  -5.536  -4.828  0.00  0.00    -0.070 NA
ATOM     15  N   LIG    1       -0.941  -4.811  -3.766  0.00  0.00    -0.060 NA
ENDBRANCH  10  11
ENDBRANCH   7  10
TORSDOF 2
ENDMDL
MODEL      423
REMARK  Name = ZINC000002561063
REMARK                            x       y       z     vdW  Elec       q    Type
REMARK                         _______ _______ _______ _____ _____    ______ ____
ROOT
ATOM      1  C   LEU A  1       -3.372  -1.006  -1.683  0.00  0.00    +0.500 C 
ATOM      2  N   SER A  2       -3.419  -2.319  -1.982  0.00  0.00    -0.650 N 
ATOM      3  H   SER A  2       -2.602  -2.841  -2.002  0.00  0.00    +0.400 HD
ATOM      4  O   LEU A  1       -4.394  -0.352  -1.658  0.00  0.00    -0.540 OA
ENDROOT
BRANCH   1   5
ATOM      5  CA  LEU A  1       -2.050  -0.348  -1.381  0.00  0.00    +0.170 C 
BRANCH   5   6
ATOM      6  N   LEU A  1       -2.174   1.105  -1.559  0.00  0.00    -0.620 N 
ATOM      7  H1  LEU A  1       -1.267   1.534  -1.455  0.00  0.00    +0.430 HD
ATOM      8  H2  LEU A  1       -2.804   1.477  -0.865  0.00  0.00    +0.440 HD
ATOM      9  H3  LEU A  1       -2.534   1.301  -2.481  0.00  0.00    +0.440 HD
ENDBRANCH   5   6
BRANCH   5  10
ATOM     10  CB  LEU A  1       -1.649  -0.652   0.064  0.00  0.00    +0.080 C 
BRANCH  10  12
ATOM     11  CD1 LEU A  1        0.097  -0.274   1.812  0.00  0.00    +0.050 C 
ATOM     12  CG  LEU A  1       -0.247  -0.099   0.331  0.00  0.00    -0.030 C 
ATOM     13  CD2 LEU A  1        0.771  -0.858  -0.522  0.00  0.00    +0.030 C 
ENDBRANCH  10  12
ENDBRANCH   5  10
ENDBRANCH   1   5
BRANCH   2  14
ATOM     14  CA  SER A  2       -4.704  -2.958  -2.276  0.00  0.00    +0.170 C 
BRANCH  14  15
ATOM     15  C   SER A  2       -5.041  -2.763  -3.732  0.00  0.00    +0.500 C 
ATOM     16  OXT SER A  2       -6.149  -3.056  -4.146  0.00  0.00    -0.680 OA
ATOM     17  O   SER A  2       -4.204  -2.311  -4.496  0.00  0.00    -0.680 OA
ENDBRANCH  14  15
BRANCH  14  18
ATOM     18  CB  SER A  2       -4.612  -4.454  -1.970  0.00  0.00    +0.190 C 
BRANCH  18  19
ATOM     19  OG  SER A  2       -3.674  -5.065  -2.859  0.00  0.00    -0.560 OA
ATOM     20  H   SER A  2       -3.564  -6.016  -2.722  0.00  0.00    +0.380 HD
ENDBRANCH  18  19
ENDBRANCH  14  18
ENDBRANCH   2  14
TORSDOF 8
ENDMDL
MODEL      424
REMARK  Name = ZINC000031500052
REMARK                            x       y       z     vdW  Elec       q    Type
REMARK                         _______ _______ _______ _____ _____    ______ ____
ROOT
ATOM      1  C   LIG    1       -4.861  -1.039   0.034  0.00  0.00    +0.290 C 
ENDROOT
BRANCH   1   4
ATOM      2  C   LIG    1       -1.257  -0.754   0.010  0.00  0.00    +0.100 A 
ATOM      3  N   LIG    1       -2.468  -0.232   0.019  0.00  0.00    -0.390 NA
ATOM      4  C   LIG    1       -3.364  -1.213   0.024  0.00  0.00    -0.040 A 
ATOM      5  C   LIG    1       -2.702  -2.398   0.019  0.00  0.00    +0.190 A 
ATOM      6  N   LIG    1       -1.379  -2.117   0.004  0.00  0.00    -0.530 N 
ATOM      7  H   LIG    1       -0.653  -2.761  -0.003  0.00  0.00    +0.430 HD
BRANCH   2   9
ATOM      8  C   LIG    1       -0.018   1.503   0.010  0.00  0.00    +0.110 C 
ATOM      9  C   LIG    1        0.002  -0.004   0.002  0.00  0.00    +0.440 C 
ATOM     10  O   LIG    1        1.061  -0.596  -0.011  0.00  0.00    -0.460 OA
ENDBRANCH   2   9
ENDBRANCH   1   4
BRANCH   1  11
ATOM     11  O   LIG    1       -5.277  -0.417  -1.183  0.00  0.00    -0.540 OA
ATOM     12  H   LIG    1       -4.889   0.456  -1.331  0.00  0.00    +0.380 HD
ENDBRANCH   1  11
BRANCH   1  13
ATOM     13  C   LIG    1       -5.264  -0.160   1.220  0.00  0.00    +0.160 C 
BRANCH  13  14
ATOM     14  O   LIG    1       -4.548   1.075   1.162  0.00  0.00    -0.530 OA
ATOM     15  H   LIG    1       -4.711   1.587   0.358  0.00  0.00    +0.370 HD
ENDBRANCH  13  14
BRANCH  13  16
ATOM     16  C   LIG    1       -6.768   0.119   1.160  0.00  0.00    +0.190 C 
BRANCH  16  17
ATOM     17  O   LIG    1       -7.484  -1.116   1.217  0.00  0.00    -0.540 OA
ATOM     18  H   LIG    1       -7.321  -1.628   2.021  0.00  0.00    +0.370 HD
ENDBRANCH  16  17
BRANCH  16  19
ATOM     19  C   LIG    1       -7.171   0.998   2.345  0.00  0.00    +0.160 C 
BRANCH  19  20
ATOM     20  O   LIG    1       -8.550   1.355   2.226  0.00  0.00    -0.570 OA
ATOM     21  H   LIG    1       -8.875   1.914   2.945  0.00  0.00    +0.380 HD
ENDBRANCH  19  20
ENDBRANCH  16  19
ENDBRANCH  13  16
ENDBRANCH   1  13
TORSDOF 9
ENDMDL
MODEL      425
REMARK  Name = ZINC000003647772
REMARK                            x       y       z     vdW  Elec       q    Type
REMARK                         _______ _______ _______ _____ _____    ______ ____
ROOT
ATOM      1  N   LIG    1       -3.925  -4.702   0.014  0.00  0.00    -0.620 N 
ATOM      2  C   LIG    1       -4.643  -4.971   1.112  0.00  0.00    +0.710 C 
ATOM      3  N   LIG    1       -5.877  -5.425   0.857  0.00  0.00    -0.740 N 
ATOM      4  H   LIG    1       -6.534  -5.670   1.528  0.00  0.00    +0.440 HD
ATOM      5  C   LIG    1       -6.079  -5.495  -0.597  0.00  0.00    +0.470 C 
ATOM      6  N   LIG    1       -6.158  -6.901  -1.018  0.00  0.00    -0.740 N 
ATOM      7  H   LIG    1       -6.889  -7.506  -0.817  0.00  0.00    +0.430 HD
ATOM      8  C   LIG    1       -5.063  -7.215  -1.721  0.00  0.00    +0.710 C 
ATOM      9  N   LIG    1       -4.198  -6.203  -1.861  0.00  0.00    -0.740 N 
ATOM     10  H   LIG    1       -3.354  -6.249  -2.338  0.00  0.00    +0.430 HD
ATOM     11  O   LIG    1       -4.873  -8.320  -2.192  0.00  0.00    -0.570 OA
ATOM     12  O   LIG    1       -4.214  -4.815   2.239  0.00  0.00    -0.570 OA
ATOM     13  C   LIG    1       -4.734  -4.990  -1.179  0.00  0.00    +0.480 C 
ENDROOT
BRANCH   1  14
ATOM     14  C   LIG    1       -2.551  -4.195   0.004  0.00  0.00    +0.360 C 
BRANCH  14  17
ATOM     15  N   LIG    1       -1.413  -1.998   0.005  0.00  0.00    -0.730 N 
ATOM     16  H   LIG    1       -0.567  -2.472  -0.006  0.00  0.00    +0.400 HD
ATOM     17  C   LIG    1       -2.571  -2.688   0.012  0.00  0.00    +0.490 C 
ATOM     18  O   LIG    1       -3.630  -2.096   0.025  0.00  0.00    -0.530 OA
BRANCH  15  19
ATOM     19  C   LIG    1       -1.433  -0.534   0.013  0.00  0.00    +0.260 C 
BRANCH  19  21
ATOM     20  C   LIG    1       -0.019   1.526   0.010  0.00  0.00    +0.030 C 
ATOM     21  C   LIG    1        0.002  -0.004   0.002  0.00  0.00    +0.000 C 
ENDBRANCH  19  21
ENDBRANCH  15  19
ENDBRANCH  14  17
ENDBRANCH   1  14
TORSDOF 4
ENDMDL
MODEL      426
REMARK  Name = ZINC000253375609
REMARK                            x       y       z     vdW  Elec       q    Type
REMARK                         _______ _______ _______ _____ _____    ______ ____
ROOT
ATOM      1  C   LIG    1       -1.412  -0.526   0.013  0.00  0.00    +0.520 C 
ATOM      2  N   LIG    1       -1.640  -1.854   0.008  0.00  0.00    -0.600 N 
ATOM      3  C   LIG    1       -0.517  -2.803  -0.002  0.00  0.00    +0.240 C 
ATOM      4  C   LIG    1       -0.747  -3.820   1.122  0.00  0.00    +0.230 C 
ATOM      5  N   LIG    1       -2.061  -4.446   0.937  0.00  0.00    -0.680 NA
ATOM      6  H   LIG    1       -2.111  -4.927   0.051  0.00  0.00    +0.340 HD
ATOM      7  C   LIG    1       -3.155  -3.475   1.071  0.00  0.00    +0.210 C 
ATOM      8  C   LIG    1       -4.489  -4.214   0.821  0.00  0.00    -0.280 C 
ATOM      9  S   LIG    1       -4.794  -4.047  -0.976  0.00  0.00    +2.390 S 
ATOM     10  C   LIG    1       -3.327  -3.016  -1.358  0.00  0.00    -0.320 C 
ATOM     11  O   LIG    1       -5.976  -3.286  -1.184  0.00  0.00    -0.920 OA
ATOM     12  O   LIG    1       -4.652  -5.317  -1.597  0.00  0.00    -0.930 OA
ATOM     13  C   LIG    1       -3.009  -2.371   0.018  0.00  0.00    +0.240 C 
ATOM     14  O   LIG    1       -2.344   0.250   0.026  0.00  0.00    -0.530 OA
ENDROOT
BRANCH   1  16
ATOM     15  C   LIG    1       -0.019   1.526   0.010  0.00  0.00    +0.040 C 
ATOM     16  C   LIG    1        0.002  -0.004   0.002  0.00  0.00    +0.060 C 
ENDBRANCH   1  16
TORSDOF 1
ENDMDL
MODEL      427
REMARK  Name = ZINC000003647774
REMARK                            x       y       z     vdW  Elec       q    Type
REMARK                         _______ _______ _______ _____ _____    ______ ____
ROOT
ATOM      1  N   LIG    1       -3.925  -4.702   0.014  0.00  0.00    -0.620 N 
ATOM      2  C   LIG    1       -4.643  -4.971   1.112  0.00  0.00    +0.710 C 
ATOM      3  N   LIG    1       -5.877  -5.425   0.857  0.00  0.00    -0.740 N 
ATOM      4  H   LIG    1       -6.534  -5.669   1.528  0.00  0.00    +0.430 HD
ATOM      5  C   LIG    1       -6.079  -5.495  -0.597  0.00  0.00    +0.470 C 
ATOM      6  N   LIG    1       -7.053  -4.475  -1.010  0.00  0.00    -0.740 N 
ATOM      7  H   LIG    1       -8.002  -4.491  -0.808  0.00  0.00    +0.430 HD
ATOM      8  C   LIG    1       -6.426  -3.521  -1.709  0.00  0.00    +0.710 C 
ATOM      9  N   LIG    1       -5.111  -3.727  -1.853  0.00  0.00    -0.730 N 
ATOM     10  H   LIG    1       -4.500  -3.142  -2.328  0.00  0.00    +0.430 HD
ATOM     11  O   LIG    1       -7.000  -2.553  -2.172  0.00  0.00    -0.570 OA
ATOM     12  O   LIG    1       -4.214  -4.816   2.239  0.00  0.00    -0.570 OA
ATOM     13  C   LIG    1       -4.734  -4.990  -1.179  0.00  0.00    +0.480 C 
ENDROOT
BRANCH   1  14
ATOM     14  C   LIG    1       -2.551  -4.195   0.004  0.00  0.00    +0.370 C 
BRANCH  14  17
ATOM     15  N   LIG    1       -1.413  -1.998   0.005  0.00  0.00    -0.730 N 
ATOM     16  H   LIG    1       -0.567  -2.472  -0.006  0.00  0.00    +0.400 HD
ATOM     17  C   LIG    1       -2.571  -2.688   0.012  0.00  0.00    +0.480 C 
ATOM     18  O   LIG    1       -3.630  -2.096   0.025  0.00  0.00    -0.510 OA
BRANCH  15  19
ATOM     19  C   LIG    1       -1.433  -0.534   0.013  0.00  0.00    +0.260 C 
BRANCH  19  21
ATOM     20  C   LIG    1       -0.019   1.526   0.010  0.00  0.00    +0.030 C 
ATOM     21  C   LIG    1        0.002  -0.004   0.002  0.00  0.00    +0.000 C 
ENDBRANCH  19  21
ENDBRANCH  15  19
ENDBRANCH  14  17
ENDBRANCH   1  14
TORSDOF 4
ENDMDL
MODEL      428
REMARK  Name = ZINC000003647776
REMARK                            x       y       z     vdW  Elec       q    Type
REMARK                         _______ _______ _______ _____ _____    ______ ____
ROOT
ATOM      1  N   LIG    1       -3.925  -4.702   0.014  0.00  0.00    -0.620 N 
ATOM      2  C   LIG    1       -4.693  -4.989   1.108  0.00  0.00    +0.730 C 
ATOM      3  N   LIG    1       -6.023  -5.124   0.782  0.00  0.00    -0.720 N 
ATOM      4  H   LIG    1       -6.728  -5.536   1.305  0.00  0.00    +0.430 HD
ATOM      5  C   LIG    1       -6.120  -4.525  -0.486  0.00  0.00    +0.390 C 
ATOM      6  N   LIG    1       -6.945  -4.437  -1.615  0.00  0.00    -0.720 N 
ATOM      7  H   LIG    1       -7.888  -4.654  -1.679  0.00  0.00    +0.430 HD
ATOM      8  C   LIG    1       -6.122  -3.974  -2.611  0.00  0.00    +0.730 C 
ATOM      9  N   LIG    1       -4.803  -4.058  -2.267  0.00  0.00    -0.740 N 
ATOM     10  H   LIG    1       -4.056  -3.601  -2.686  0.00  0.00    +0.430 HD
ATOM     11  O   LIG    1       -6.520  -3.540  -3.675  0.00  0.00    -0.540 OA
ATOM     12  O   LIG    1       -4.253  -5.110   2.235  0.00  0.00    -0.530 OA
ATOM     13  C   LIG    1       -4.768  -5.003  -1.145  0.00  0.00    +0.430 C 
ENDROOT
BRANCH   1  14
ATOM     14  C   LIG    1       -2.551  -4.195   0.004  0.00  0.00    +0.370 C 
BRANCH  14  17
ATOM     15  N   LIG    1       -1.413  -1.998   0.005  0.00  0.00    -0.730 N 
ATOM     16  H   LIG    1       -0.567  -2.472  -0.006  0.00  0.00    +0.400 HD
ATOM     17  C   LIG    1       -2.571  -2.688   0.012  0.00  0.00    +0.490 C 
ATOM     18  O   LIG    1       -3.630  -2.096   0.025  0.00  0.00    -0.520 OA
BRANCH  15  19
ATOM     19  C   LIG    1       -1.433  -0.534   0.013  0.00  0.00    +0.260 C 
BRANCH  19  21
ATOM     20  C   LIG    1       -0.019   1.526   0.010  0.00  0.00    +0.030 C 
ATOM     21  C   LIG    1        0.002  -0.004   0.002  0.00  0.00    +0.000 C 
ENDBRANCH  19  21
ENDBRANCH  15  19
ENDBRANCH  14  17
ENDBRANCH   1  14
TORSDOF 4
ENDMDL
MODEL      429
REMARK  Name = ZINC000033327106
REMARK                            x       y       z     vdW  Elec       q    Type
REMARK                         _______ _______ _______ _____ _____    ______ ____
ROOT
ATOM      1  C   LIG    1        2.439  -0.437  -1.202  0.00  0.00    -0.860 A 
ATOM      2  C   LIG    1        2.976   0.423  -2.093  0.00  0.00    +0.530 A 
ATOM      3  N   LIG    1        4.313   0.706  -2.041  0.00  0.00    -0.630 N 
ATOM      4  H   LIG    1        4.699   1.324  -2.681  0.00  0.00    +0.450 HD
ATOM      5  C   LIG    1        5.099   0.134  -1.110  0.00  0.00    +0.700 A 
ATOM      6  N   LIG    1        4.590  -0.727  -0.210  0.00  0.00    -0.650 N 
ATOM      7  H   LIG    1        5.170  -1.130   0.455  0.00  0.00    +0.440 HD
ATOM      8  O   LIG    1        6.285   0.399  -1.082  0.00  0.00    -0.520 OA
ATOM      9  C   LIG    1        3.275  -1.027  -0.224  0.00  0.00    +0.590 A 
ATOM     10  O   LIG    1        2.814  -1.806   0.591  0.00  0.00    -0.480 OA
ENDROOT
BRANCH   1  11
ATOM     11  S   LIG    1        0.718  -0.816  -1.251  0.00  0.00    +2.730 S 
ATOM     12  O   LIG    1        0.214  -0.235  -2.446  0.00  0.00    -0.960 OA
ATOM     13  O   LIG    1        0.603  -2.200  -0.951  0.00  0.00    -0.930 OA
BRANCH  11  15
ATOM     14  C   LIG    1       -0.018   1.461   0.010  0.00  0.00    +0.290 C 
ATOM     15  N   LIG    1        0.002  -0.004   0.002  0.00  0.00    -1.110 NA
ATOM     16  H   LIG    1       -0.404  -0.499   0.731  0.00  0.00    +0.420 HD
ENDBRANCH  11  15
ENDBRANCH   1  11
TORSDOF 2
ENDMDL
MODEL      430
REMARK  Name = ZINC000331090585
REMARK                            x       y       z     vdW  Elec       q    Type
REMARK                         _______ _______ _______ _____ _____    ______ ____
ROOT
ATOM      1  C   LIG    1        1.138  -1.621   4.584  0.00  0.00    +0.610 C 
ATOM      2  N   LIG    1        2.249  -2.006   5.242  0.00  0.00    -0.710 N 
ATOM      3  H   LIG    1        3.107  -2.003   4.788  0.00  0.00    +0.410 HD
ATOM      4  O   LIG    1        0.064  -1.625   5.152  0.00  0.00    -0.500 OA
ENDROOT
BRANCH   1   7
ATOM      5  C   LIG    1        0.731  -0.503   1.223  0.00  0.00    +0.190 A 
ATOM      6  N   LIG    1        0.199  -0.781   2.387  0.00  0.00    -0.440 NA
ATOM      7  C   LIG    1        1.226  -1.191   3.166  0.00  0.00    +0.130 A 
ATOM      8  N   LIG    1        2.309  -1.138   2.438  0.00  0.00    -0.350 NA
ATOM      9  O   LIG    1        2.041  -0.751   1.320  0.00  0.00    +0.100 OA
BRANCH   5  11
ATOM     10  C   LIG    1       -0.019   1.526   0.010  0.00  0.00    +0.060 C 
ATOM     11  C   LIG    1        0.002  -0.004   0.002  0.00  0.00    +0.200 C 
ENDBRANCH   5  11
ENDBRANCH   1   7
BRANCH   2  12
ATOM     12  C   LIG    1        2.163  -2.431   6.641  0.00  0.00    +0.260 C 
BRANCH  12  13
ATOM     13  C   LIG    1        3.555  -2.813   7.146  0.00  0.00    +0.220 C 
BRANCH  13  14
ATOM     14  O   LIG    1        4.394  -1.656   7.153  0.00  0.00    -0.550 OA
ATOM     15  H   LIG    1        4.072  -0.941   7.718  0.00  0.00    +0.380 HD
ENDBRANCH  13  14
BRANCH  13  16
ATOM     16  C   LIG    1        3.448  -3.374   8.565  0.00  0.00    +0.170 C 
BRANCH  16  17
ATOM     17  O   LIG    1        4.730  -3.839   8.992  0.00  0.00    -0.560 OA
ATOM     18  H   LIG    1        4.737  -4.208   9.886  0.00  0.00    +0.380 HD
ENDBRANCH  16  17
ENDBRANCH  13  16
ENDBRANCH  12  13
ENDBRANCH   2  12
TORSDOF 7
ENDMDL
MODEL      431
REMARK  Name = ZINC000253375607
REMARK                            x       y       z     vdW  Elec       q    Type
REMARK                         _______ _______ _______ _____ _____    ______ ____
ROOT
ATOM      1  C   LIG    1       -1.412  -0.526   0.013  0.00  0.00    +0.520 C 
ATOM      2  N   LIG    1       -1.640  -1.854   0.008  0.00  0.00    -0.610 N 
ATOM      3  C   LIG    1       -0.543  -2.837  -0.111  0.00  0.00    +0.250 C 
ATOM      4  C   LIG    1       -0.667  -3.895   0.986  0.00  0.00    +0.220 C 
ATOM      5  N   LIG    1       -2.033  -4.449   1.037  0.00  0.00    -0.650 NA
ATOM      6  H   LIG    1       -2.265  -4.919   0.175  0.00  0.00    +0.350 HD
ATOM      7  C   LIG    1       -2.983  -3.378   1.320  0.00  0.00    +0.180 C 
ATOM      8  C   LIG    1       -4.439  -3.850   1.471  0.00  0.00    -0.290 C 
ATOM      9  S   LIG    1       -5.363  -2.269   1.298  0.00  0.00    +2.380 S 
ATOM     10  C   LIG    1       -4.073  -1.362   0.359  0.00  0.00    -0.260 C 
ATOM     11  O   LIG    1       -5.523  -1.674   2.579  0.00  0.00    -0.930 OA
ATOM     12  O   LIG    1       -6.496  -2.474   0.466  0.00  0.00    -0.930 OA
ATOM     13  C   LIG    1       -2.986  -2.409   0.126  0.00  0.00    +0.200 C 
ATOM     14  O   LIG    1       -2.344   0.250   0.010  0.00  0.00    -0.520 OA
ENDROOT
BRANCH   1  16
ATOM     15  C   LIG    1       -0.019   1.526   0.025  0.00  0.00    +0.040 C 
ATOM     16  C   LIG    1        0.002  -0.004   0.021  0.00  0.00    +0.050 C 
ENDBRANCH   1  16
TORSDOF 1
ENDMDL
MODEL      432
REMARK  Name = ZINC000003647771
REMARK                            x       y       z     vdW  Elec       q    Type
REMARK                         _______ _______ _______ _____ _____    ______ ____
ROOT
ATOM      1  N   LIG    1       -3.925  -4.702   0.014  0.00  0.00    -0.620 N 
ATOM      2  C   LIG    1       -4.693  -4.989   1.108  0.00  0.00    +0.730 C 
ATOM      3  N   LIG    1       -5.793  -5.747   0.780  0.00  0.00    -0.720 N 
ATOM      4  H   LIG    1       -6.596  -5.895   1.304  0.00  0.00    +0.430 HD
ATOM      5  C   LIG    1       -5.481  -6.259  -0.491  0.00  0.00    +0.380 C 
ATOM      6  N   LIG    1       -6.054  -6.855  -1.623  0.00  0.00    -0.720 N 
ATOM      7  H   LIG    1       -6.913  -7.301  -1.688  0.00  0.00    +0.430 HD
ATOM      8  C   LIG    1       -5.129  -6.667  -2.620  0.00  0.00    +0.730 C 
ATOM      9  N   LIG    1       -4.179  -5.749  -2.272  0.00  0.00    -0.750 N 
ATOM     10  H   LIG    1       -3.316  -5.610  -2.692  0.00  0.00    +0.430 HD
ATOM     11  O   LIG    1       -5.153  -7.248  -3.687  0.00  0.00    -0.540 OA
ATOM     12  O   LIG    1       -4.435  -4.617   2.236  0.00  0.00    -0.530 OA
ATOM     13  C   LIG    1       -4.768  -5.003  -1.145  0.00  0.00    +0.430 C 
ENDROOT
BRANCH   1  14
ATOM     14  C   LIG    1       -2.551  -4.195   0.004  0.00  0.00    +0.360 C 
BRANCH  14  17
ATOM     15  N   LIG    1       -1.413  -1.998   0.005  0.00  0.00    -0.730 N 
ATOM     16  H   LIG    1       -0.567  -2.472  -0.006  0.00  0.00    +0.400 HD
ATOM     17  C   LIG    1       -2.571  -2.688   0.012  0.00  0.00    +0.490 C 
ATOM     18  O   LIG    1       -3.630  -2.096   0.025  0.00  0.00    -0.520 OA
BRANCH  15  19
ATOM     19  C   LIG    1       -1.433  -0.534   0.013  0.00  0.00    +0.260 C 
BRANCH  19  21
ATOM     20  C   LIG    1       -0.019   1.526   0.010  0.00  0.00    +0.030 C 
ATOM     21  C   LIG    1        0.002  -0.004   0.002  0.00  0.00    +0.000 C 
ENDBRANCH  19  21
ENDBRANCH  15  19
ENDBRANCH  14  17
ENDBRANCH   1  14
TORSDOF 4
ENDMDL
MODEL      433
REMARK  Name = ZINC000253375608
REMARK                            x       y       z     vdW  Elec       q    Type
REMARK                         _______ _______ _______ _____ _____    ______ ____
ROOT
ATOM      1  C   LIG    1       -1.412  -0.526   0.013  0.00  0.00    +0.510 C 
ATOM      2  N   LIG    1       -1.640  -1.854   0.008  0.00  0.00    -0.610 N 
ATOM      3  C   LIG    1       -0.519  -2.806  -0.002  0.00  0.00    +0.280 C 
ATOM      4  C   LIG    1       -0.755  -3.811  -1.136  0.00  0.00    +0.180 C 
ATOM      5  N   LIG    1       -2.073  -4.431  -0.960  0.00  0.00    -0.690 NA
ATOM      6  H   LIG    1       -2.204  -5.193  -1.608  0.00  0.00    +0.360 HD
ATOM      7  C   LIG    1       -3.158  -3.448  -1.078  0.00  0.00    +0.160 C 
ATOM      8  C   LIG    1       -4.501  -4.175  -0.802  0.00  0.00    -0.290 C 
ATOM      9  S   LIG    1       -4.481  -4.373   1.020  0.00  0.00    +2.410 S 
ATOM     10  C   LIG    1       -3.322  -3.004   1.381  0.00  0.00    -0.320 C 
ATOM     11  O   LIG    1       -3.870  -5.612   1.352  0.00  0.00    -0.920 OA
ATOM     12  O   LIG    1       -5.764  -4.055   1.542  0.00  0.00    -0.940 OA
ATOM     13  C   LIG    1       -3.010  -2.375   0.018  0.00  0.00    +0.280 C 
ATOM     14  O   LIG    1       -2.344   0.250   0.026  0.00  0.00    -0.530 OA
ENDROOT
BRANCH   1  16
ATOM     15  C   LIG    1       -0.019   1.526   0.010  0.00  0.00    +0.040 C 
ATOM     16  C   LIG    1        0.002  -0.004   0.002  0.00  0.00    +0.050 C 
ENDBRANCH   1  16
TORSDOF 1
ENDMDL
MODEL      434
REMARK  Name = ZINC000008775355
REMARK                            x       y       z     vdW  Elec       q    Type
REMARK                         _______ _______ _______ _____ _____    ______ ____
ROOT
ATOM      1  C   LIG    1        0.679  -2.187   1.125  0.00  0.00    +0.010 C 
ATOM      2  C   LIG    1        0.651  -2.712   2.575  0.00  0.00    +0.070 C 
ATOM      3  C   LIG    1       -0.672  -3.502   2.673  0.00  0.00    +0.250 C 
ATOM      4  O   LIG    1       -1.495  -2.935   1.628  0.00  0.00    -0.230 OA
ATOM      5  N   LIG    1       -0.564  -2.704   0.504  0.00  0.00    -0.150 NA
ENDROOT
BRANCH   1   9
ATOM      6  C   LIG    1       -0.438   1.460   1.427  0.00  0.00    +0.290 C 
ATOM      7  N   LIG    1       -0.461  -0.002   1.331  0.00  0.00    -0.720 N 
ATOM      8  H   LIG    1       -1.299  -0.481   1.424  0.00  0.00    +0.410 HD
ATOM      9  C   LIG    1        0.683  -0.680   1.113  0.00  0.00    +0.520 C 
ATOM     10  O   LIG    1        1.716  -0.078   0.907  0.00  0.00    -0.490 OA
ENDBRANCH   1   9
BRANCH   1  11
ATOM     11  C   LIG    1        1.887  -2.719   0.396  0.00  0.00    +0.540 C 
ATOM     12  N   LIG    1        1.843  -3.934  -0.184  0.00  0.00    -0.720 N 
ATOM     13  H   LIG    1        1.061  -4.497  -0.072  0.00  0.00    +0.410 HD
ATOM     14  C   LIG    1        2.976  -4.405  -0.984  0.00  0.00    +0.290 C 
ATOM     15  O   LIG    1        2.898  -2.053   0.333  0.00  0.00    -0.480 OA
ENDBRANCH   1  11
BRANCH   5  16
ATOM     16  O   LIG    1       -1.117  -1.737  -0.444  0.00  0.00    -0.240 OA
ATOM     17  C   LIG    1       -1.397  -2.283  -1.735  0.00  0.00    +0.260 C 
ENDBRANCH   5  16
TORSDOF 3
ENDMDL
MODEL      435
REMARK  Name = ZINC000247885177
REMARK                            x       y       z     vdW  Elec       q    Type
REMARK                         _______ _______ _______ _____ _____    ______ ____
ROOT
ATOM      1  O   LIG    1        0.002  -0.004   0.002  0.00  0.00    -0.510 OA
ATOM      2  C   LIG    1       -0.014   1.211   0.009  0.00  0.00    +0.650 C 
ATOM      3  N   LIG    1       -1.145   1.945   0.029  0.00  0.00    -0.700 N 
ATOM      4  H   LIG    1       -2.048   1.607  -0.076  0.00  0.00    +0.440 HD
ATOM      5  C   LIG    1       -0.765   3.346   0.239  0.00  0.00    +0.180 C 
ATOM      6  C   LIG    1        0.724   3.278   0.577  0.00  0.00    +0.400 C 
ATOM      7  O   LIG    1        0.953   3.210   1.983  0.00  0.00    -0.360 OA
ATOM      8  C   LIG    1        0.317   4.236   2.743  0.00  0.00    +0.160 C 
ATOM      9  C   LIG    1       -1.196   4.033   2.648  0.00  0.00    +0.120 C 
ATOM     10  C   LIG    1       -1.637   4.064   1.220  0.00  0.00    +0.200 C 
ATOM     11  O   LIG    1        1.095   1.975   0.002  0.00  0.00    -0.310 OA
ENDROOT
BRANCH   9  12
ATOM     12  O   LIG    1       -1.537   2.758   3.197  0.00  0.00    -0.530 OA
ATOM     13  H   LIG    1       -1.292   2.652   4.126  0.00  0.00    +0.380 HD
ENDBRANCH   9  12
BRANCH  10  14
ATOM     14  O   LIG    1       -2.957   3.522   1.145  0.00  0.00    -0.540 OA
ATOM     15  H   LIG    1       -3.612   4.006   1.667  0.00  0.00    +0.390 HD
ENDBRANCH  10  14
BRANCH   8  16
ATOM     16  C   LIG    1        0.760   4.147   4.204  0.00  0.00    +0.210 C 
BRANCH  16  17
ATOM     17  O   LIG    1        2.159   4.425   4.296  0.00  0.00    -0.560 OA
ATOM     18  H   LIG    1        2.510   4.386   5.196  0.00  0.00    +0.390 HD
ENDBRANCH  16  17
ENDBRANCH   8  16
TORSDOF 4
ENDMDL
MODEL      436
REMARK  Name = ZINC000247885181
REMARK                            x       y       z     vdW  Elec       q    Type
REMARK                         _______ _______ _______ _____ _____    ______ ____
ROOT
ATOM      1  O   LIG    1        0.002  -0.004   0.002  0.00  0.00    -0.510 OA
ATOM      2  C   LIG    1       -0.014   1.211   0.009  0.00  0.00    +0.640 C 
ATOM      3  N   LIG    1       -1.147   1.929   0.029  0.00  0.00    -0.730 N 
ATOM      4  H   LIG    1       -2.047   1.568  -0.002  0.00  0.00    +0.440 HD
ATOM      5  C   LIG    1       -0.793   3.365   0.107  0.00  0.00    +0.230 C 
ATOM      6  C   LIG    1        0.713   3.357  -0.062  0.00  0.00    +0.400 C 
ATOM      7  O   LIG    1        1.481   4.190   0.737  0.00  0.00    -0.320 OA
ATOM      8  C   LIG    1        1.063   4.544   2.036  0.00  0.00    +0.190 C 
ATOM      9  C   LIG    1       -0.402   4.940   2.064  0.00  0.00    +0.140 C 
ATOM     10  C   LIG    1       -1.297   3.907   1.427  0.00  0.00    +0.190 C 
ATOM     11  O   LIG    1        1.099   1.960   0.002  0.00  0.00    -0.330 OA
ENDROOT
BRANCH   9  12
ATOM     12  O   LIG    1       -0.567   6.164   1.345  0.00  0.00    -0.540 OA
ATOM     13  H   LIG    1       -0.060   6.904   1.707  0.00  0.00    +0.380 HD
ENDBRANCH   9  12
BRANCH  10  14
ATOM     14  O   LIG    1       -2.596   4.477   1.254  0.00  0.00    -0.540 OA
ATOM     15  H   LIG    1       -3.014   4.760   2.079  0.00  0.00    +0.390 HD
ENDBRANCH  10  14
BRANCH   8  16
ATOM     16  C   LIG    1        1.274   3.352   2.971  0.00  0.00    +0.160 C 
BRANCH  16  17
ATOM     17  O   LIG    1        2.672   3.075   3.081  0.00  0.00    -0.560 OA
ATOM     18  H   LIG    1        2.881   2.329   3.660  0.00  0.00    +0.390 HD
ENDBRANCH  16  17
ENDBRANCH   8  16
TORSDOF 4
ENDMDL
MODEL      437
REMARK  Name = ZINC000253375610
REMARK                            x       y       z     vdW  Elec       q    Type
REMARK                         _______ _______ _______ _____ _____    ______ ____
ROOT
ATOM      1  C   LIG    1       -1.412  -0.526   0.013  0.00  0.00    +0.520 C 
ATOM      2  N   LIG    1       -1.640  -1.854   0.008  0.00  0.00    -0.610 N 
ATOM      3  C   LIG    1       -0.538  -2.838  -0.002  0.00  0.00    +0.290 C 
ATOM      4  C   LIG    1       -0.761  -3.865  -1.113  0.00  0.00    +0.180 C 
ATOM      5  N   LIG    1       -2.127  -4.420  -1.054  0.00  0.00    -0.670 NA
ATOM      6  H   LIG    1       -2.258  -5.131  -1.757  0.00  0.00    +0.360 HD
ATOM      7  C   LIG    1       -3.098  -3.346  -1.209  0.00  0.00    +0.140 C 
ATOM      8  C   LIG    1       -4.553  -3.796  -1.325  0.00  0.00    -0.300 C 
ATOM      9  S   LIG    1       -5.517  -2.372  -0.685  0.00  0.00    +2.380 S 
ATOM     10  C   LIG    1       -4.080  -1.337  -0.190  0.00  0.00    -0.250 C 
ATOM     11  O   LIG    1       -6.236  -2.772   0.474  0.00  0.00    -0.930 OA
ATOM     12  O   LIG    1       -6.201  -1.744  -1.761  0.00  0.00    -0.930 OA
ATOM     13  C   LIG    1       -2.994  -2.408   0.018  0.00  0.00    +0.260 C 
ATOM     14  O   LIG    1       -2.344   0.250   0.026  0.00  0.00    -0.520 OA
ENDROOT
BRANCH   1  16
ATOM     15  C   LIG    1       -0.019   1.526   0.010  0.00  0.00    +0.040 C 
ATOM     16  C   LIG    1        0.002  -0.004   0.002  0.00  0.00    +0.050 C 
ENDBRANCH   1  16
TORSDOF 1
ENDMDL
MODEL      438
REMARK  Name = ZINC000033327113
REMARK                            x       y       z     vdW  Elec       q    Type
REMARK                         _______ _______ _______ _____ _____    ______ ____
ROOT
ATOM      1  O   LIG    1        0.002  -0.004   0.002  0.00  0.00    -0.520 OA
ATOM      2  C   LIG    1       -0.014   1.212   0.009  0.00  0.00    +0.700 A 
ATOM      3  N   LIG    1       -1.194   1.859   0.029  0.00  0.00    -0.630 N 
ATOM      4  H   LIG    1       -2.020   1.351   0.037  0.00  0.00    +0.450 HD
ATOM      5  C   LIG    1       -1.238   3.226   0.037  0.00  0.00    +0.530 A 
ATOM      6  C   LIG    1       -0.088   3.933   0.025  0.00  0.00    -0.860 A 
ATOM      7  C   LIG    1        1.146   3.239   0.004  0.00  0.00    +0.590 A 
ATOM      8  O   LIG    1        2.197   3.855  -0.008  0.00  0.00    -0.490 OA
ATOM      9  N   LIG    1        1.147   1.891   0.001  0.00  0.00    -0.650 N 
ATOM     10  H   LIG    1        1.989   1.409  -0.013  0.00  0.00    +0.440 HD
ENDROOT
BRANCH   6  11
ATOM     11  S   LIG    1       -0.122   5.695   0.036  0.00  0.00    +2.730 S 
ATOM     12  O   LIG    1       -1.491   6.070  -0.026  0.00  0.00    -0.960 OA
ATOM     13  O   LIG    1        0.845   6.120  -0.914  0.00  0.00    -0.930 OA
BRANCH  11  14
ATOM     14  N   LIG    1        0.431   6.186   1.518  0.00  0.00    -1.080 NA
ATOM     15  H   LIG    1       -0.163   6.654   2.126  0.00  0.00    +0.420 HD
BRANCH  14  16
ATOM     16  C   LIG    1        1.816   5.915   1.910  0.00  0.00    +0.230 C 
ATOM     17  C   LIG    1        2.515   6.949   2.794  0.00  0.00    +0.020 C 
ATOM     18  C   LIG    1        2.086   5.604   3.383  0.00  0.00    +0.010 C 
ENDBRANCH  14  16
ENDBRANCH  11  14
ENDBRANCH   6  11
TORSDOF 3
ENDMDL
MODEL      439
REMARK  Name = ZINC000048989584
REMARK                            x       y       z     vdW  Elec       q    Type
REMARK                         _______ _______ _______ _____ _____    ______ ____
ROOT
ATOM      1  N   LIG    1        1.333  -2.667   2.182  0.00  0.00    -0.470 N 
ATOM      2  C   LIG    1        2.664  -2.865   2.125  0.00  0.00    +0.400 A 
ATOM      3  C   LIG    1        3.351  -3.322   3.231  0.00  0.00    -0.250 A 
ATOM      4  C   LIG    1        2.647  -3.583   4.431  0.00  0.00    +0.140 A 
ATOM      5  C   LIG    1        1.303  -3.376   4.465  0.00  0.00    -0.070 A 
ATOM      6  C   LIG    1        0.645  -2.904   3.314  0.00  0.00    +0.520 A 
ATOM      7  O   LIG    1       -0.560  -2.716   3.339  0.00  0.00    -0.530 OA
ENDROOT
BRANCH   3   8
ATOM      8  C   LIG    1        4.809  -3.536   3.163  0.00  0.00    +0.580 C 
ATOM      9  N   LIG    1        5.475  -3.983   4.246  0.00  0.00    -0.730 N 
ATOM     10  H   LIG    1        4.996  -4.163   5.070  0.00  0.00    +0.400 HD
ATOM     11  C   LIG    1        6.923  -4.196   4.179  0.00  0.00    +0.290 C 
ATOM     12  O   LIG    1        5.409  -3.310   2.130  0.00  0.00    -0.540 OA
ENDBRANCH   3   8
BRANCH   1  13
ATOM     13  C   LIG    1        0.625  -2.182   0.995  0.00  0.00    +0.330 C 
BRANCH  13  17
ATOM     14  C   LIG    1       -0.018   1.461   0.010  0.00  0.00    +0.290 C 
ATOM     15  N   LIG    1        0.002  -0.004   0.002  0.00  0.00    -0.730 N 
ATOM     16  H   LIG    1       -0.418  -0.491  -0.724  0.00  0.00    +0.410 HD
ATOM     17  C   LIG    1        0.604  -0.675   1.004  0.00  0.00    +0.500 C 
ATOM     18  O   LIG    1        1.130  -0.067   1.911  0.00  0.00    -0.520 OA
ENDBRANCH  13  17
ENDBRANCH   1  13
TORSDOF 3
ENDMDL
MODEL      440
REMARK  Name = ZINC000003831529
REMARK                            x       y       z     vdW  Elec       q    Type
REMARK                         _______ _______ _______ _____ _____    ______ ____
ROOT
ATOM      1  C5M   T A  1       -0.018   1.503   0.010  0.00  0.00    +0.130 C 
ATOM      2  C5    T A  1        0.002  -0.004   0.002  0.00  0.00    -0.260 A 
ATOM      3  C6    T A  1       -1.153  -0.704   0.004  0.00  0.00    +0.350 A 
ATOM      4  N1    T A  1       -1.116  -2.072  -0.004  0.00  0.00    -0.530 N 
ATOM      5  C2    T A  1        0.060  -2.726  -0.013  0.00  0.00    +0.700 A 
ATOM      6  N3    T A  1        1.226  -2.053  -0.016  0.00  0.00    -0.660 N 
ATOM      7  H3    T A  1        2.064  -2.540  -0.023  0.00  0.00    +0.430 HD
ATOM      8  O2    T A  1        0.069  -3.942  -0.020  0.00  0.00    -0.520 OA
ATOM      9  C4    T A  1        1.232  -0.705  -0.013  0.00  0.00    +0.550 A 
ATOM     10  O4    T A  1        2.287  -0.095  -0.016  0.00  0.00    -0.510 OA
ENDROOT
BRANCH   4  11
ATOM     11  C1*   T A  1       -2.369  -2.831  -0.002  0.00  0.00    +0.430 C 
ATOM     12  C2*   T A  1       -2.500  -3.655  -1.308  0.00  0.00    +0.010 C 
ATOM     13  C3*   T A  1       -3.449  -4.794  -0.844  0.00  0.00    +0.170 C 
ATOM     14  C4*   T A  1       -3.019  -5.000   0.625  0.00  0.00    +0.210 C 
ATOM     15  O4*   T A  1       -2.362  -3.801   1.057  0.00  0.00    -0.350 OA
BRANCH  13  16
ATOM     16  O3*   T A  1       -4.815  -4.383  -0.925  0.00  0.00    -0.560 OA
ATOM     17  H3*   T A  1       -5.105  -4.158  -1.819  0.00  0.00    +0.390 HD
ENDBRANCH  13  16
BRANCH  14  18
ATOM     18  C5*   T A  1       -4.251  -5.260   1.495  0.00  0.00    +0.200 C 
BRANCH  18  19
ATOM     19  O5*   T A  1       -3.837  -5.564   2.828  0.00  0.00    -0.570 OA
ATOM     20  H5*   T A  1       -4.567  -5.741   3.436  0.00  0.00    +0.380 HD
ENDBRANCH  18  19
ENDBRANCH  14  18
ENDBRANCH   4  11
TORSDOF 4
ENDMDL
MODEL      441
REMARK  Name = ZINC000002258796
REMARK                            x       y       z     vdW  Elec       q    Type
REMARK                         _______ _______ _______ _____ _____    ______ ____
ROOT
ATOM      1  N   LIG    1       -2.257  -3.028   0.007  0.00  0.00    -0.300 N 
ENDROOT
BRANCH   1   2
ATOM      2  N   LIG    1       -2.946  -2.839   1.171  0.00  0.00    -0.320 N 
ATOM      3  C   LIG    1       -2.620  -2.000   2.184  0.00  0.00    +0.340 A 
ATOM      4  N   LIG    1       -3.539  -2.124   3.102  0.00  0.00    -0.280 NA
ATOM      5  N   LIG    1       -4.415  -2.986   2.724  0.00  0.00    -0.290 NA
ATOM      6  C   LIG    1       -4.098  -3.446   1.545  0.00  0.00    +0.390 A 
ENDBRANCH   1   2
BRANCH   1   7
ATOM      7  C   LIG    1       -1.154  -2.065  -0.115  0.00  0.00    +0.230 C 
BRANCH   7   8
ATOM      8  C   LIG    1       -1.724  -0.652  -0.256  0.00  0.00    +0.060 C 
BRANCH   8  12
ATOM      9  N   LIG    1       -0.859   1.650  -0.516  0.00  0.00    -0.850 N 
ATOM     10  H   LIG    1       -1.778   1.960  -0.537  0.00  0.00    +0.400 HD
ATOM     11  H   LIG    1       -0.131   2.286  -0.597  0.00  0.00    +0.410 HD
ATOM     12  C   LIG    1       -0.593   0.336  -0.381  0.00  0.00    +0.520 C 
ATOM     13  O   LIG    1        0.556  -0.052  -0.359  0.00  0.00    -0.540 OA
ENDBRANCH   8  12
ENDBRANCH   7   8
ENDBRANCH   1   7
BRANCH   1  14
ATOM     14  C   LIG    1       -1.764  -4.408  -0.094  0.00  0.00    +0.210 C 
BRANCH  14  15
ATOM     15  C   LIG    1       -1.445  -4.731  -1.555  0.00  0.00    +0.080 C 
BRANCH  15  16
ATOM     16  C   LIG    1       -1.059  -6.182  -1.677  0.00  0.00    +0.520 C 
ATOM     17  O   LIG    1       -1.040  -6.889  -0.692  0.00  0.00    -0.540 OA
ATOM     18  N   LIG    1       -0.734  -6.695  -2.880  0.00  0.00    -0.850 N 
ATOM     19  H   LIG    1       -0.486  -7.629  -2.959  0.00  0.00    +0.410 HD
ATOM     20  H   LIG    1       -0.749  -6.129  -3.668  0.00  0.00    +0.400 HD
ENDBRANCH  15  16
ENDBRANCH  14  15
ENDBRANCH   1  14
TORSDOF 7
ENDMDL
MODEL      442
REMARK  Name = ZINC000049085746
REMARK                            x       y       z     vdW  Elec       q    Type
REMARK                         _______ _______ _______ _____ _____    ______ ____
ROOT
ATOM      1  N   LIG    1        1.333  -2.667   2.182  0.00  0.00    -0.600 N 
ATOM      2  C   LIG    1        2.664  -2.874   2.135  0.00  0.00    +0.520 C 
ATOM      3  O   LIG    1        3.276  -2.658   1.110  0.00  0.00    -0.530 OA
ATOM      4  C   LIG    1        0.595  -2.929   3.420  0.00  0.00    +0.300 C 
ENDROOT
BRANCH   1   5
ATOM      5  C   LIG    1        0.625  -2.182   0.995  0.00  0.00    +0.330 C 
BRANCH   5   9
ATOM      6  C   LIG    1       -0.018   1.461   0.010  0.00  0.00    +0.290 C 
ATOM      7  N   LIG    1        0.002  -0.004   0.002  0.00  0.00    -0.740 N 
ATOM      8  H   LIG    1       -0.418  -0.491  -0.724  0.00  0.00    +0.400 HD
ATOM      9  C   LIG    1        0.604  -0.675   1.004  0.00  0.00    +0.490 C 
ATOM     10  O   LIG    1        1.130  -0.067   1.911  0.00  0.00    -0.530 OA
ENDBRANCH   5   9
ENDBRANCH   1   5
BRANCH   2  11
ATOM     11  C   LIG    1        3.393  -3.373   3.356  0.00  0.00    +0.320 C 
BRANCH  11  12
ATOM     12  N   LIG    1        4.819  -3.515   3.050  0.00  0.00    -0.740 N 
ATOM     13  H   LIG    1        5.149  -3.295   2.164  0.00  0.00    +0.410 HD
ATOM     14  C   LIG    1        5.672  -3.950   3.998  0.00  0.00    +0.710 C 
ATOM     15  N   LIG    1        6.983  -4.081   3.716  0.00  0.00    -0.720 N 
ATOM     16  H   LIG    1        7.313  -3.861   2.831  0.00  0.00    +0.400 HD
ATOM     17  O   LIG    1        5.258  -4.225   5.108  0.00  0.00    -0.590 OA
BRANCH  15  18
ATOM     18  C   LIG    1        7.910  -4.554   4.747  0.00  0.00    +0.240 C 
ATOM     19  C   LIG    1        8.956  -5.592   4.334  0.00  0.00    +0.010 C 
ATOM     20  C   LIG    1        9.380  -4.149   4.615  0.00  0.00    +0.020 C 
ENDBRANCH  15  18
ENDBRANCH  11  12
ENDBRANCH   2  11
TORSDOF 5
ENDMDL
MODEL      443
REMARK  Name = ZINC000083872762
REMARK                            x       y       z     vdW  Elec       q    Type
REMARK                         _______ _______ _______ _____ _____    ______ ____
ROOT
ATOM      1  N   LIG    1        1.461  -3.825  -2.510  0.00  0.00    -0.720 N 
ATOM      2  H   LIG    1        1.042  -4.275  -1.760  0.00  0.00    +0.410 HD
ATOM      3  C   LIG    1        2.026  -4.546  -3.498  0.00  0.00    +0.530 C 
ATOM      4  O   LIG    1        2.550  -3.983  -4.436  0.00  0.00    -0.520 OA
ENDROOT
BRANCH   3   5
ATOM      5  C   LIG    1        2.008  -6.051  -3.438  0.00  0.00    +0.160 C 
ATOM      6  C   LIG    1        0.642  -6.565  -3.900  0.00  0.00    +0.200 C 
ATOM      7  O   LIG    1        0.655  -7.995  -3.913  0.00  0.00    -0.370 OA
ATOM      8  C   LIG    1        1.660  -8.554  -4.762  0.00  0.00    +0.190 C 
ATOM      9  C   LIG    1        3.037  -8.061  -4.309  0.00  0.00    +0.210 C 
ATOM     10  N   LIG    1        3.054  -6.591  -4.319  0.00  0.00    -0.670 NA
ATOM     11  H   LIG    1        2.953  -6.235  -5.258  0.00  0.00    +0.360 HD
ENDBRANCH   3   5
BRANCH   1  12
ATOM     12  C   LIG    1        1.479  -2.361  -2.569  0.00  0.00    +0.370 C 
BRANCH  12  13
ATOM     13  C   LIG    1        0.786  -1.801  -1.353  0.00  0.00    +0.460 C 
ATOM     14  O   LIG    1        0.325  -2.548  -0.523  0.00  0.00    -0.500 OA
BRANCH  13  15
ATOM     15  O   LIG    1        0.682  -0.472  -1.193  0.00  0.00    -0.350 OA
BRANCH  15  17
ATOM     16  C   LIG    1       -0.019   1.526   0.010  0.00  0.00    +0.070 C 
ATOM     17  C   LIG    1        0.002  -0.004   0.002  0.00  0.00    +0.200 C 
ENDBRANCH  15  17
ENDBRANCH  13  15
ENDBRANCH  12  13
ENDBRANCH   1  12
TORSDOF 5
ENDMDL
MODEL      444
REMARK  Name = ZINC000083872760
REMARK                            x       y       z     vdW  Elec       q    Type
REMARK                         _______ _______ _______ _____ _____    ______ ____
ROOT
ATOM      1  N   LIG    1        1.461  -3.825  -2.510  0.00  0.00    -0.730 N 
ATOM      2  H   LIG    1        1.042  -4.275  -1.760  0.00  0.00    +0.410 HD
ATOM      3  C   LIG    1        2.026  -4.546  -3.498  0.00  0.00    +0.520 C 
ATOM      4  O   LIG    1        2.550  -3.983  -4.436  0.00  0.00    -0.510 OA
ENDROOT
BRANCH   3   5
ATOM      5  C   LIG    1        2.008  -6.051  -3.438  0.00  0.00    +0.110 C 
ATOM      6  C   LIG    1        3.118  -6.539  -2.502  0.00  0.00    +0.240 C 
ATOM      7  O   LIG    1        3.144  -7.969  -2.507  0.00  0.00    -0.380 OA
ATOM      8  C   LIG    1        3.361  -8.536  -3.801  0.00  0.00    +0.220 C 
ATOM      9  C   LIG    1        2.255  -8.069  -4.750  0.00  0.00    +0.160 C 
ATOM     10  N   LIG    1        2.232  -6.599  -4.784  0.00  0.00    -0.670 NA
ATOM     11  H   LIG    1        1.536  -6.263  -5.432  0.00  0.00    +0.350 HD
ENDBRANCH   3   5
BRANCH   1  12
ATOM     12  C   LIG    1        1.479  -2.361  -2.569  0.00  0.00    +0.370 C 
BRANCH  12  13
ATOM     13  C   LIG    1        0.786  -1.801  -1.353  0.00  0.00    +0.460 C 
ATOM     14  O   LIG    1        0.325  -2.548  -0.523  0.00  0.00    -0.500 OA
BRANCH  13  15
ATOM     15  O   LIG    1        0.682  -0.472  -1.193  0.00  0.00    -0.350 OA
BRANCH  15  17
ATOM     16  C   LIG    1       -0.019   1.526   0.010  0.00  0.00    +0.070 C 
ATOM     17  C   LIG    1        0.002  -0.004   0.002  0.00  0.00    +0.200 C 
ENDBRANCH  15  17
ENDBRANCH  13  15
ENDBRANCH  12  13
ENDBRANCH   1  12
TORSDOF 5
ENDMDL
MODEL      445
REMARK  Name = ZINC000005592164
REMARK                            x       y       z     vdW  Elec       q    Type
REMARK                         _______ _______ _______ _____ _____    ______ ____
ROOT
ATOM      1  N   LIG    1       -2.806  -3.896   0.008  0.00  0.00    -1.120 NA
ATOM      2  H   LIG    1       -1.966  -4.326  -0.220  0.00  0.00    +0.430 HD
ENDROOT
BRANCH   1   3
ATOM      3  S   LIG    1       -4.130  -4.816   0.387  0.00  0.00    +2.790 S 
ATOM      4  O   LIG    1       -4.663  -4.276   1.588  0.00  0.00    -0.970 OA
ATOM      5  O   LIG    1       -3.728  -6.172   0.256  0.00  0.00    -0.960 OA
BRANCH   3   6
ATOM      6  N   LIG    1       -5.265  -4.549  -0.789  0.00  0.00    -1.010 NA
ATOM      7  C   LIG    1       -6.242  -3.469  -0.633  0.00  0.00    +0.300 C 
ATOM      8  C   LIG    1       -5.292  -5.394  -1.986  0.00  0.00    +0.290 C 
ENDBRANCH   3   6
ENDBRANCH   1   3
BRANCH   1   9
ATOM      9  C   LIG    1       -2.902  -2.434   0.017  0.00  0.00    +0.360 C 
BRANCH   9  10
ATOM     10  C   LIG    1       -1.518  -1.840   0.007  0.00  0.00    +0.460 C 
ATOM     11  O   LIG    1       -0.550  -2.562  -0.006  0.00  0.00    -0.500 OA
BRANCH  10  12
ATOM     12  O   LIG    1       -1.360  -0.507   0.012  0.00  0.00    -0.350 OA
BRANCH  12  14
ATOM     13  C   LIG    1       -0.019   1.526   0.010  0.00  0.00    +0.070 C 
ATOM     14  C   LIG    1        0.002  -0.004   0.002  0.00  0.00    +0.200 C 
ENDBRANCH  12  14
ENDBRANCH  10  12
ENDBRANCH   9  10
ENDBRANCH   1   9
TORSDOF 6
ENDMDL
MODEL      446
REMARK  Name = ZINC000014162528
REMARK                            x       y       z     vdW  Elec       q    Type
REMARK                         _______ _______ _______ _____ _____    ______ ____
ROOT
ATOM      1  C   LIG    1       -2.307  -3.058   0.008  0.00  0.00    +0.250 C 
ENDROOT
BRANCH   1   2
ATOM      2  C   LIG    1       -2.013  -4.532   0.121  0.00  0.00    +0.510 C 
ATOM      3  O   LIG    1       -2.378  -5.292  -0.751  0.00  0.00    -0.530 OA
ATOM      4  N   LIG    1       -1.345  -5.006   1.191  0.00  0.00    -0.850 N 
ATOM      5  H   LIG    1       -1.156  -5.955   1.264  0.00  0.00    +0.400 HD
ATOM      6  H   LIG    1       -1.054  -4.398   1.889  0.00  0.00    +0.400 HD
ENDBRANCH   1   2
BRANCH   1   7
ATOM      7  N   LIG    1       -3.037  -2.800  -1.236  0.00  0.00    -0.710 N 
ATOM      8  H   LIG    1       -2.556  -2.530  -2.034  0.00  0.00    +0.410 HD
ATOM      9  C   LIG    1       -4.378  -2.938  -1.272  0.00  0.00    +0.550 C 
ATOM     10  O   LIG    1       -4.979  -3.277  -0.274  0.00  0.00    -0.540 OA
BRANCH   9  11
ATOM     11  C   LIG    1       -5.129  -2.673  -2.551  0.00  0.00    -0.080 C 
ATOM     12  C   LIG    1       -5.772  -3.870  -3.254  0.00  0.00    +0.060 C 
ATOM     13  C   LIG    1       -6.648  -2.847  -2.527  0.00  0.00    +0.060 C 
ENDBRANCH   9  11
ENDBRANCH   1   7
BRANCH   1  14
ATOM     14  C   LIG    1       -0.993  -2.276  -0.001  0.00  0.00    +0.070 C 
BRANCH  14  15
ATOM     15  C   LIG    1       -1.293  -0.775   0.010  0.00  0.00    +0.060 C 
BRANCH  15  19
ATOM     16  N   LIG    1       -0.016   1.344   0.009  0.00  0.00    -0.860 N 
ATOM     17  H   LIG    1       -0.863   1.817   0.016  0.00  0.00    +0.400 HD
ATOM     18  H   LIG    1        0.817   1.840   0.004  0.00  0.00    +0.400 HD
ATOM     19  C   LIG    1        0.002  -0.004   0.002  0.00  0.00    +0.520 C 
ATOM     20  O   LIG    1        1.060  -0.596  -0.011  0.00  0.00    -0.540 OA
ENDBRANCH  15  19
ENDBRANCH  14  15
ENDBRANCH   1  14
TORSDOF 6
ENDMDL
MODEL      447
REMARK  Name = ZINC000002484659
REMARK                            x       y       z     vdW  Elec       q    Type
REMARK                         _______ _______ _______ _____ _____    ______ ____
ROOT
ATOM      1  S   LIG    1       -2.551  -3.204   0.009  0.00  0.00    +2.420 S 
ATOM      2  O   LIG    1       -3.237  -2.949  -1.209  0.00  0.00    -0.930 OA
ATOM      3  O   LIG    1       -3.214  -2.962   1.243  0.00  0.00    -0.930 OA
ENDROOT
BRANCH   1   4
ATOM      4  C   LIG    1       -0.993  -2.276  -0.001  0.00  0.00    -0.320 C 
BRANCH   4   5
ATOM      5  C   LIG    1       -1.293  -0.775   0.010  0.00  0.00    +0.080 C 
BRANCH   5   9
ATOM      6  N   LIG    1       -0.016   1.344   0.009  0.00  0.00    -0.850 N 
ATOM      7  H   LIG    1       -0.863   1.817   0.016  0.00  0.00    +0.400 HD
ATOM      8  H   LIG    1        0.817   1.840   0.004  0.00  0.00    +0.410 HD
ATOM      9  C   LIG    1        0.002  -0.004   0.002  0.00  0.00    +0.520 C 
ATOM     10  O   LIG    1        1.060  -0.596  -0.011  0.00  0.00    -0.540 OA
ENDBRANCH   5   9
ENDBRANCH   4   5
ENDBRANCH   1   4
BRANCH   1  11
ATOM     11  C   LIG    1       -1.965  -4.920  -0.006  0.00  0.00    -0.320 C 
BRANCH  11  12
ATOM     12  C   LIG    1       -3.165  -5.869   0.001  0.00  0.00    +0.080 C 
BRANCH  12  13
ATOM     13  C   LIG    1       -2.678  -7.295  -0.011  0.00  0.00    +0.520 C 
ATOM     14  O   LIG    1       -1.488  -7.530  -0.024  0.00  0.00    -0.540 OA
ATOM     15  N   LIG    1       -3.565  -8.310  -0.009  0.00  0.00    -0.850 N 
ATOM     16  H   LIG    1       -3.251  -9.228  -0.017  0.00  0.00    +0.410 HD
ATOM     17  H   LIG    1       -4.516  -8.123   0.002  0.00  0.00    +0.400 HD
ENDBRANCH  12  13
ENDBRANCH  11  12
ENDBRANCH   1  11
TORSDOF 6
ENDMDL
MODEL      448
REMARK  Name = ZINC000033369568
REMARK                            x       y       z     vdW  Elec       q    Type
REMARK                         _______ _______ _______ _____ _____    ______ ____
ROOT
ATOM      1  N   LIG    1        0.796  -0.399  -1.397  0.00  0.00    -1.000 NA
ATOM      2  C   LIG    1        0.060  -0.584  -2.656  0.00  0.00    +0.300 C 
ATOM      3  C   LIG    1        0.726   0.269  -3.740  0.00  0.00    +0.170 C 
ATOM      4  N   LIG    1        2.158  -0.056  -3.804  0.00  0.00    -0.530 NA
ATOM      5  C   LIG    1        2.837   0.280  -2.545  0.00  0.00    +0.170 C 
ATOM      6  C   LIG    1        2.257  -0.567  -1.413  0.00  0.00    +0.300 C 
ENDROOT
BRANCH   1   8
ATOM      7  C   LIG    1       -0.022   1.810   0.012  0.00  0.00    -0.280 C 
ATOM      8  S   LIG    1        0.002  -0.004   0.002  0.00  0.00    +2.610 S 
ATOM      9  O   LIG    1       -1.309  -0.519  -0.182  0.00  0.00    -0.950 OA
ATOM     10  O   LIG    1        0.845  -0.497   1.035  0.00  0.00    -0.950 OA
ENDBRANCH   1   8
BRANCH   4  11
ATOM     11  C   LIG    1        2.799   0.614  -4.943  0.00  0.00    +0.190 C 
BRANCH  11  12
ATOM     12  C   LIG    1        4.215   0.063  -5.126  0.00  0.00    +0.180 C 
BRANCH  12  13
ATOM     13  O   LIG    1        4.146  -1.317  -5.489  0.00  0.00    -0.560 OA
ATOM     14  H   LIG    1        5.009  -1.732  -5.622  0.00  0.00    +0.380 HD
ENDBRANCH  12  13
ENDBRANCH  11  12
ENDBRANCH   4  11
TORSDOF 4
ENDMDL
MODEL      449
REMARK  Name = ZINC000014162531
REMARK                            x       y       z     vdW  Elec       q    Type
REMARK                         _______ _______ _______ _____ _____    ______ ____
ROOT
ATOM      1  C   LIG    1       -2.307  -3.058   0.008  0.00  0.00    +0.250 C 
ENDROOT
BRANCH   1   2
ATOM      2  C   LIG    1       -2.016  -4.531  -0.127  0.00  0.00    +0.510 C 
ATOM      3  O   LIG    1       -2.364  -5.300   0.744  0.00  0.00    -0.530 OA
ATOM      4  N   LIG    1       -1.368  -4.993  -1.215  0.00  0.00    -0.850 N 
ATOM      5  H   LIG    1       -1.181  -5.941  -1.302  0.00  0.00    +0.400 HD
ATOM      6  H   LIG    1       -1.090  -4.378  -1.911  0.00  0.00    +0.400 HD
ENDBRANCH   1   2
BRANCH   1   7
ATOM      7  N   LIG    1       -3.013  -2.814   1.268  0.00  0.00    -0.710 N 
ATOM      8  H   LIG    1       -2.517  -2.551   2.059  0.00  0.00    +0.410 HD
ATOM      9  C   LIG    1       -4.353  -2.952   1.327  0.00  0.00    +0.550 C 
ATOM     10  O   LIG    1       -4.973  -3.280   0.338  0.00  0.00    -0.540 OA
BRANCH   9  11
ATOM     11  C   LIG    1       -5.079  -2.701   2.623  0.00  0.00    -0.070 C 
ATOM     12  C   LIG    1       -5.990  -1.473   2.696  0.00  0.00    +0.060 C 
ATOM     13  C   LIG    1       -6.599  -2.875   2.627  0.00  0.00    +0.060 C 
ENDBRANCH   9  11
ENDBRANCH   1   7
BRANCH   1  14
ATOM     14  C   LIG    1       -0.993  -2.276  -0.001  0.00  0.00    +0.070 C 
BRANCH  14  15
ATOM     15  C   LIG    1       -1.293  -0.775   0.010  0.00  0.00    +0.060 C 
BRANCH  15  19
ATOM     16  N   LIG    1       -0.016   1.344   0.009  0.00  0.00    -0.860 N 
ATOM     17  H   LIG    1       -0.863   1.817   0.016  0.00  0.00    +0.400 HD
ATOM     18  H   LIG    1        0.817   1.840   0.004  0.00  0.00    +0.400 HD
ATOM     19  C   LIG    1        0.002  -0.004   0.002  0.00  0.00    +0.520 C 
ATOM     20  O   LIG    1        1.060  -0.596  -0.011  0.00  0.00    -0.540 OA
ENDBRANCH  15  19
ENDBRANCH  14  15
ENDBRANCH   1  14
TORSDOF 6
ENDMDL
MODEL      450
REMARK  Name = ZINC000012202194
REMARK                            x       y       z     vdW  Elec       q    Type
REMARK                         _______ _______ _______ _____ _____    ______ ____
ROOT
ATOM      1  C   LIG    1       -1.360  -0.676  -0.051  0.00  0.00    +0.000 C 
ATOM      2  C   LIG    1       -2.308  -0.323  -1.199  0.00  0.00    +0.040 C 
ATOM      3  C   LIG    1       -3.566  -1.191  -1.102  0.00  0.00    +0.300 C 
ATOM      4  N   LIG    1       -3.164  -2.604  -1.064  0.00  0.00    -0.600 N 
ATOM      5  C   LIG    1       -2.186  -3.033  -0.055  0.00  0.00    +0.310 C 
ATOM      6  C   LIG    1       -0.943  -2.144  -0.164  0.00  0.00    +0.060 C 
ENDROOT
BRANCH   4   7
ATOM      7  C   LIG    1       -3.691  -3.504  -1.952  0.00  0.00    +0.490 A 
ATOM      8  C   LIG    1       -3.887  -4.832  -1.588  0.00  0.00    +0.030 A 
ATOM      9  N   LIG    1       -4.397  -5.680  -2.463  0.00  0.00    -0.070 NA
ATOM     10  N   LIG    1       -4.718  -5.304  -3.650  0.00  0.00    -0.330 NA
ATOM     11  C   LIG    1       -4.552  -4.041  -4.056  0.00  0.00    +0.590 A 
ATOM     12  O   LIG    1       -4.868  -3.720  -5.189  0.00  0.00    -0.520 OA
ATOM     13  N   LIG    1       -4.041  -3.118  -3.214  0.00  0.00    -0.620 N 
ATOM     14  H   LIG    1       -3.918  -2.200  -3.502  0.00  0.00    +0.420 HD
ENDBRANCH   4   7
BRANCH   1  18
ATOM     15  N   LIG    1       -0.260   1.540  -0.045  0.00  0.00    -0.850 N 
ATOM     16  H   LIG    1       -1.138   1.941   0.054  0.00  0.00    +0.400 HD
ATOM     17  H   LIG    1        0.527   2.104  -0.092  0.00  0.00    +0.410 HD
ATOM     18  C   LIG    1       -0.136   0.201  -0.124  0.00  0.00    +0.520 C 
ATOM     19  O   LIG    1        0.961  -0.300  -0.253  0.00  0.00    -0.540 OA
ENDBRANCH   1  18
TORSDOF 2
ENDMDL
MODEL      451
REMARK  Name = ZINC000004096029
REMARK                            x       y       z     vdW  Elec       q    Type
REMARK                         _______ _______ _______ _____ _____    ______ ____
ROOT
ATOM      1  C   LIG    1       -1.136  -2.159   0.001  0.00  0.00    +0.250 C 
ATOM      2  C   LIG    1       -1.020  -2.661  -1.440  0.00  0.00    +0.360 C 
ATOM      3  O   LIG    1       -2.166  -2.240  -2.183  0.00  0.00    -0.380 OA
ATOM      4  C   LIG    1       -3.405  -2.747  -1.682  0.00  0.00    +0.150 C 
ATOM      5  C   LIG    1       -3.616  -2.248  -0.250  0.00  0.00    +0.120 C 
ATOM      6  C   LIG    1       -2.433  -2.692   0.618  0.00  0.00    +0.190 C 
ENDROOT
BRANCH   1   9
ATOM      7  C   LIG    1       -0.018   1.503   0.010  0.00  0.00    +0.110 C 
ATOM      8  C   LIG    1        0.002  -0.004   0.002  0.00  0.00    +0.520 C 
ATOM      9  N   LIG    1       -1.156  -0.694   0.009  0.00  0.00    -0.720 N 
ATOM     10  H   LIG    1       -2.002  -0.220   0.020  0.00  0.00    +0.400 HD
ATOM     11  O   LIG    1        1.060  -0.596  -0.011  0.00  0.00    -0.540 OA
ENDBRANCH   1   9
BRANCH   5  12
ATOM     12  O   LIG    1       -4.826  -2.800   0.274  0.00  0.00    -0.550 OA
ATOM     13  H   LIG    1       -5.617  -2.562  -0.230  0.00  0.00    +0.380 HD
ENDBRANCH   5  12
BRANCH   2  14
ATOM     14  O   LIG    1       -0.947  -4.088  -1.443  0.00  0.00    -0.550 OA
ATOM     15  H   LIG    1       -0.872  -4.476  -2.326  0.00  0.00    +0.380 HD
ENDBRANCH   2  14
BRANCH   6  16
ATOM     16  O   LIG    1       -2.387  -4.119   0.672  0.00  0.00    -0.530 OA
ATOM     17  H   LIG    1       -3.182  -4.524   1.046  0.00  0.00    +0.390 HD
ENDBRANCH   6  16
BRANCH   4  18
ATOM     18  C   LIG    1       -4.552  -2.258  -2.568  0.00  0.00    +0.190 C 
BRANCH  18  19
ATOM     19  O   LIG    1       -4.417  -2.818  -3.875  0.00  0.00    -0.560 OA
ATOM     20  H   LIG    1       -5.112  -2.550  -4.492  0.00  0.00    +0.380 HD
ENDBRANCH  18  19
ENDBRANCH   4  18
TORSDOF 6
ENDMDL
MODEL      452
REMARK  Name = ZINC000004899448
REMARK                            x       y       z     vdW  Elec       q    Type
REMARK                         _______ _______ _______ _____ _____    ______ ____
ROOT
ATOM      1  CA  PRO A  1       -2.307  -3.058   0.008  0.00  0.00    +0.160 C 
ENDROOT
BRANCH   1   2
ATOM      2  N   PRO A  1       -3.013  -2.814   1.268  0.00  0.00    -0.660 N 
ATOM      3  H   PRO A  1       -2.517  -2.551   2.059  0.00  0.00    +0.400 HD
ATOM      4  C   PRO A  1       -4.353  -2.952   1.327  0.00  0.00    +0.500 C 
ATOM      5  O   PRO A  1       -4.973  -3.280   0.338  0.00  0.00    -0.540 OA
BRANCH   4   6
ATOM      6  CA  PRO A  1       -5.079  -2.701   2.623  0.00  0.00    +0.160 C 
ATOM      7  CB  PRO A  1       -4.593  -3.694   3.699  0.00  0.00    +0.100 C 
ATOM      8  CG  PRO A  1       -5.894  -4.037   4.472  0.00  0.00    +0.080 C 
ATOM      9  CD  PRO A  1       -6.946  -4.027   3.334  0.00  0.00    +0.270 C 
ATOM     10  N   PRO A  1       -6.525  -2.923   2.439  0.00  0.00    -0.500 N 
ATOM     11  H1  PRO A  1       -6.708  -3.175   1.480  0.00  0.00    +0.440 HD
ATOM     12  H2  PRO A  1       -7.034  -2.084   2.674  0.00  0.00    +0.430 HD
ENDBRANCH   4   6
ENDBRANCH   1   2
BRANCH   1  13
ATOM     13  C   PRO A  1       -2.016  -4.531  -0.127  0.00  0.00    +0.490 C 
ATOM     14  OXT PRO A  1       -1.598  -4.976  -1.182  0.00  0.00    -0.680 OA
ATOM     15  O   PRO A  1       -2.198  -5.277   0.820  0.00  0.00    -0.690 OA
ENDBRANCH   1  13
BRANCH   1  16
ATOM     16  CB  PRO A  1       -0.993  -2.276  -0.001  0.00  0.00    +0.080 C 
BRANCH  16  17
ATOM     17  CG  PRO A  1       -1.293  -0.775   0.010  0.00  0.00    +0.030 C 
BRANCH  17  21
ATOM     18  NE2 PRO A  1       -0.016   1.344   0.009  0.00  0.00    -0.860 N 
ATOM     19 HE21 PRO A  1       -0.863   1.817   0.016  0.00  0.00    +0.400 HD
ATOM     20 HE22 PRO A  1        0.817   1.840   0.004  0.00  0.00    +0.400 HD
ATOM     21  CD  PRO A  1        0.002  -0.004   0.002  0.00  0.00    +0.510 C 
ATOM     22  OE1 PRO A  1        1.060  -0.596  -0.011  0.00  0.00    -0.530 OA
ENDBRANCH  17  21
ENDBRANCH  16  17
ENDBRANCH   1  16
TORSDOF 6
ENDMDL
MODEL      453
REMARK  Name = ZINC000096119247
REMARK                            x       y       z     vdW  Elec       q    Type
REMARK                         _______ _______ _______ _____ _____    ______ ____
ROOT
ATOM      1  C   LIG    1       -3.332  -2.811   2.523  0.00  0.00    +0.560 A 
ATOM      2  C   LIG    1       -4.718  -2.818   2.270  0.00  0.00    -0.160 A 
ATOM      3  N   LIG    1       -5.466  -2.836   1.153  0.00  0.00    -0.180 NA
ATOM      4  N   LIG    1       -6.717  -2.834   1.458  0.00  0.00    -0.010 NA
ATOM      5  N   LIG    1       -6.856  -2.815   2.855  0.00  0.00    -0.380 N 
ATOM      6  C   LIG    1       -8.111  -2.808   3.610  0.00  0.00    +0.380 C 
ATOM      7  C   LIG    1       -5.590  -2.804   3.373  0.00  0.00    +0.340 A 
ATOM      8  N   LIG    1       -5.081  -2.785   4.601  0.00  0.00    -0.570 NA
ATOM      9  C   LIG    1       -3.779  -2.779   4.788  0.00  0.00    +0.610 A 
ATOM     10  N   LIG    1       -2.919  -2.797   3.785  0.00  0.00    -0.600 NA
ENDROOT
BRANCH   1  13
ATOM     11  C   LIG    1       -1.135  -2.201   0.001  0.00  0.00    -0.030 C 
ATOM     12  C   LIG    1       -0.950  -2.826   1.396  0.00  0.00    +0.330 C 
ATOM     13  N   LIG    1       -2.423  -2.823   1.482  0.00  0.00    -0.600 N 
ATOM     14  C   LIG    1       -2.536  -2.840   0.011  0.00  0.00    +0.350 C 
BRANCH  11  18
ATOM     15  C   LIG    1       -0.018   1.461   0.010  0.00  0.00    +0.290 C 
ATOM     16  N   LIG    1        0.002  -0.004   0.002  0.00  0.00    -0.730 N 
ATOM     17  H   LIG    1        0.849  -0.478  -0.009  0.00  0.00    +0.400 HD
ATOM     18  C   LIG    1       -1.156  -0.694   0.009  0.00  0.00    +0.530 C 
ATOM     19  O   LIG    1       -2.214  -0.102   0.023  0.00  0.00    -0.520 OA
ENDBRANCH  11  18
ENDBRANCH   1  13
TORSDOF 2
ENDMDL
MODEL      454
REMARK  Name = ZINC000049226727
REMARK                            x       y       z     vdW  Elec       q    Type
REMARK                         _______ _______ _______ _____ _____    ______ ____
ROOT
ATOM      1  N   LIG    1        1.552  -3.749  -2.673  0.00  0.00    -0.600 N 
ATOM      2  C   LIG    1        2.578  -4.413  -2.103  0.00  0.00    +0.520 C 
ATOM      3  O   LIG    1        3.484  -3.797  -1.583  0.00  0.00    -0.530 OA
ATOM      4  C   LIG    1        0.457  -4.493  -3.301  0.00  0.00    +0.300 C 
ENDROOT
BRANCH   1   5
ATOM      5  C   LIG    1        1.532  -2.285  -2.665  0.00  0.00    +0.330 C 
BRANCH   5   8
ATOM      6  N   LIG    1        0.688  -0.476  -1.203  0.00  0.00    -0.730 N 
ATOM      7  H   LIG    1        1.042   0.162  -1.842  0.00  0.00    +0.400 HD
ATOM      8  C   LIG    1        0.827  -1.799  -1.425  0.00  0.00    +0.490 C 
ATOM      9  O   LIG    1        0.384  -2.597  -0.627  0.00  0.00    -0.530 OA
BRANCH   6  11
ATOM     10  C   LIG    1       -0.019   1.526   0.010  0.00  0.00    +0.030 C 
ATOM     11  C   LIG    1        0.002  -0.004   0.002  0.00  0.00    +0.250 C 
ENDBRANCH   6  11
ENDBRANCH   5   8
ENDBRANCH   1   5
BRANCH   2  12
ATOM     12  C   LIG    1        2.598  -5.920  -2.111  0.00  0.00    +0.340 C 
BRANCH  12  13
ATOM     13  N   LIG    1        3.807  -6.395  -1.434  0.00  0.00    -0.700 N 
ATOM     14  H   LIG    1        4.441  -5.758  -1.068  0.00  0.00    +0.420 HD
ATOM     15  C   LIG    1        4.040  -7.718  -1.321  0.00  0.00    +0.650 C 
ATOM     16  O   LIG    1        3.246  -8.516  -1.779  0.00  0.00    -0.570 OA
BRANCH  15  17
ATOM     17  O   LIG    1        5.151  -8.155  -0.699  0.00  0.00    -0.370 OA
ATOM     18  C   LIG    1        5.336  -9.593  -0.613  0.00  0.00    +0.310 C 
ENDBRANCH  15  17
ENDBRANCH  12  13
ENDBRANCH   2  12
TORSDOF 6
ENDMDL
MODEL      455
REMARK  Name = ZINC000088346542
REMARK                            x       y       z     vdW  Elec       q    Type
REMARK                         _______ _______ _______ _____ _____    ______ ____
ROOT
ATOM      1  O   LIG    1        0.002  -0.004   0.002  0.00  0.00    -0.520 OA
ATOM      2  C   LIG    1       -0.014   1.211   0.009  0.00  0.00    +0.610 C 
ATOM      3  N   LIG    1        1.143   1.901   0.001  0.00  0.00    -0.710 N 
ATOM      4  H   LIG    1        1.130   2.871   0.007  0.00  0.00    +0.410 HD
ENDROOT
BRANCH   2   5
ATOM      5  C   LIG    1       -1.304   1.933   0.019  0.00  0.00    -0.040 A 
ATOM      6  N   LIG    1       -1.489   3.244   0.021  0.00  0.00    -0.240 NA
ATOM      7  N   LIG    1       -2.753   3.479   0.030  0.00  0.00    -0.230 N 
ATOM      8  H   LIG    1       -3.147   4.365   0.034  0.00  0.00    +0.470 HD
ATOM      9  N   LIG    1       -3.427   2.385   0.035  0.00  0.00    -0.280 NA
ATOM     10  C   LIG    1       -2.596   1.370   0.022  0.00  0.00    +0.250 A 
ENDBRANCH   2   5
BRANCH   3  11
ATOM     11  C   LIG    1        2.422   1.186  -0.015  0.00  0.00    +0.300 C 
BRANCH  11  12
ATOM     12  C   LIG    1        3.571   2.196  -0.020  0.00  0.00    +0.120 C 
ATOM     13  C   LIG    1        4.904   1.454  -0.160  0.00  0.00    +0.210 C 
ATOM     14  O   LIG    1        5.978   2.394  -0.052  0.00  0.00    -0.370 OA
ATOM     15  C   LIG    1        5.975   3.128   1.177  0.00  0.00    +0.190 C 
ATOM     16  C   LIG    1        4.642   3.869   1.316  0.00  0.00    +0.190 C 
ATOM     17  O   LIG    1        3.568   2.931   1.207  0.00  0.00    -0.370 OA
ENDBRANCH  11  12
ENDBRANCH   3  11
TORSDOF 3
ENDMDL
MODEL      456
REMARK  Name = ZINC000005289789
REMARK                            x       y       z     vdW  Elec       q    Type
REMARK                         _______ _______ _______ _____ _____    ______ ____
ROOT
ATOM      1  N   LIG    1       -1.005  -2.212  -0.000  0.00  0.00    -0.590 N 
ATOM      2  C   LIG    1       -0.875  -2.887  -1.284  0.00  0.00    +0.330 C 
ATOM      3  C   LIG    1       -1.053  -4.369  -1.141  0.00  0.00    +0.520 C 
ATOM      4  N   LIG    1       -0.916  -5.003   0.028  0.00  0.00    -0.590 N 
ATOM      5  C   LIG    1       -0.581  -4.313   1.266  0.00  0.00    +0.330 C 
ATOM      6  O   LIG    1       -1.331  -5.019  -2.126  0.00  0.00    -0.530 OA
ATOM      7  C   LIG    1       -0.869  -2.845   1.169  0.00  0.00    +0.520 C 
ATOM      8  O   LIG    1       -0.990  -2.207   2.193  0.00  0.00    -0.530 OA
ENDROOT
BRANCH   1   9
ATOM      9  C   LIG    1       -1.293  -0.775   0.010  0.00  0.00    +0.330 C 
BRANCH   9  13
ATOM     10  N   LIG    1       -0.016   1.344   0.009  0.00  0.00    -0.850 N 
ATOM     11  H   LIG    1       -0.863   1.817   0.016  0.00  0.00    +0.400 HD
ATOM     12  H   LIG    1        0.817   1.840   0.004  0.00  0.00    +0.410 HD
ATOM     13  C   LIG    1        0.002  -0.004   0.002  0.00  0.00    +0.500 C 
ATOM     14  O   LIG    1        1.060  -0.596  -0.011  0.00  0.00    -0.530 OA
ENDBRANCH   9  13
ENDBRANCH   1   9
BRANCH   4  15
ATOM     15  C   LIG    1       -1.111  -6.454   0.064  0.00  0.00    +0.330 C 
BRANCH  15  16
ATOM     16  C   LIG    1        0.205  -7.144  -0.189  0.00  0.00    +0.500 C 
ATOM     17  O   LIG    1        1.207  -6.488  -0.382  0.00  0.00    -0.530 OA
ATOM     18  N   LIG    1        0.268  -8.491  -0.202  0.00  0.00    -0.850 N 
ATOM     19  H   LIG    1        1.115  -8.935  -0.366  0.00  0.00    +0.410 HD
ATOM     20  H   LIG    1       -0.533  -9.015  -0.048  0.00  0.00    +0.400 HD
ENDBRANCH  15  16
ENDBRANCH   4  15
TORSDOF 4
ENDMDL
MODEL      457
REMARK  Name = ZINC000032179021
REMARK                            x       y       z     vdW  Elec       q    Type
REMARK                         _______ _______ _______ _____ _____    ______ ____
ROOT
ATOM      1  O   LIG    1        0.002  -0.004   0.002  0.00  0.00    -0.540 OA
ATOM      2  C   LIG    1       -0.014   1.212   0.009  0.00  0.00    +0.700 A 
ATOM      3  N   LIG    1       -1.194   1.859   0.029  0.00  0.00    -0.640 N 
ATOM      4  H   LIG    1       -2.020   1.351   0.037  0.00  0.00    +0.440 HD
ATOM      5  C   LIG    1       -1.238   3.226   0.037  0.00  0.00    +0.380 A 
ATOM      6  C   LIG    1       -0.088   3.933   0.025  0.00  0.00    -0.260 A 
ATOM      7  C   LIG    1        1.146   3.239   0.004  0.00  0.00    +0.560 A 
ATOM      8  O   LIG    1        2.197   3.855  -0.008  0.00  0.00    -0.490 OA
ATOM      9  N   LIG    1        1.147   1.891   0.001  0.00  0.00    -0.660 N 
ATOM     10  H   LIG    1        1.989   1.409  -0.013  0.00  0.00    +0.430 HD
ENDROOT
BRANCH   6  11
ATOM     11  C   LIG    1       -0.117   5.440   0.035  0.00  0.00    +0.240 C 
ATOM     12  C   LIG    1        0.538   5.982   1.324  0.00  0.00    +0.000 C 
ATOM     13  C   LIG    1        1.290   7.250   0.859  0.00  0.00    +0.160 C 
ATOM     14  C   LIG    1        0.999   7.323  -0.657  0.00  0.00    +0.180 C 
ATOM     15  O   LIG    1        0.691   5.965  -1.042  0.00  0.00    -0.340 OA
BRANCH  13  16
ATOM     16  O   LIG    1        0.780   8.406   1.526  0.00  0.00    -0.560 OA
ATOM     17  H   LIG    1        0.884   8.384   2.487  0.00  0.00    +0.390 HD
ENDBRANCH  13  16
BRANCH  14  18
ATOM     18  C   LIG    1        2.231   7.827  -1.411  0.00  0.00    +0.200 C 
BRANCH  18  19
ATOM     19  O   LIG    1        1.907   7.998  -2.792  0.00  0.00    -0.570 OA
ATOM     20  H   LIG    1        2.643   8.317  -3.333  0.00  0.00    +0.380 HD
ENDBRANCH  18  19
ENDBRANCH  14  18
ENDBRANCH   6  11
TORSDOF 4
ENDMDL
MODEL      458
REMARK  Name = ZINC000091626154
REMARK                            x       y       z     vdW  Elec       q    Type
REMARK                         _______ _______ _______ _____ _____    ______ ____
ROOT
ATOM      1  N   LIG    1       -1.005  -2.216  -0.000  0.00  0.00    -0.520 NA
ATOM      2  C   LIG    1       -0.331  -2.627   1.238  0.00  0.00    +0.180 C 
ATOM      3  C   LIG    1        0.125  -4.084   1.111  0.00  0.00    +0.060 C 
ATOM      4  C   LIG    1       -1.087  -4.959   0.794  0.00  0.00    -0.060 C 
ATOM      5  C   LIG    1       -0.770  -6.459   0.761  0.00  0.00    +0.160 C 
ATOM      6  C   LIG    1       -1.094  -6.477   2.264  0.00  0.00    -0.040 C 
ATOM      7  C   LIG    1       -1.863  -4.470  -0.428  0.00  0.00    +0.080 C 
ATOM      8  C   LIG    1       -1.975  -5.242   2.011  0.00  0.00    +0.150 C 
ATOM      9  C   LIG    1       -2.227  -2.995  -0.231  0.00  0.00    +0.170 C 
ENDROOT
BRANCH   5  10
ATOM     10  O   LIG    1       -1.682  -7.220  -0.034  0.00  0.00    -0.540 OA
ATOM     11  H   LIG    1       -1.487  -8.166  -0.058  0.00  0.00    +0.380 HD
ENDBRANCH   5  10
BRANCH   8  12
ATOM     12  O   LIG    1       -3.327  -5.561   1.675  0.00  0.00    -0.540 OA
ATOM     13  H   LIG    1       -3.879  -5.786   2.436  0.00  0.00    +0.380 HD
ENDBRANCH   8  12
BRANCH   1  14
ATOM     14  C   LIG    1       -1.293  -0.775   0.010  0.00  0.00    +0.200 C 
BRANCH  14  18
ATOM     15  N   LIG    1       -0.016   1.344   0.009  0.00  0.00    -0.860 N 
ATOM     16  H   LIG    1       -0.863   1.817   0.016  0.00  0.00    +0.400 HD
ATOM     17  H   LIG    1        0.817   1.840   0.004  0.00  0.00    +0.400 HD
ATOM     18  C   LIG    1        0.002  -0.004   0.002  0.00  0.00    +0.520 C 
ATOM     19  O   LIG    1        1.060  -0.596  -0.011  0.00  0.00    -0.520 OA
ENDBRANCH  14  18
ENDBRANCH   1  14
TORSDOF 4
ENDMDL
MODEL      459
REMARK  Name = ZINC000004217447
REMARK                            x       y       z     vdW  Elec       q    Type
REMARK                         _______ _______ _______ _____ _____    ______ ____
ROOT
ATOM      1  C   LIG    1       -1.674   4.566   0.052  0.00  0.00    +0.260 C 
ATOM      2  O   LIG    1       -1.312   5.437  -1.033  0.00  0.00    -0.340 OA
ATOM      3  C   LIG    1       -1.497   6.791  -0.567  0.00  0.00    +0.140 C 
ATOM      4  C   LIG    1       -0.976   6.745   0.893  0.00  0.00    +0.140 C 
ATOM      5  C   LIG    1       -1.450   5.344   1.363  0.00  0.00    +0.170 C 
ENDROOT
BRANCH   1   9
ATOM      6  O   LIG    1        0.002  -0.004   0.002  0.00  0.00    -0.450 OA
ATOM      7  C   LIG    1       -0.014   1.210   0.009  0.00  0.00    +0.550 C 
ATOM      8  C   LIG    1       -1.226   2.059   0.031  0.00  0.00    +0.080 C 
ATOM      9  C   LIG    1       -0.806   3.335   0.032  0.00  0.00    -0.130 C 
ATOM     10  C   LIG    1        0.673   3.298   0.009  0.00  0.00    +0.560 C 
ATOM     11  O   LIG    1        1.407   4.265   0.004  0.00  0.00    -0.450 OA
ATOM     12  N   LIG    1        1.066   2.011   0.003  0.00  0.00    -0.690 N 
ATOM     13  H   LIG    1        1.987   1.708  -0.011  0.00  0.00    +0.430 HD
ENDBRANCH   1   9
BRANCH   4  14
ATOM     14  O   LIG    1       -1.575   7.776   1.681  0.00  0.00    -0.550 OA
ATOM     15  H   LIG    1       -1.381   8.671   1.370  0.00  0.00    +0.390 HD
ENDBRANCH   4  14
BRANCH   5  16
ATOM     16  O   LIG    1       -2.667   5.451   2.104  0.00  0.00    -0.540 OA
ATOM     17  H   LIG    1       -2.592   5.981   2.909  0.00  0.00    +0.400 HD
ENDBRANCH   5  16
BRANCH   3  18
ATOM     18  C   LIG    1       -0.671   7.768  -1.406  0.00  0.00    +0.200 C 
BRANCH  18  19
ATOM     19  O   LIG    1       -1.182   7.799  -2.740  0.00  0.00    -0.560 OA
ATOM     20  H   LIG    1       -0.706   8.399  -3.330  0.00  0.00    +0.380 HD
ENDBRANCH  18  19
ENDBRANCH   3  18
TORSDOF 5
ENDMDL
MODEL      460
REMARK  Name = ZINC000020462563
REMARK                            x       y       z     vdW  Elec       q    Type
REMARK                         _______ _______ _______ _____ _____    ______ ____
ROOT
ATOM      1  N   LIG    1       -0.913  -2.193   0.075  0.00  0.00    -0.520 NA
ATOM      2  C   LIG    1        0.197  -2.484  -0.843  0.00  0.00    +0.190 C 
ATOM      3  C   LIG    1        0.613  -3.948  -0.688  0.00  0.00    +0.190 C 
ATOM      4  N   LIG    1       -0.539  -4.815  -0.968  0.00  0.00    -0.530 NA
ATOM      5  C   LIG    1       -1.649  -4.524  -0.050  0.00  0.00    +0.200 C 
ATOM      6  C   LIG    1       -2.066  -3.060  -0.205  0.00  0.00    +0.190 C 
ENDROOT
BRANCH   1   7
ATOM      7  C   LIG    1       -1.293  -0.775   0.010  0.00  0.00    +0.210 C 
BRANCH   7  11
ATOM      8  N   LIG    1       -2.833   0.754   1.197  0.00  0.00    -0.860 N 
ATOM      9  H   LIG    1       -2.633   1.425   0.526  0.00  0.00    +0.400 HD
ATOM     10  H   LIG    1       -3.450   0.957   1.918  0.00  0.00    +0.400 HD
ATOM     11  C   LIG    1       -2.251  -0.460   1.130  0.00  0.00    +0.520 C 
ATOM     12  O   LIG    1       -2.497  -1.298   1.971  0.00  0.00    -0.520 OA
ENDBRANCH   7  11
ENDBRANCH   1   7
BRANCH   4  13
ATOM     13  C   LIG    1       -0.160  -6.233  -0.903  0.00  0.00    +0.210 C 
BRANCH  13  14
ATOM     14  C   LIG    1       -1.289  -7.080  -1.431  0.00  0.00    +0.520 C 
ATOM     15  O   LIG    1       -2.310  -6.554  -1.822  0.00  0.00    -0.520 OA
ATOM     16  N   LIG    1       -1.165  -8.421  -1.467  0.00  0.00    -0.860 N 
ATOM     17  H   LIG    1       -1.892  -8.967  -1.807  0.00  0.00    +0.400 HD
ATOM     18  H   LIG    1       -0.349  -8.842  -1.154  0.00  0.00    +0.400 HD
ENDBRANCH  13  14
ENDBRANCH   4  13
TORSDOF 4
ENDMDL
MODEL      461
REMARK  Name = ZINC000004531038
REMARK                            x       y       z     vdW  Elec       q    Type
REMARK                         _______ _______ _______ _____ _____    ______ ____
ROOT
ATOM      1  C   LIG    1        2.422   1.183  -0.015  0.00  0.00    +0.240 C 
ATOM      2  C   LIG    1        2.884   0.928   1.423  0.00  0.00    +0.340 C 
ATOM      3  O   LIG    1        3.096   2.178   2.082  0.00  0.00    -0.390 OA
ATOM      4  C   LIG    1        4.103   2.993   1.477  0.00  0.00    +0.150 C 
ATOM      5  C   LIG    1        3.690   3.331   0.042  0.00  0.00    +0.120 C 
ATOM      6  C   LIG    1        3.473   2.030  -0.739  0.00  0.00    +0.180 C 
ENDROOT
BRANCH   1   9
ATOM      7  O   LIG    1        0.549   1.017  -1.946  0.00  0.00    -0.550 OA
ATOM      8  C   LIG    1        0.273   1.746  -1.016  0.00  0.00    +0.620 C 
ATOM      9  N   LIG    1        1.143   1.898   0.001  0.00  0.00    -0.700 N 
ATOM     10  H   LIG    1        0.923   2.482   0.745  0.00  0.00    +0.410 HD
ENDBRANCH   1   9
BRANCH   5  11
ATOM     11  O   LIG    1        2.477   4.086   0.059  0.00  0.00    -0.530 OA
ATOM     12  H   LIG    1        2.542   4.922   0.541  0.00  0.00    +0.370 HD
ENDBRANCH   5  11
BRANCH   2  13
ATOM     13  O   LIG    1        1.882   0.186   2.120  0.00  0.00    -0.530 OA
ATOM     14  H   LIG    1        2.108  -0.012   3.039  0.00  0.00    +0.390 HD
ENDBRANCH   2  13
BRANCH   6  15
ATOM     15  O   LIG    1        3.018   2.335  -2.059  0.00  0.00    -0.530 OA
ATOM     16  H   LIG    1        3.635   2.876  -2.572  0.00  0.00    +0.380 HD
ENDBRANCH   6  15
BRANCH   4  17
ATOM     17  C   LIG    1        4.263   4.286   2.280  0.00  0.00    +0.210 C 
BRANCH  17  18
ATOM     18  O   LIG    1        4.759   3.978   3.584  0.00  0.00    -0.560 OA
ATOM     19  H   LIG    1        4.885   4.752   4.150  0.00  0.00    +0.390 HD
ENDBRANCH  17  18
ENDBRANCH   4  17
TORSDOF 6
ENDMDL
MODEL      462
REMARK  Name = ZINC000004762706
REMARK                            x       y       z     vdW  Elec       q    Type
REMARK                         _______ _______ _______ _____ _____    ______ ____
ROOT
ATOM      1  C   UNK A  1       -1.416  -2.035  -0.119  0.00  0.00    +0.500 C 
ATOM      2  N   GLY A  2       -1.251  -2.603  -1.330  0.00  0.00    -0.680 N 
ATOM      3  H   GLY A  2       -1.144  -2.046  -2.117  0.00  0.00    +0.420 HD
ATOM      4  O   UNK A  1       -1.550  -2.732   0.864  0.00  0.00    -0.530 OA
ENDROOT
BRANCH   1   5
ATOM      5  C   UNK A  1       -1.433  -0.534   0.013  0.00  0.00    +0.180 C 
BRANCH   5   6
ATOM      6  N   UNK A  1       -2.083  -0.161   1.276  0.00  0.00    -0.620 N 
ATOM      7  H   UNK A  1       -1.571  -0.560   2.049  0.00  0.00    +0.440 HD
ATOM      8  H   UNK A  1       -3.030  -0.510   1.284  0.00  0.00    +0.440 HD
ATOM      9  H   UNK A  1       -2.095   0.844   1.365  0.00  0.00    +0.440 HD
ENDBRANCH   5   6
BRANCH   5  11
ATOM     10  C   UNK A  1       -0.019   1.526   0.010  0.00  0.00    +0.050 C 
ATOM     11  C   UNK A  1        0.002  -0.004   0.002  0.00  0.00    +0.070 C 
ENDBRANCH   5  11
ENDBRANCH   1   5
BRANCH   2  12
ATOM     12  CA  GLY A  2       -1.234  -4.062  -1.459  0.00  0.00    +0.310 C 
BRANCH  12  13
ATOM     13  C   GLY A  2       -1.038  -4.437  -2.905  0.00  0.00    +0.490 C 
ATOM     14  N   GLY A  3       -0.989  -5.735  -3.264  0.00  0.00    -0.680 N 
ATOM     15  H   GLY A  3       -1.081  -6.428  -2.592  0.00  0.00    +0.410 HD
ATOM     16  O   GLY A  2       -0.923  -3.570  -3.746  0.00  0.00    -0.560 OA
BRANCH  14  17
ATOM     17  CA  GLY A  3       -0.798  -6.099  -4.670  0.00  0.00    +0.190 C 
BRANCH  17  18
ATOM     18  C   GLY A  3       -0.780  -7.600  -4.802  0.00  0.00    +0.490 C 
ATOM     19  OXT GLY A  3       -0.631  -8.114  -5.898  0.00  0.00    -0.680 OA
ATOM     20  O   GLY A  3       -0.915  -8.301  -3.813  0.00  0.00    -0.690 OA
ENDBRANCH  17  18
ENDBRANCH  14  17
ENDBRANCH  12  13
ENDBRANCH   2  12
TORSDOF 7
ENDMDL
MODEL      463
REMARK  Name = ZINC000004531040
REMARK                            x       y       z     vdW  Elec       q    Type
REMARK                         _______ _______ _______ _____ _____    ______ ____
ROOT
ATOM      1  C   LIG    1        2.422   1.183  -0.015  0.00  0.00    +0.250 C 
ATOM      2  C   LIG    1        2.822   0.819   1.417  0.00  0.00    +0.320 C 
ATOM      3  O   LIG    1        3.006   2.014   2.178  0.00  0.00    -0.390 OA
ATOM      4  C   LIG    1        4.037   2.870   1.681  0.00  0.00    +0.150 C 
ATOM      5  C   LIG    1        3.685   3.317   0.259  0.00  0.00    +0.120 C 
ATOM      6  C   LIG    1        3.502   2.080  -0.627  0.00  0.00    +0.190 C 
ENDROOT
BRANCH   1   9
ATOM      7  O   LIG    1        0.002  -0.004   0.002  0.00  0.00    -0.530 OA
ATOM      8  C   LIG    1       -0.014   1.209   0.009  0.00  0.00    +0.630 C 
ATOM      9  N   LIG    1        1.143   1.898   0.001  0.00  0.00    -0.720 N 
ATOM     10  H   LIG    1        1.130   2.868   0.007  0.00  0.00    +0.400 HD
ENDBRANCH   1   9
BRANCH   5  11
ATOM     11  O   LIG    1        4.741   4.127  -0.262  0.00  0.00    -0.550 OA
ATOM     12  H   LIG    1        4.914   4.927   0.254  0.00  0.00    +0.390 HD
ENDBRANCH   5  11
BRANCH   2  13
ATOM     13  O   LIG    1        1.792   0.028   2.013  0.00  0.00    -0.520 OA
ATOM     14  H   LIG    1        1.979  -0.240   2.924  0.00  0.00    +0.390 HD
ENDBRANCH   2  13
BRANCH   6  15
ATOM     15  O   LIG    1        3.104   2.486  -1.938  0.00  0.00    -0.550 OA
ATOM     16  H   LIG    1        3.741   3.062  -2.382  0.00  0.00    +0.390 HD
ENDBRANCH   6  15
BRANCH   4  17
ATOM     17  C   LIG    1        4.162   4.098   2.585  0.00  0.00    +0.200 C 
BRANCH  17  18
ATOM     18  O   LIG    1        4.602   3.690   3.882  0.00  0.00    -0.560 OA
ATOM     19  H   LIG    1        4.704   4.419   4.510  0.00  0.00    +0.390 HD
ENDBRANCH  17  18
ENDBRANCH   4  17
TORSDOF 6
ENDMDL
MODEL      464
REMARK  Name = ZINC000029723658
REMARK                            x       y       z     vdW  Elec       q    Type
REMARK                         _______ _______ _______ _____ _____    ______ ____
ROOT
ATOM      1  C   LIG    1       -3.861  -4.758  -0.042  0.00  0.00    +0.260 C 
ENDROOT
BRANCH   1   5
ATOM      2  N   LIG    1       -2.630  -1.772   1.715  0.00  0.00    -0.740 N 
ATOM      3  H   LIG    1       -1.725  -2.040   1.941  0.00  0.00    +0.400 HD
ATOM      4  C   LIG    1       -3.436  -2.619   1.044  0.00  0.00    +0.710 C 
ATOM      5  N   LIG    1       -2.985  -3.838   0.687  0.00  0.00    -0.710 N 
ATOM      6  H   LIG    1       -2.080  -4.106   0.913  0.00  0.00    +0.410 HD
ATOM      7  O   LIG    1       -4.569  -2.283   0.760  0.00  0.00    -0.590 OA
BRANCH   2   8
ATOM      8  C   LIG    1       -3.120  -0.447   2.103  0.00  0.00    +0.280 C 
BRANCH   8  10
ATOM      9  C   LIG    1       -2.528   1.691   3.251  0.00  0.00    +0.030 C 
ATOM     10  C   LIG    1       -2.016   0.308   2.846  0.00  0.00    +0.000 C 
ENDBRANCH   8  10
ENDBRANCH   2   8
ENDBRANCH   1   5
BRANCH   1  11
ATOM     11  C   LIG    1       -3.416  -6.177   0.205  0.00  0.00    +0.530 C 
ATOM     12  O   LIG    1       -2.269  -6.405   0.527  0.00  0.00    -0.520 OA
ATOM     13  N   LIG    1       -4.293  -7.191   0.068  0.00  0.00    -0.840 N 
ATOM     14  H   LIG    1       -3.990  -8.109   0.157  0.00  0.00    +0.410 HD
ATOM     15  H   LIG    1       -5.226  -7.004  -0.121  0.00  0.00    +0.410 HD
ENDBRANCH   1  11
BRANCH   1  16
ATOM     16  C   LIG    1       -3.788  -4.458  -1.517  0.00  0.00    +0.510 C 
ATOM     17  O   LIG    1       -2.796  -3.938  -1.982  0.00  0.00    -0.510 OA
ATOM     18  N   LIG    1       -4.825  -4.769  -2.320  0.00  0.00    -0.850 N 
ATOM     19  H   LIG    1       -4.750  -4.643  -3.279  0.00  0.00    +0.410 HD
ATOM     20  H   LIG    1       -5.645  -5.119  -1.939  0.00  0.00    +0.400 HD
ENDBRANCH   1  16
TORSDOF 5
ENDMDL
MODEL      465
REMARK  Name = ZINC000002484666
REMARK                            x       y       z     vdW  Elec       q    Type
REMARK                         _______ _______ _______ _____ _____    ______ ____
ROOT
ATOM      1  N   LIG    1        1.508  -3.851   2.445  0.00  0.00    -0.130 N 
ATOM      2  N   LIG    1        0.592  -4.612   2.935  0.00  0.00    -0.030 NA
ATOM      3  N   LIG    1        0.897  -5.840   2.686  0.00  0.00    -0.190 NA
ATOM      4  C   LIG    1        2.048  -5.836   2.014  0.00  0.00    -0.350 A 
ATOM      5  N   LIG    1        2.402  -4.582   1.873  0.00  0.00    -0.200 NA
ENDROOT
BRANCH   4   6
ATOM      6  S   LIG    1        2.922  -7.247   1.421  0.00  0.00    +2.540 S 
ATOM      7  O   LIG    1        2.527  -8.296   2.293  0.00  0.00    -0.900 OA
ATOM      8  O   LIG    1        4.276  -6.818   1.357  0.00  0.00    -0.900 OA
ATOM      9  C   LIG    1        2.262  -7.521  -0.246  0.00  0.00    -0.210 C 
ENDBRANCH   4   6
BRANCH   1  10
ATOM     10  C   LIG    1        1.527  -2.388   2.519  0.00  0.00    +0.470 C 
BRANCH  10  11
ATOM     11  C   LIG    1        0.812  -1.815   1.323  0.00  0.00    +0.460 C 
ATOM     12  O   LIG    1        0.335  -2.553   0.493  0.00  0.00    -0.490 OA
BRANCH  11  13
ATOM     13  O   LIG    1        0.704  -0.485   1.178  0.00  0.00    -0.350 OA
BRANCH  13  15
ATOM     14  C   LIG    1       -0.019   1.526   0.010  0.00  0.00    +0.080 C 
ATOM     15  C   LIG    1        0.002  -0.004   0.002  0.00  0.00    +0.220 C 
ENDBRANCH  13  15
ENDBRANCH  11  13
ENDBRANCH  10  11
ENDBRANCH   1  10
TORSDOF 5
ENDMDL
MODEL      466
REMARK  Name = ZINC000040555229
REMARK                            x       y       z     vdW  Elec       q    Type
REMARK                         _______ _______ _______ _____ _____    ______ ____
ROOT
ATOM      1  S   LIG    1       -0.937  -2.554  -0.003  0.00  0.00    +2.540 S 
ATOM      2  O   LIG    1       -0.347  -2.953   1.227  0.00  0.00    -0.900 OA
ATOM      3  O   LIG    1       -0.370  -2.940  -1.247  0.00  0.00    -0.850 OA
ENDROOT
BRANCH   1   4
ATOM      4  C   LIG    1       -2.524  -3.320   0.008  0.00  0.00    -0.490 C 
ATOM      5  C   LIG    1       -3.130  -3.618   1.214  0.00  0.00    +0.140 C 
ATOM      6  C   LIG    1       -4.379  -4.220   1.212  0.00  0.00    +0.070 C 
ATOM      7  C   LIG    1       -4.974  -4.502  -0.008  0.00  0.00    +0.100 C 
ATOM      8  C   LIG    1       -4.308  -4.175  -1.175  0.00  0.00    +0.240 C 
ATOM      9  N   LIG    1       -3.123  -3.597  -1.135  0.00  0.00    -0.060 NA
ATOM     10  O   LIG    1       -2.471  -3.276  -2.350  0.00  0.00    -0.480 OA
ENDBRANCH   1   4
BRANCH   1  11
ATOM     11  C   LIG    1       -1.293  -0.775   0.010  0.00  0.00    -0.320 C 
BRANCH  11  15
ATOM     12  N   LIG    1       -0.016   1.344   0.009  0.00  0.00    -0.840 N 
ATOM     13  H   LIG    1       -0.863   1.817   0.016  0.00  0.00    +0.410 HD
ATOM     14  H   LIG    1        0.817   1.840   0.004  0.00  0.00    +0.410 HD
ATOM     15  C   LIG    1        0.002  -0.004   0.002  0.00  0.00    +0.550 C 
ATOM     16  O   LIG    1        1.060  -0.596  -0.011  0.00  0.00    -0.530 OA
ENDBRANCH  11  15
ENDBRANCH   1  11
TORSDOF 3
ENDMDL
MODEL      467
REMARK  Name = ZINC000000077240
REMARK                            x       y       z     vdW  Elec       q    Type
REMARK                         _______ _______ _______ _____ _____    ______ ____
ROOT
ATOM      1  C   LIG    1        0.130   1.554  -0.082  0.00  0.00    +0.140 C 
ATOM      2  C   LIG    1        0.080   0.048  -0.054  0.00  0.00    +0.520 C 
ATOM      3  N   LIG    1        0.054  -0.647  -1.209  0.00  0.00    -0.590 N 
ATOM      4  C   LIG    1       -0.041  -0.112  -2.432  0.00  0.00    +0.710 C 
ATOM      5  N   LIG    1       -0.047  -1.014  -3.421  0.00  0.00    -0.730 N 
ATOM      6  H   LIG    1       -0.109  -0.809  -4.367  0.00  0.00    +0.440 HD
ATOM      7  C   LIG    1        0.056  -2.364  -2.849  0.00  0.00    +0.490 C 
ATOM      8  N   LIG    1        1.372  -2.937  -3.167  0.00  0.00    -0.730 N 
ATOM      9  H   LIG    1        1.665  -3.213  -4.049  0.00  0.00    +0.440 HD
ATOM     10  C   LIG    1        2.103  -3.017  -2.047  0.00  0.00    +0.710 C 
ATOM     11  N   LIG    1        1.472  -2.569  -0.954  0.00  0.00    -0.590 N 
ATOM     12  C   LIG    1        1.992  -2.543   0.289  0.00  0.00    +0.530 C 
ATOM     13  O   LIG    1        1.295  -2.233   1.231  0.00  0.00    -0.440 OA
ATOM     14  C   LIG    1        3.440  -2.900   0.508  0.00  0.00    +0.130 C 
ATOM     15  O   LIG    1        3.236  -3.455  -2.026  0.00  0.00    -0.530 OA
ATOM     16  O   LIG    1       -0.115   1.085  -2.628  0.00  0.00    -0.530 OA
ATOM     17  C   LIG    1        0.132  -2.110  -1.322  0.00  0.00    +0.470 C 
ATOM     18  O   LIG    1        0.062  -0.539   1.007  0.00  0.00    -0.440 OA
ENDROOT
TORSDOF 0
ENDMDL
MODEL      468
REMARK  Name = ZINC000004921947
REMARK                            x       y       z     vdW  Elec       q    Type
REMARK                         _______ _______ _______ _____ _____    ______ ____
ROOT
ATOM      1  C   LIG    1       -2.579  -3.190   0.010  0.00  0.00    +0.390 A 
ATOM      2  N   LIG    1       -3.618  -2.359   0.018  0.00  0.00    -0.650 NA
ATOM      3  C   LIG    1       -4.856  -2.842   0.027  0.00  0.00    +0.640 A 
ATOM      4  N   LIG    1       -5.056  -4.157   0.027  0.00  0.00    -0.660 NA
ATOM      5  C   LIG    1       -4.019  -4.988   0.018  0.00  0.00    +0.640 A 
ATOM      6  N   LIG    1       -2.780  -4.505   0.004  0.00  0.00    -0.620 NA
ENDROOT
BRANCH   5   7
ATOM      7  N   LIG    1       -4.228  -6.352   0.017  0.00  0.00    -0.800 N 
ATOM      8  H   LIG    1       -3.471  -6.959   0.011  0.00  0.00    +0.420 HD
ATOM      9  H   LIG    1       -5.131  -6.704   0.023  0.00  0.00    +0.420 HD
ENDBRANCH   5   7
BRANCH   3  10
ATOM     10  N   LIG    1       -5.933  -1.980   0.036  0.00  0.00    -0.810 N 
ATOM     11  H   LIG    1       -6.837  -2.332   0.043  0.00  0.00    +0.420 HD
ATOM     12  H   LIG    1       -5.787  -1.021   0.036  0.00  0.00    +0.420 HD
ENDBRANCH   3  10
BRANCH   1  13
ATOM     13  S   LIG    1       -0.938  -2.550  -0.003  0.00  0.00    +0.120 S 
BRANCH  13  14
ATOM     14  C   LIG    1       -1.293  -0.775   0.010  0.00  0.00    +0.100 C 
BRANCH  14  18
ATOM     15  N   LIG    1       -0.016   1.344   0.009  0.00  0.00    -0.850 N 
ATOM     16  H   LIG    1       -0.863   1.817   0.016  0.00  0.00    +0.410 HD
ATOM     17  H   LIG    1        0.817   1.840   0.004  0.00  0.00    +0.410 HD
ATOM     18  C   LIG    1        0.002  -0.004   0.002  0.00  0.00    +0.540 C 
ATOM     19  O   LIG    1        1.060  -0.596  -0.011  0.00  0.00    -0.530 OA
ENDBRANCH  14  18
ENDBRANCH  13  14
ENDBRANCH   1  13
TORSDOF 5
ENDMDL
MODEL      469
REMARK  Name = ZINC000005014478
REMARK                            x       y       z     vdW  Elec       q    Type
REMARK                         _______ _______ _______ _____ _____    ______ ____
ROOT
ATOM      1  C   LIG    1       -2.579  -3.190   0.010  0.00  0.00    +0.390 A 
ATOM      2  N   LIG    1       -3.598  -2.355   0.018  0.00  0.00    -0.580 NA
ATOM      3  C   LIG    1       -4.859  -2.801   0.028  0.00  0.00    +0.460 A 
ATOM      4  C   LIG    1       -5.106  -4.167   0.028  0.00  0.00    -0.250 A 
ATOM      5  C   LIG    1       -4.020  -5.047   0.019  0.00  0.00    +0.540 A 
ATOM      6  O   LIG    1       -4.199  -6.255   0.019  0.00  0.00    -0.550 OA
ATOM      7  N   LIG    1       -2.769  -4.539   0.004  0.00  0.00    -0.620 N 
ATOM      8  H   LIG    1       -2.005  -5.136  -0.003  0.00  0.00    +0.420 HD
ENDROOT
BRANCH   3   9
ATOM      9  N   LIG    1       -5.910  -1.907   0.036  0.00  0.00    -0.830 N 
ATOM     10  H   LIG    1       -6.824  -2.232   0.043  0.00  0.00    +0.420 HD
ATOM     11  H   LIG    1       -5.735  -0.953   0.036  0.00  0.00    +0.410 HD
ENDBRANCH   3   9
BRANCH   1  12
ATOM     12  S   LIG    1       -0.938  -2.550  -0.003  0.00  0.00    +0.090 S 
BRANCH  12  13
ATOM     13  C   LIG    1       -1.293  -0.775   0.010  0.00  0.00    +0.110 C 
BRANCH  13  17
ATOM     14  N   LIG    1       -0.016   1.344   0.009  0.00  0.00    -0.840 N 
ATOM     15  H   LIG    1       -0.863   1.817   0.016  0.00  0.00    +0.410 HD
ATOM     16  H   LIG    1        0.817   1.840   0.004  0.00  0.00    +0.410 HD
ATOM     17  C   LIG    1        0.002  -0.004   0.002  0.00  0.00    +0.530 C 
ATOM     18  O   LIG    1        1.060  -0.596  -0.011  0.00  0.00    -0.530 OA
ENDBRANCH  13  17
ENDBRANCH  12  13
ENDBRANCH   1  12
TORSDOF 4
ENDMDL
MODEL      470
REMARK  Name = ZINC000001576275
REMARK                            x       y       z     vdW  Elec       q    Type
REMARK                         _______ _______ _______ _____ _____    ______ ____
ROOT
ATOM      1  C   UNK A  1       -1.414  -2.036   0.129  0.00  0.00    +0.500 C 
ATOM      2  N   GLY A  2       -1.226  -2.617   1.330  0.00  0.00    -0.680 N 
ATOM      3  H   GLY A  2       -1.103  -2.068   2.120  0.00  0.00    +0.420 HD
ATOM      4  O   UNK A  1       -1.567  -2.722  -0.860  0.00  0.00    -0.530 OA
ENDROOT
BRANCH   1   5
ATOM      5  C   UNK A  1       -1.433  -0.534   0.013  0.00  0.00    +0.180 C 
BRANCH   5   6
ATOM      6  N   UNK A  1       -2.107  -0.147  -1.234  0.00  0.00    -0.620 N 
ATOM      7  H   UNK A  1       -1.610  -0.539  -2.020  0.00  0.00    +0.440 HD
ATOM      8  H   UNK A  1       -2.120   0.859  -1.311  0.00  0.00    +0.440 HD
ATOM      9  H   UNK A  1       -3.054  -0.496  -1.227  0.00  0.00    +0.440 HD
ENDBRANCH   5   6
BRANCH   5  11
ATOM     10  C   UNK A  1       -0.019   1.526   0.010  0.00  0.00    +0.050 C 
ATOM     11  C   UNK A  1        0.002  -0.004   0.002  0.00  0.00    +0.070 C 
ENDBRANCH   5  11
ENDBRANCH   1   5
BRANCH   2  12
ATOM     12  CA  GLY A  2       -1.207  -4.078   1.442  0.00  0.00    +0.310 C 
BRANCH  12  13
ATOM     13  C   GLY A  2       -0.982  -4.468   2.881  0.00  0.00    +0.490 C 
ATOM     14  N   GLY A  3       -0.927  -5.770   3.225  0.00  0.00    -0.680 N 
ATOM     15  H   GLY A  3       -1.032  -6.456   2.547  0.00  0.00    +0.410 HD
ATOM     16  O   GLY A  2       -0.851  -3.611   3.728  0.00  0.00    -0.560 OA
BRANCH  14  17
ATOM     17  CA  GLY A  3       -0.709  -6.149   4.623  0.00  0.00    +0.190 C 
BRANCH  17  18
ATOM     18  C   GLY A  3       -0.689  -7.652   4.739  0.00  0.00    +0.490 C 
ATOM     19  OXT GLY A  3       -0.520  -8.177   5.825  0.00  0.00    -0.680 OA
ATOM     20  O   GLY A  3       -0.843  -8.342   3.745  0.00  0.00    -0.690 OA
ENDBRANCH  17  18
ENDBRANCH  14  17
ENDBRANCH  12  13
ENDBRANCH   2  12
TORSDOF 7
ENDMDL
MODEL      471
REMARK  Name = ZINC000020219062
REMARK                            x       y       z     vdW  Elec       q    Type
REMARK                         _______ _______ _______ _____ _____    ______ ____
ROOT
ATOM      1  O   LIG    1       -0.006   0.018   0.261  0.00  0.00    -0.490 OA
ATOM      2  C   LIG    1       -0.015   1.211   0.042  0.00  0.00    +0.530 C 
ATOM      3  N   LIG    1       -1.184   1.849  -0.169  0.00  0.00    -0.420 N 
ATOM      4  C   LIG    1       -2.511   1.217  -0.155  0.00  0.00    +0.310 C 
ATOM      5  C   LIG    1       -3.488   2.370  -0.448  0.00  0.00    +0.070 C 
ATOM      6  C   LIG    1       -2.599   3.583  -0.605  0.00  0.00    +0.530 C 
ATOM      7  O   LIG    1       -2.978   4.710  -0.846  0.00  0.00    -0.510 OA
ATOM      8  N   LIG    1       -1.324   3.210  -0.429  0.00  0.00    -0.530 N 
ATOM      9  H   LIG    1       -0.575   3.824  -0.484  0.00  0.00    +0.430 HD
ENDROOT
BRANCH   2  10
ATOM     10  C   LIG    1        1.280   1.980   0.001  0.00  0.00    +0.220 C 
BRANCH  10  11
ATOM     11  N   LIG    1        2.408   1.044   0.105  0.00  0.00    -0.520 NA
ATOM     12  C   LIG    1        3.674   1.765   0.306  0.00  0.00    +0.160 C 
ATOM     13  C   LIG    1        4.811   0.753   0.470  0.00  0.00    +0.220 C 
ATOM     14  O   LIG    1        4.850  -0.101  -0.676  0.00  0.00    -0.390 OA
ATOM     15  C   LIG    1        3.634  -0.819  -0.902  0.00  0.00    +0.230 C 
ATOM     16  C   LIG    1        2.485   0.177  -1.079  0.00  0.00    +0.150 C 
ENDBRANCH  10  11
ENDBRANCH   2  10
TORSDOF 2
ENDMDL
MODEL      472
REMARK  Name = ZINC000001397125
REMARK                            x       y       z     vdW  Elec       q    Type
REMARK                         _______ _______ _______ _____ _____    ______ ____
ROOT
ATOM      1  C   LIG    1        2.087  -4.187  -3.838  0.00  0.00    -0.330 A 
ATOM      2  C   LIG    1        2.111  -5.550  -4.068  0.00  0.00    +0.490 A 
ATOM      3  N   LIG    1        2.651  -6.019  -5.222  0.00  0.00    -0.360 N 
ATOM      4  C   LIG    1        3.163  -5.191  -6.146  0.00  0.00    +0.680 A 
ATOM      5  N   LIG    1        3.171  -3.856  -5.983  0.00  0.00    -0.640 N 
ATOM      6  H   LIG    1        3.550  -3.289  -6.672  0.00  0.00    +0.440 HD
ATOM      7  O   LIG    1        3.635  -5.662  -7.162  0.00  0.00    -0.520 OA
ATOM      8  C   LIG    1        2.650  -3.300  -4.869  0.00  0.00    +0.570 A 
ATOM      9  O   LIG    1        2.655  -2.093  -4.716  0.00  0.00    -0.500 OA
ENDROOT
BRANCH   1  13
ATOM     10  C   LIG    1        0.774  -1.806  -1.359  0.00  0.00    +0.650 C 
ATOM     11  N   LIG    1        1.398  -2.306  -2.444  0.00  0.00    -0.650 N 
ATOM     12  H   LIG    1        1.766  -1.706  -3.112  0.00  0.00    +0.430 HD
ATOM     13  C   LIG    1        1.511  -3.639  -2.602  0.00  0.00    +0.610 C 
ATOM     14  O   LIG    1        1.135  -4.389  -1.721  0.00  0.00    -0.470 OA
ATOM     15  O   LIG    1        0.314  -2.557  -0.523  0.00  0.00    -0.510 OA
BRANCH  10  16
ATOM     16  O   LIG    1        0.662  -0.473  -1.202  0.00  0.00    -0.360 OA
BRANCH  16  18
ATOM     17  C   LIG    1       -0.052   1.524  -0.005  0.00  0.00    +0.080 C 
ATOM     18  C   LIG    1       -0.022  -0.006  -0.009  0.00  0.00    +0.240 C 
ENDBRANCH  16  18
ENDBRANCH  10  16
ENDBRANCH   1  13
BRANCH   3  19
ATOM     19  N   LIG    1        2.674  -7.366  -5.449  0.00  0.00    -0.590 N 
ATOM     20  H   LIG    1        3.144  -7.851  -4.699  0.00  0.00    +0.370 HD
ATOM     21  H   LIG    1        3.101  -7.576  -6.338  0.00  0.00    +0.390 HD
ENDBRANCH   3  19
TORSDOF 4
ENDMDL
MODEL      473
REMARK  Name = ZINC000034218230
REMARK                            x       y       z     vdW  Elec       q    Type
REMARK                         _______ _______ _______ _____ _____    ______ ____
ROOT
ATOM      1  C   LIG    1       -3.014  -2.361   0.018  0.00  0.00    +0.260 C 
ATOM      2  C   LIG    1       -3.036  -3.770   0.618  0.00  0.00    +0.190 C 
ATOM      3  C   LIG    1       -4.464  -4.320   0.552  0.00  0.00    +0.130 C 
ATOM      4  C   LIG    1       -4.943  -4.300  -0.901  0.00  0.00    +0.150 C 
ATOM      5  O   LIG    1       -4.869  -2.966  -1.408  0.00  0.00    -0.370 OA
ATOM      6  C   LIG    1       -3.550  -2.415  -1.415  0.00  0.00    +0.370 C 
ENDROOT
BRANCH   1   8
ATOM      7  C   LIG    1       -1.412  -0.526   0.013  0.00  0.00    +0.510 C 
ATOM      8  N   LIG    1       -1.640  -1.854   0.008  0.00  0.00    -0.710 N 
ATOM      9  H   LIG    1       -0.894  -2.474  -0.003  0.00  0.00    +0.410 HD
ATOM     10  O   LIG    1       -2.344   0.250   0.026  0.00  0.00    -0.540 OA
BRANCH   7  12
ATOM     11  C   LIG    1       -0.019   1.526   0.010  0.00  0.00    +0.040 C 
ATOM     12  C   LIG    1        0.002  -0.004   0.002  0.00  0.00    +0.060 C 
ENDBRANCH   7  12
ENDBRANCH   1   8
BRANCH   3  13
ATOM     13  O   LIG    1       -4.482  -5.662   1.044  0.00  0.00    -0.560 OA
ATOM     14  H   LIG    1       -5.357  -6.073   1.032  0.00  0.00    +0.390 HD
ENDBRANCH   3  13
BRANCH   2  15
ATOM     15  O   LIG    1       -2.604  -3.717   1.979  0.00  0.00    -0.550 OA
ATOM     16  H   LIG    1       -2.593  -4.576   2.423  0.00  0.00    +0.390 HD
ENDBRANCH   2  15
BRANCH   6  17
ATOM     17  O   LIG    1       -2.695  -3.238  -2.211  0.00  0.00    -0.570 OA
ATOM     18  H   LIG    1       -2.975  -3.319  -3.133  0.00  0.00    +0.390 HD
ENDBRANCH   6  17
BRANCH   4  19
ATOM     19  C   LIG    1       -6.391  -4.792  -0.968  0.00  0.00    +0.200 C 
BRANCH  19  20
ATOM     20  O   LIG    1       -6.800  -4.884  -2.334  0.00  0.00    -0.560 OA
ATOM     21  H   LIG    1       -7.710  -5.190  -2.452  0.00  0.00    +0.380 HD
ENDBRANCH  19  20
ENDBRANCH   4  19
TORSDOF 7
ENDMDL
MODEL      474
REMARK  Name = ZINC000042400608
REMARK                            x       y       z     vdW  Elec       q    Type
REMARK                         _______ _______ _______ _____ _____    ______ ____
ROOT
ATOM      1  C   LIG    1        2.323  -4.092   3.818  0.00  0.00    +0.520 C 
ATOM      2  N   LIG    1        2.552  -5.372   4.171  0.00  0.00    -0.710 N 
ATOM      3  H   LIG    1        2.233  -6.095   3.608  0.00  0.00    +0.420 HD
ATOM      4  O   LIG    1        2.723  -3.188   4.521  0.00  0.00    -0.530 OA
ENDROOT
BRANCH   2   5
ATOM      5  C   LIG    1        3.285  -5.673   5.404  0.00  0.00    +0.240 C 
ATOM      6  C   LIG    1        2.314  -5.675   6.586  0.00  0.00    +0.060 C 
BRANCH   5   7
ATOM      7  C   LIG    1        3.935  -7.027   5.285  0.00  0.00    +0.520 C 
ATOM      8  O   LIG    1        3.800  -7.678   4.270  0.00  0.00    -0.540 OA
ATOM      9  N   LIG    1        4.667  -7.515   6.306  0.00  0.00    -0.850 N 
ATOM     10  H   LIG    1        5.085  -8.387   6.229  0.00  0.00    +0.410 HD
ATOM     11  H   LIG    1        4.775  -6.995   7.117  0.00  0.00    +0.410 HD
ENDBRANCH   5   7
ENDBRANCH   2   5
BRANCH   1  12
ATOM     12  C   LIG    1        1.569  -3.784   2.550  0.00  0.00    +0.340 C 
BRANCH  12  14
ATOM     13  C   LIG    1        0.812  -1.819   1.323  0.00  0.00    +0.650 C 
ATOM     14  N   LIG    1        1.452  -2.332   2.393  0.00  0.00    -0.700 N 
ATOM     15  H   LIG    1        1.835  -1.739   3.058  0.00  0.00    +0.420 HD
ATOM     16  O   LIG    1        0.332  -2.562   0.489  0.00  0.00    -0.570 OA
BRANCH  13  17
ATOM     17  O   LIG    1        0.704  -0.485   1.178  0.00  0.00    -0.370 OA
BRANCH  17  19
ATOM     18  C   LIG    1       -0.019   1.526   0.010  0.00  0.00    +0.070 C 
ATOM     19  C   LIG    1        0.002  -0.004   0.002  0.00  0.00    +0.220 C 
ENDBRANCH  17  19
ENDBRANCH  13  17
ENDBRANCH  12  14
ENDBRANCH   1  12
TORSDOF 6
ENDMDL
MODEL      475
REMARK  Name = ZINC000042400611
REMARK                            x       y       z     vdW  Elec       q    Type
REMARK                         _______ _______ _______ _____ _____    ______ ____
ROOT
ATOM      1  C   LIG    1        2.323  -4.092   3.818  0.00  0.00    +0.520 C 
ATOM      2  N   LIG    1        2.552  -5.372   4.171  0.00  0.00    -0.710 N 
ATOM      3  H   LIG    1        2.233  -6.095   3.608  0.00  0.00    +0.420 HD
ATOM      4  O   LIG    1        2.723  -3.188   4.521  0.00  0.00    -0.530 OA
ENDROOT
BRANCH   2   5
ATOM      5  C   LIG    1        3.285  -5.673   5.404  0.00  0.00    +0.240 C 
ATOM      6  C   LIG    1        4.789  -5.633   5.126  0.00  0.00    +0.060 C 
BRANCH   5   7
ATOM      7  C   LIG    1        2.901  -7.044   5.895  0.00  0.00    +0.520 C 
ATOM      8  O   LIG    1        2.094  -7.706   5.276  0.00  0.00    -0.540 OA
ATOM      9  N   LIG    1        3.453  -7.536   7.022  0.00  0.00    -0.850 N 
ATOM     10  H   LIG    1        3.206  -8.419   7.338  0.00  0.00    +0.410 HD
ATOM     11  H   LIG    1        4.098  -7.006   7.517  0.00  0.00    +0.410 HD
ENDBRANCH   5   7
ENDBRANCH   2   5
BRANCH   1  12
ATOM     12  C   LIG    1        1.569  -3.784   2.550  0.00  0.00    +0.340 C 
BRANCH  12  14
ATOM     13  C   LIG    1        0.812  -1.819   1.323  0.00  0.00    +0.650 C 
ATOM     14  N   LIG    1        1.452  -2.332   2.393  0.00  0.00    -0.700 N 
ATOM     15  H   LIG    1        1.835  -1.739   3.058  0.00  0.00    +0.420 HD
ATOM     16  O   LIG    1        0.332  -2.562   0.489  0.00  0.00    -0.570 OA
BRANCH  13  17
ATOM     17  O   LIG    1        0.704  -0.485   1.178  0.00  0.00    -0.370 OA
BRANCH  17  19
ATOM     18  C   LIG    1       -0.019   1.526   0.010  0.00  0.00    +0.070 C 
ATOM     19  C   LIG    1        0.002  -0.004   0.002  0.00  0.00    +0.220 C 
ENDBRANCH  17  19
ENDBRANCH  13  17
ENDBRANCH  12  14
ENDBRANCH   1  12
TORSDOF 6
ENDMDL
MODEL      476
REMARK  Name = ZINC000016969385
REMARK                            x       y       z     vdW  Elec       q    Type
REMARK                         _______ _______ _______ _____ _____    ______ ____
ROOT
ATOM      1  C   LIG    1        1.583  -2.313   2.615  0.00  0.00    +0.250 C 
ATOM      2  C   LIG    1        0.611  -2.388   3.796  0.00  0.00    +0.320 C 
ATOM      3  O   LIG    1        1.290  -2.916   4.937  0.00  0.00    -0.390 OA
ATOM      4  C   LIG    1        1.798  -4.239   4.753  0.00  0.00    +0.150 C 
ATOM      5  C   LIG    1        2.817  -4.239   3.610  0.00  0.00    +0.130 C 
ATOM      6  C   LIG    1        2.148  -3.709   2.338  0.00  0.00    +0.180 C 
ENDROOT
BRANCH   1   8
ATOM      7  C   LIG    1        0.731  -0.503   1.223  0.00  0.00    +0.510 C 
ATOM      8  N   LIG    1        0.874  -1.828   1.428  0.00  0.00    -0.720 N 
ATOM      9  H   LIG    1        0.508  -2.459   0.789  0.00  0.00    +0.400 HD
ATOM     10  O   LIG    1        1.189   0.287   2.021  0.00  0.00    -0.510 OA
BRANCH   7  12
ATOM     11  C   LIG    1       -0.019   1.526   0.010  0.00  0.00    +0.040 C 
ATOM     12  C   LIG    1        0.002  -0.004   0.002  0.00  0.00    +0.040 C 
ENDBRANCH   7  12
ENDBRANCH   1   8
BRANCH   5  13
ATOM     13  O   LIG    1        3.285  -5.570   3.387  0.00  0.00    -0.560 OA
ATOM     14  H   LIG    1        3.717  -5.969   4.154  0.00  0.00    +0.390 HD
ENDBRANCH   5  13
BRANCH   2  15
ATOM     15  O   LIG    1        0.123  -1.078   4.095  0.00  0.00    -0.520 OA
ATOM     16  H   LIG    1       -0.499  -1.050   4.835  0.00  0.00    +0.390 HD
ENDBRANCH   2  15
BRANCH   6  17
ATOM     17  O   LIG    1        3.111  -3.639   1.285  0.00  0.00    -0.550 OA
ATOM     18  H   LIG    1        3.514  -4.490   1.062  0.00  0.00    +0.390 HD
ENDBRANCH   6  17
BRANCH   4  19
ATOM     19  C   LIG    1        2.476  -4.709   6.041  0.00  0.00    +0.200 C 
BRANCH  19  20
ATOM     20  O   LIG    1        1.500  -4.819   7.080  0.00  0.00    -0.560 OA
ATOM     21  H   LIG    1        1.860  -5.114   7.928  0.00  0.00    +0.390 HD
ENDBRANCH  19  20
ENDBRANCH   4  19
TORSDOF 7
ENDMDL
MODEL      477
REMARK  Name = ZINC000018058375
REMARK                            x       y       z     vdW  Elec       q    Type
REMARK                         _______ _______ _______ _____ _____    ______ ____
ROOT
ATOM      1  C   LIG    1       -0.992  -2.276  -0.059  0.00  0.00    +0.040 C 
ATOM      2  C   LIG    1       -0.121  -2.590   1.174  0.00  0.00    -0.290 C 
ATOM      3  S   LIG    1       -0.701  -4.262   1.670  0.00  0.00    +2.370 S 
ATOM      4  C   LIG    1       -2.449  -3.946   1.196  0.00  0.00    -0.290 C 
ATOM      5  O   LIG    1       -0.603  -4.408   3.080  0.00  0.00    -0.940 OA
ATOM      6  O   LIG    1       -0.138  -5.242   0.809  0.00  0.00    -0.930 OA
ATOM      7  C   LIG    1       -2.309  -3.042  -0.043  0.00  0.00    +0.040 C 
ENDROOT
BRANCH   1   8
ATOM      8  C   LIG    1       -1.292  -0.775  -0.085  0.00  0.00    +0.070 C 
BRANCH   8  12
ATOM      9  N   LIG    1       -0.019   1.339  -0.248  0.00  0.00    -0.860 N 
ATOM     10  H   LIG    1       -0.864   1.814  -0.205  0.00  0.00    +0.400 HD
ATOM     11  H   LIG    1        0.812   1.834  -0.325  0.00  0.00    +0.400 HD
ATOM     12  C   LIG    1       -0.000  -0.008  -0.205  0.00  0.00    +0.510 C 
ATOM     13  O   LIG    1        1.055  -0.602  -0.264  0.00  0.00    -0.530 OA
ENDBRANCH   8  12
ENDBRANCH   1   8
BRANCH   7  14
ATOM     14  C   LIG    1       -3.464  -2.040  -0.060  0.00  0.00    +0.070 C 
BRANCH  14  15
ATOM     15  C   LIG    1       -4.769  -2.779  -0.210  0.00  0.00    +0.510 C 
ATOM     16  O   LIG    1       -4.774  -3.989  -0.295  0.00  0.00    -0.530 OA
ATOM     17  N   LIG    1       -5.930  -2.096  -0.249  0.00  0.00    -0.860 N 
ATOM     18  H   LIG    1       -6.770  -2.572  -0.346  0.00  0.00    +0.400 HD
ATOM     19  H   LIG    1       -5.926  -1.128  -0.180  0.00  0.00    +0.400 HD
ENDBRANCH  14  15
ENDBRANCH   7  14
TORSDOF 4
ENDMDL
MODEL      478
REMARK  Name = ZINC000032876036
REMARK                            x       y       z     vdW  Elec       q    Type
REMARK                         _______ _______ _______ _____ _____    ______ ____
ROOT
ATOM      1  C   LIG    1       -0.018   1.461   0.010  0.00  0.00    +0.340 C 
ATOM      2  N   LIG    1        0.002  -0.004   0.002  0.00  0.00    -0.510 N 
ATOM      3  C   LIG    1       -1.189  -0.712   0.004  0.00  0.00    +0.340 A 
ATOM      4  C   LIG    1       -1.143  -2.103  -0.004  0.00  0.00    -0.150 A 
ATOM      5  N   LIG    1       -2.458  -2.531   0.001  0.00  0.00    -0.420 N 
ATOM      6  C   LIG    1       -2.963  -3.907  -0.003  0.00  0.00    +0.310 C 
ATOM      7  C   LIG    1       -4.450  -3.860   0.378  0.00  0.00    +0.080 C 
ATOM      8  C   LIG    1       -5.129  -2.745  -0.424  0.00  0.00    +0.230 C 
ATOM      9  N   LIG    1       -4.622  -1.438   0.019  0.00  0.00    -0.260 N 
ATOM     10  C   LIG    1       -3.244  -1.418   0.012  0.00  0.00    +0.420 A 
ATOM     11  C   LIG    1        0.108  -2.746  -0.015  0.00  0.00    +0.600 A 
ATOM     12  N   LIG    1        1.234  -2.003  -0.017  0.00  0.00    -0.650 N 
ATOM     13  H   LIG    1        2.098  -2.445  -0.024  0.00  0.00    +0.440 HD
ATOM     14  O   LIG    1        0.174  -3.963  -0.022  0.00  0.00    -0.510 OA
ATOM     15  N   LIG    1       -2.474  -0.350   0.013  0.00  0.00    -0.510 NA
ATOM     16  C   LIG    1        1.178  -0.660  -0.013  0.00  0.00    +0.710 A 
ATOM     17  O   LIG    1        2.213  -0.023  -0.015  0.00  0.00    -0.530 OA
ENDROOT
BRANCH   9  18
ATOM     18  N   LIG    1       -5.163  -0.365  -0.799  0.00  0.00    -0.630 NA
ATOM     19  H   LIG    1       -4.963  -0.518  -1.776  0.00  0.00    +0.330 HD
ATOM     20  H   LIG    1       -4.815   0.532  -0.494  0.00  0.00    +0.380 HD
ENDBRANCH   9  18
TORSDOF 1
ENDMDL
MODEL      479
REMARK  Name = ZINC000004954801
REMARK                            x       y       z     vdW  Elec       q    Type
REMARK                         _______ _______ _______ _____ _____    ______ ____
ROOT
ATOM      1  C   LIG    1       -0.993  -2.276  -0.001  0.00  0.00    +0.040 C 
ATOM      2  C   LIG    1       -0.288  -2.635  -1.325  0.00  0.00    -0.280 C 
ATOM      3  S   LIG    1       -1.677  -3.212  -2.383  0.00  0.00    +2.360 S 
ATOM      4  C   LIG    1       -2.593  -3.990  -0.992  0.00  0.00    -0.290 C 
ATOM      5  O   LIG    1       -1.215  -4.215  -3.277  0.00  0.00    -0.940 OA
ATOM      6  O   LIG    1       -2.404  -2.095  -2.874  0.00  0.00    -0.930 OA
ATOM      7  C   LIG    1       -2.297  -3.042   0.184  0.00  0.00    +0.040 C 
ENDROOT
BRANCH   1   8
ATOM      8  C   LIG    1       -1.293  -0.775   0.010  0.00  0.00    +0.060 C 
BRANCH   8  12
ATOM      9  N   LIG    1       -0.016   1.344   0.009  0.00  0.00    -0.860 N 
ATOM     10  H   LIG    1       -0.863   1.817   0.016  0.00  0.00    +0.400 HD
ATOM     11  H   LIG    1        0.817   1.840   0.004  0.00  0.00    +0.400 HD
ATOM     12  C   LIG    1        0.002  -0.004   0.002  0.00  0.00    +0.520 C 
ATOM     13  O   LIG    1        1.060  -0.596  -0.011  0.00  0.00    -0.540 OA
ENDBRANCH   8  12
ENDBRANCH   1   8
BRANCH   7  14
ATOM     14  C   LIG    1       -2.204  -3.863   1.472  0.00  0.00    +0.060 C 
BRANCH  14  15
ATOM     15  C   LIG    1       -3.556  -4.447   1.794  0.00  0.00    +0.510 C 
ATOM     16  O   LIG    1       -4.500  -4.228   1.065  0.00  0.00    -0.540 OA
ATOM     17  N   LIG    1       -3.715  -5.212   2.891  0.00  0.00    -0.860 N 
ATOM     18  H   LIG    1       -4.585  -5.588   3.099  0.00  0.00    +0.400 HD
ATOM     19  H   LIG    1       -2.959  -5.387   3.474  0.00  0.00    +0.400 HD
ENDBRANCH  14  15
ENDBRANCH   7  14
TORSDOF 4
ENDMDL
MODEL      480
REMARK  Name = ZINC000000052916
REMARK                            x       y       z     vdW  Elec       q    Type
REMARK                         _______ _______ _______ _____ _____    ______ ____
ROOT
ATOM      1  C   LIG    1       -0.181   1.617   0.072  0.00  0.00    +0.140 C 
ATOM      2  C   LIG    1       -0.093   0.114   0.009  0.00  0.00    +0.550 C 
ATOM      3  N   LIG    1       -1.219  -0.627   0.008  0.00  0.00    -0.600 N 
ATOM      4  C   LIG    1       -2.467  -0.144   0.053  0.00  0.00    +0.700 C 
ATOM      5  N   LIG    1       -3.416  -1.089   0.041  0.00  0.00    -0.600 N 
ATOM      6  C   LIG    1       -2.779  -2.413  -0.020  0.00  0.00    +0.430 C 
ATOM      7  C   LIG    1       -4.744  -0.862   0.079  0.00  0.00    +0.530 C 
ATOM      8  O   LIG    1       -5.163   0.269   0.202  0.00  0.00    -0.460 OA
ATOM      9  C   LIG    1       -5.709  -2.015  -0.032  0.00  0.00    +0.140 C 
ATOM     10  O   LIG    1       -2.716   1.044   0.101  0.00  0.00    -0.490 OA
ATOM     11  C   LIG    1       -1.271  -2.096  -0.049  0.00  0.00    +0.420 C 
ATOM     12  O   LIG    1        0.990  -0.428  -0.039  0.00  0.00    -0.500 OA
ENDROOT
BRANCH   6  13
ATOM     13  O   LIG    1       -3.168  -3.102  -1.210  0.00  0.00    -0.550 OA
ATOM     14  H   LIG    1       -4.125  -3.168  -1.331  0.00  0.00    +0.400 HD
ENDBRANCH   6  13
BRANCH  11  15
ATOM     15  O   LIG    1       -0.618  -2.661   1.089  0.00  0.00    -0.550 OA
ATOM     16  H   LIG    1        0.334  -2.492   1.121  0.00  0.00    +0.410 HD
ENDBRANCH  11  15
TORSDOF 2
ENDMDL
MODEL      481
REMARK  Name = ZINC000001708209
REMARK                            x       y       z     vdW  Elec       q    Type
REMARK                         _______ _______ _______ _____ _____    ______ ____
ROOT
ATOM      1  C   LEU A  1       -2.819  -2.590   0.013  0.00  0.00    +0.500 C 
ATOM      2  N   GLY A  2       -3.370  -2.737   1.234  0.00  0.00    -0.680 N 
ATOM      3  H   GLY A  2       -2.864  -2.501   2.026  0.00  0.00    +0.420 HD
ATOM      4  O   LEU A  1       -3.453  -2.886  -0.979  0.00  0.00    -0.530 OA
ENDROOT
BRANCH   1   5
ATOM      5  CA  LEU A  1       -1.416  -2.058  -0.121  0.00  0.00    +0.180 C 
BRANCH   5   6
ATOM      6  N   LEU A  1       -0.875  -2.427  -1.436  0.00  0.00    -0.620 N 
ATOM      7  H1  LEU A  1       -1.455  -2.033  -2.161  0.00  0.00    +0.440 HD
ATOM      8  H2  LEU A  1       -0.863  -3.432  -1.524  0.00  0.00    +0.440 HD
ATOM      9  H3  LEU A  1        0.065  -2.071  -1.526  0.00  0.00    +0.440 HD
ENDBRANCH   5   6
BRANCH   5  10
ATOM     10  CB  LEU A  1       -1.433  -0.534   0.013  0.00  0.00    +0.080 C 
BRANCH  10  12
ATOM     11  CD1 LEU A  1       -0.019   1.526   0.010  0.00  0.00    +0.050 C 
ATOM     12  CG  LEU A  1        0.002  -0.004   0.002  0.00  0.00    -0.030 C 
ATOM     13  CD2 LEU A  1        0.742  -0.511   1.242  0.00  0.00    +0.020 C 
ENDBRANCH  10  12
ENDBRANCH   5  10
ENDBRANCH   1   5
BRANCH   2  14
ATOM     14  CA  GLY A  2       -4.735  -3.255   1.364  0.00  0.00    +0.310 C 
BRANCH  14  15
ATOM     15  C   GLY A  2       -5.110  -3.322   2.822  0.00  0.00    +0.490 C 
ATOM     16  N   GLY A  3       -6.328  -3.771   3.184  0.00  0.00    -0.680 N 
ATOM     17  H   GLY A  3       -6.963  -4.051   2.507  0.00  0.00    +0.410 HD
ATOM     18  O   GLY A  2       -4.316  -2.972   3.669  0.00  0.00    -0.560 OA
BRANCH  16  19
ATOM     19  CA  GLY A  3       -6.692  -3.836   4.602  0.00  0.00    +0.190 C 
BRANCH  19  20
ATOM     20  C   GLY A  3       -8.096  -4.369   4.735  0.00  0.00    +0.490 C 
ATOM     21  OXT GLY A  3       -8.594  -4.502   5.840  0.00  0.00    -0.680 OA
ATOM     22  O   GLY A  3       -8.732  -4.666   3.739  0.00  0.00    -0.690 OA
ENDBRANCH  19  20
ENDBRANCH  16  19
ENDBRANCH  14  15
ENDBRANCH   2  14
TORSDOF 8
ENDMDL
MODEL      482
REMARK  Name = ZINC000001847640
REMARK                            x       y       z     vdW  Elec       q    Type
REMARK                         _______ _______ _______ _____ _____    ______ ____
ROOT
ATOM      1  CG  ARG A  1       -2.489  -2.294   2.097  0.00  0.00    +0.030 C 
ENDROOT
BRANCH   1   2
ATOM      2  CB  ARG A  1       -2.430  -2.690   0.621  0.00  0.00    +0.060 C 
BRANCH   2   3
ATOM      3  CA  ARG A  1       -1.136  -2.159   0.001  0.00  0.00    +0.150 C 
BRANCH   3   6
ATOM      4  C   UNK A  0       -0.018   1.503   0.010  0.00  0.00    +0.090 C 
ATOM      5  C   UNK A  0        0.002  -0.004   0.002  0.00  0.00    +0.510 C 
ATOM      6  N   ARG A  1       -1.156  -0.694   0.009  0.00  0.00    -0.700 N 
ATOM      7  H   ARG A  1       -2.002  -0.220   0.020  0.00  0.00    +0.390 HD
ATOM      8  O   UNK A  0        1.060  -0.596  -0.011  0.00  0.00    -0.550 OA
ENDBRANCH   3   6
BRANCH   3   9
ATOM      9  C   ARG A  1       -1.019  -2.652  -1.418  0.00  0.00    +0.490 C 
ATOM     10  OXT ARG A  1       -0.985  -3.849  -1.647  0.00  0.00    -0.700 OA
ATOM     11  O   ARG A  1       -0.958  -1.853  -2.337  0.00  0.00    -0.680 OA
ENDBRANCH   3   9
ENDBRANCH   2   3
ENDBRANCH   1   2
BRANCH   1  12
ATOM     12  CD  ARG A  1       -3.784  -2.825   2.716  0.00  0.00    +0.270 C 
BRANCH  12  13
ATOM     13  NE  ARG A  1       -3.840  -2.446   4.130  0.00  0.00    -0.690 N 
ATOM     14  HE  ARG A  1       -3.116  -1.934   4.525  0.00  0.00    +0.440 HD
ATOM     15  CZ  ARG A  1       -4.913  -2.813   4.895  0.00  0.00    +0.740 C 
BRANCH  15  16
ATOM     16  NH2 ARG A  1       -4.965  -2.469   6.180  0.00  0.00    -0.800 N 
ATOM     17 HH21 ARG A  1       -4.241  -1.957   6.574  0.00  0.00    +0.440 HD
ATOM     18 HH22 ARG A  1       -5.726  -2.729   6.722  0.00  0.00    +0.440 HD
ENDBRANCH  15  16
BRANCH  15  19
ATOM     19  NH1 ARG A  1       -5.907  -3.516   4.353  0.00  0.00    -0.790 N 
ATOM     20 HH11 ARG A  1       -6.668  -3.776   4.896  0.00  0.00    +0.440 HD
ATOM     21 HH12 ARG A  1       -5.870  -3.767   3.417  0.00  0.00    +0.440 HD
ENDBRANCH  15  19
ENDBRANCH  12  13
ENDBRANCH   1  12
TORSDOF 8
ENDMDL
MODEL      483
REMARK  Name = ZINC000002575021
REMARK                            x       y       z     vdW  Elec       q    Type
REMARK                         _______ _______ _______ _____ _____    ______ ____
ROOT
ATOM      1  C   LIG    1       -2.442  -2.683  -0.599  0.00  0.00    +0.200 C 
ENDROOT
BRANCH   1   2
ATOM      2  O   LIG    1       -3.545  -2.226   0.187  0.00  0.00    -0.520 OA
ATOM      3  H   LIG    1       -3.620  -1.263   0.237  0.00  0.00    +0.360 HD
ENDBRANCH   1   2
BRANCH   1   4
ATOM      4  CA  LIG    1       -1.136  -2.159   0.001  0.00  0.00    +0.230 C 
BRANCH   4   7
ATOM      5  C   LIG    1       -0.018   1.503   0.010  0.00  0.00    +0.100 C 
ATOM      6  C   LIG    1        0.002  -0.004   0.002  0.00  0.00    +0.520 C 
ATOM      7  N   LIG    1       -1.156  -0.694   0.009  0.00  0.00    -0.710 N 
ATOM      8  H   LIG    1       -2.002  -0.220   0.020  0.00  0.00    +0.400 HD
ATOM      9  O   LIG    1        1.060  -0.596  -0.011  0.00  0.00    -0.550 OA
ENDBRANCH   4   7
BRANCH   4  10
ATOM     10  C   LIG    1       -0.990  -2.675   1.434  0.00  0.00    +0.170 C 
BRANCH  10  11
ATOM     11  O   LIG    1       -2.148  -2.316   2.190  0.00  0.00    -0.550 OA
ATOM     12  H   LIG    1       -2.124  -2.612   3.111  0.00  0.00    +0.380 HD
ENDBRANCH  10  11
ENDBRANCH   4  10
ENDBRANCH   1   4
BRANCH   1  13
ATOM     13  C   LIG    1       -2.588  -2.167  -2.032  0.00  0.00    +0.160 C 
BRANCH  13  14
ATOM     14  O   LIG    1       -2.491  -0.742  -2.037  0.00  0.00    -0.540 OA
ATOM     15  H   LIG    1       -3.166  -0.299  -1.504  0.00  0.00    +0.370 HD
ENDBRANCH  13  14
BRANCH  13  16
ATOM     16  C   LIG    1       -3.950  -2.587  -2.588  0.00  0.00    +0.200 C 
BRANCH  16  17
ATOM     17  O   LIG    1       -4.048  -4.013  -2.583  0.00  0.00    -0.540 OA
ATOM     18  H   LIG    1       -3.373  -4.455  -3.116  0.00  0.00    +0.370 HD
ENDBRANCH  16  17
BRANCH  16  19
ATOM     19  C   LIG    1       -4.096  -2.071  -4.021  0.00  0.00    +0.150 C 
BRANCH  19  20
ATOM     20  O   LIG    1       -5.411  -2.362  -4.500  0.00  0.00    -0.570 OA
ATOM     21  H   LIG    1       -5.575  -2.063  -5.405  0.00  0.00    +0.380 HD
ENDBRANCH  19  20
ENDBRANCH  16  19
ENDBRANCH  13  16
ENDBRANCH   1  13
TORSDOF 11
ENDMDL
MODEL      484
REMARK  Name = ZINC000000974780
REMARK                            x       y       z     vdW  Elec       q    Type
REMARK                         _______ _______ _______ _____ _____    ______ ____
ROOT
ATOM      1  C   LIG    1       -0.993  -2.276  -0.001  0.00  0.00    +0.050 C 
ATOM      2  C   LIG    1       -0.267  -2.648   1.301  0.00  0.00    -0.290 C 
ATOM      3  S   LIG    1       -1.296  -3.951   2.075  0.00  0.00    +2.370 S 
ATOM      4  C   LIG    1       -2.169  -4.421   0.527  0.00  0.00    -0.280 C 
ATOM      5  O   LIG    1       -2.214  -3.357   2.983  0.00  0.00    -0.930 OA
ATOM      6  O   LIG    1       -0.468  -5.024   2.500  0.00  0.00    -0.940 OA
ATOM      7  C   LIG    1       -2.305  -3.043  -0.169  0.00  0.00    +0.030 C 
ENDROOT
BRANCH   1   8
ATOM      8  C   LIG    1       -1.293  -0.775   0.010  0.00  0.00    +0.060 C 
BRANCH   8  12
ATOM      9  N   LIG    1       -0.016   1.344   0.009  0.00  0.00    -0.860 N 
ATOM     10  H   LIG    1       -0.863   1.817   0.016  0.00  0.00    +0.400 HD
ATOM     11  H   LIG    1        0.817   1.840   0.004  0.00  0.00    +0.400 HD
ATOM     12  C   LIG    1        0.002  -0.004   0.002  0.00  0.00    +0.510 C 
ATOM     13  O   LIG    1        1.060  -0.596  -0.011  0.00  0.00    -0.540 OA
ENDBRANCH   8  12
ENDBRANCH   1   8
BRANCH   7  14
ATOM     14  C   LIG    1       -2.588  -3.244  -1.659  0.00  0.00    +0.070 C 
BRANCH  14  15
ATOM     15  C   LIG    1       -3.945  -3.877  -1.832  0.00  0.00    +0.510 C 
ATOM     16  O   LIG    1       -4.620  -4.140  -0.859  0.00  0.00    -0.540 OA
ATOM     17  N   LIG    1       -4.409  -4.149  -3.068  0.00  0.00    -0.860 N 
ATOM     18  H   LIG    1       -5.282  -4.556  -3.179  0.00  0.00    +0.400 HD
ATOM     19  H   LIG    1       -3.869  -3.939  -3.846  0.00  0.00    +0.400 HD
ENDBRANCH  14  15
ENDBRANCH   7  14
TORSDOF 4
ENDMDL
MODEL      485
REMARK  Name = ZINC000004353284
REMARK                            x       y       z     vdW  Elec       q    Type
REMARK                         _______ _______ _______ _____ _____    ______ ____
ROOT
ATOM      1  C   LIG    1        0.002  -0.004   0.002  0.00  0.00    +0.110 C 
ATOM      2  C   LIG    1        0.713  -0.501  -1.261  0.00  0.00    +0.180 C 
ATOM      3  O   LIG    1       -0.059  -0.128  -2.406  0.00  0.00    -0.390 OA
ATOM      4  C   LIG    1       -1.396  -0.635  -2.390  0.00  0.00    +0.400 C 
ATOM      5  O   LIG    1       -2.071  -0.161  -1.222  0.00  0.00    -0.370 OA
ATOM      6  C   LIG    1       -1.435  -0.537   0.006  0.00  0.00    +0.210 C 
ENDROOT
BRANCH   6   7
ATOM      7  C   LIG    1       -2.205   0.061   1.185  0.00  0.00    +0.190 C 
ATOM      8  O   LIG    1       -2.125   1.488   1.136  0.00  0.00    -0.340 OA
ATOM      9  C   LIG    1       -2.858   2.143   2.173  0.00  0.00    +0.390 C 
ATOM     10  O   LIG    1       -4.236   1.770   2.091  0.00  0.00    -0.390 OA
ATOM     11  C   LIG    1       -4.460   0.362   2.205  0.00  0.00    +0.190 C 
ATOM     12  C   LIG    1       -3.677  -0.360   1.103  0.00  0.00    +0.130 C 
BRANCH  12  13
ATOM     13  O   LIG    1       -3.788  -1.773   1.284  0.00  0.00    -0.560 OA
ATOM     14  H   LIG    1       -4.696  -2.104   1.250  0.00  0.00    +0.390 HD
ENDBRANCH  12  13
ENDBRANCH   6   7
BRANCH   1  15
ATOM     15  O   LIG    1       -0.017   1.425   0.010  0.00  0.00    -0.520 OA
ATOM     16  H   LIG    1        0.861   1.830   0.004  0.00  0.00    +0.370 HD
ENDBRANCH   1  15
TORSDOF 3
ENDMDL
MODEL      486
REMARK  Name = ZINC000003850162
REMARK                            x       y       z     vdW  Elec       q    Type
REMARK                         _______ _______ _______ _____ _____    ______ ____
ROOT
ATOM      1  C   LIG    1        0.002  -0.004   0.002  0.00  0.00    +0.130 C 
ATOM      2  C   LIG    1        0.737  -0.514   1.246  0.00  0.00    +0.190 C 
ATOM      3  O   LIG    1        0.634  -1.941   1.294  0.00  0.00    -0.390 OA
ATOM      4  C   LIG    1       -0.712  -2.421   1.315  0.00  0.00    +0.410 C 
ATOM      5  O   LIG    1       -1.400  -1.962   0.148  0.00  0.00    -0.380 OA
ATOM      6  C   LIG    1       -1.435  -0.537   0.019  0.00  0.00    +0.200 C 
ENDROOT
BRANCH   6   7
ATOM      7  C   LIG    1       -2.144  -0.158  -1.282  0.00  0.00    +0.200 C 
ATOM      8  O   LIG    1       -1.379  -0.623  -2.398  0.00  0.00    -0.380 OA
ATOM      9  C   LIG    1       -1.988  -0.358  -3.664  0.00  0.00    +0.410 C 
ATOM     10  O   LIG    1       -3.274  -0.981  -3.714  0.00  0.00    -0.390 OA
ATOM     11  C   LIG    1       -4.168  -0.540  -2.687  0.00  0.00    +0.190 C 
ATOM     12  C   LIG    1       -3.530  -0.811  -1.320  0.00  0.00    +0.130 C 
BRANCH  12  13
ATOM     13  O   LIG    1       -4.354  -0.260  -0.290  0.00  0.00    -0.550 OA
ATOM     14  H   LIG    1       -5.249  -0.626  -0.264  0.00  0.00    +0.390 HD
ENDBRANCH  12  13
ENDBRANCH   6   7
BRANCH   1  15
ATOM     15  O   LIG    1       -0.017   1.425   0.010  0.00  0.00    -0.560 OA
ATOM     16  H   LIG    1        0.861   1.830   0.004  0.00  0.00    +0.390 HD
ENDBRANCH   1  15
TORSDOF 3
ENDMDL
MODEL      487
REMARK  Name = ZINC000018213452
REMARK                            x       y       z     vdW  Elec       q    Type
REMARK                         _______ _______ _______ _____ _____    ______ ____
ROOT
ATOM      1  C   LIG    1        0.002  -0.004   0.002  0.00  0.00    +0.120 C 
ATOM      2  C   LIG    1        0.713  -0.501  -1.261  0.00  0.00    +0.200 C 
ATOM      3  O   LIG    1       -0.059  -0.128  -2.406  0.00  0.00    -0.390 OA
ATOM      4  C   LIG    1       -1.396  -0.635  -2.390  0.00  0.00    +0.410 C 
ATOM      5  O   LIG    1       -2.071  -0.161  -1.222  0.00  0.00    -0.380 OA
ATOM      6  C   LIG    1       -1.435  -0.537   0.006  0.00  0.00    +0.200 C 
ENDROOT
BRANCH   6   7
ATOM      7  C   LIG    1       -2.205   0.061   1.185  0.00  0.00    +0.200 C 
ATOM      8  O   LIG    1       -1.573  -0.318   2.412  0.00  0.00    -0.380 OA
ATOM      9  C   LIG    1       -2.252   0.153   3.579  0.00  0.00    +0.410 C 
ATOM     10  O   LIG    1       -3.589  -0.352   3.590  0.00  0.00    -0.390 OA
ATOM     11  C   LIG    1       -4.357   0.025   2.443  0.00  0.00    +0.200 C 
ATOM     12  C   LIG    1       -3.644  -0.468   1.180  0.00  0.00    +0.120 C 
BRANCH  12  13
ATOM     13  O   LIG    1       -3.628  -1.897   1.165  0.00  0.00    -0.550 OA
ATOM     14  H   LIG    1       -4.506  -2.300   1.171  0.00  0.00    +0.380 HD
ENDBRANCH  12  13
ENDBRANCH   6   7
BRANCH   1  15
ATOM     15  O   LIG    1       -0.017   1.425   0.010  0.00  0.00    -0.550 OA
ATOM     16  H   LIG    1        0.861   1.830   0.004  0.00  0.00    +0.380 HD
ENDBRANCH   1  15
TORSDOF 3
ENDMDL
MODEL      488
REMARK  Name = ZINC000004088235
REMARK                            x       y       z     vdW  Elec       q    Type
REMARK                         _______ _______ _______ _____ _____    ______ ____
ROOT
ATOM      1  C   LIG    1       -0.019   1.526   0.010  0.00  0.00    +0.070 C 
ATOM      2  C   LIG    1        0.002  -0.004   0.002  0.00  0.00    +0.250 C 
ATOM      3  O   LIG    1        0.685  -0.470  -1.169  0.00  0.00    -0.370 OA
ATOM      4  C   LIG    1        1.807  -1.260  -0.725  0.00  0.00    +0.130 C 
ATOM      5  C   LIG    1        1.401  -1.666   0.715  0.00  0.00    +0.120 C 
ATOM      6  C   LIG    1       -1.432  -0.537   0.003  0.00  0.00    +0.050 C 
ATOM      7  O   LIG    1        0.697  -0.484   1.165  0.00  0.00    -0.360 OA
ENDROOT
BRANCH   5   8
ATOM      8  C   LIG    1        2.637  -1.930   1.577  0.00  0.00    +0.230 C 
BRANCH   8   9
ATOM      9  O   LIG    1        3.402  -2.990   1.001  0.00  0.00    -0.530 OA
ATOM     10  H   LIG    1        2.922  -3.826   0.926  0.00  0.00    +0.380 HD
ENDBRANCH   8   9
BRANCH   8  11
ATOM     11  C   LIG    1        2.198  -2.327   2.989  0.00  0.00    +0.160 C 
BRANCH  11  12
ATOM     12  O   LIG    1        3.349  -2.461   3.825  0.00  0.00    -0.560 OA
ATOM     13  H   LIG    1        3.145  -2.711   4.737  0.00  0.00    +0.380 HD
ENDBRANCH  11  12
ENDBRANCH   8  11
ENDBRANCH   5   8
BRANCH   4  14
ATOM     14  C   LIG    1        1.981  -2.496  -1.609  0.00  0.00    +0.220 C 
BRANCH  14  15
ATOM     15  O   LIG    1        3.076  -3.277  -1.126  0.00  0.00    -0.530 OA
ATOM     16  H   LIG    1        3.922  -2.808  -1.121  0.00  0.00    +0.380 HD
ENDBRANCH  14  15
BRANCH  14  17
ATOM     17  C   LIG    1        2.263  -2.058  -3.048  0.00  0.00    +0.160 C 
BRANCH  17  18
ATOM     18  O   LIG    1        2.311  -3.208  -3.896  0.00  0.00    -0.560 OA
ATOM     19  H   LIG    1        2.486  -3.004  -4.825  0.00  0.00    +0.380 HD
ENDBRANCH  17  18
ENDBRANCH  14  17
ENDBRANCH   4  14
TORSDOF 8
ENDMDL
MODEL      489
REMARK  Name = ZINC000091934661
REMARK                            x       y       z     vdW  Elec       q    Type
REMARK                         _______ _______ _______ _____ _____    ______ ____
ROOT
ATOM      1  C   LIG    1       -0.019   1.526   0.010  0.00  0.00    +0.040 C 
ATOM      2  C   LIG    1        0.002  -0.004   0.002  0.00  0.00    +0.000 C 
ATOM      3  C   LIG    1       -1.435  -0.561   0.085  0.00  0.00    +0.260 C 
ATOM      4  N   LIG    1       -1.321  -1.764   0.942  0.00  0.00    -0.620 N 
ATOM      5  C   LIG    1       -0.362  -1.370   2.001  0.00  0.00    +0.250 C 
ATOM      6  C   LIG    1       -1.948  -2.948   0.793  0.00  0.00    +0.540 C 
ATOM      7  O   LIG    1       -1.748  -3.844   1.586  0.00  0.00    -0.510 OA
ATOM      8  C   LIG    1        0.712  -0.538   1.264  0.00  0.00    +0.120 C 
ATOM      9  C   LIG    1        1.898  -1.424   0.875  0.00  0.00    +0.030 C 
ENDROOT
BRANCH   8  10
ATOM     10  O   LIG    1        1.149   0.548   2.084  0.00  0.00    -0.550 OA
ATOM     11  H   LIG    1        1.560   0.272   2.915  0.00  0.00    +0.380 HD
ENDBRANCH   8  10
BRANCH   6  12
ATOM     12  C   LIG    1       -2.898  -3.158  -0.358  0.00  0.00    +0.210 C 
BRANCH  12  13
ATOM     13  O   LIG    1       -3.431  -4.482  -0.300  0.00  0.00    -0.340 OA
BRANCH  13  14
ATOM     14  C   LIG    1       -4.348  -4.786  -1.353  0.00  0.00    +0.220 C 
BRANCH  14  15
ATOM     15  C   LIG    1       -4.845  -6.200  -1.194  0.00  0.00    +0.520 C 
ATOM     16  O   LIG    1       -4.453  -6.880  -0.269  0.00  0.00    -0.510 OA
ATOM     17  N   LIG    1       -5.726  -6.708  -2.078  0.00  0.00    -0.850 N 
ATOM     18  H   LIG    1       -6.045  -7.618  -1.976  0.00  0.00    +0.410 HD
ATOM     19  H   LIG    1       -6.040  -6.164  -2.817  0.00  0.00    +0.400 HD
ENDBRANCH  14  15
ENDBRANCH  13  14
ENDBRANCH  12  13
ENDBRANCH   6  12
TORSDOF 5
ENDMDL
MODEL      490
REMARK  Name = ZINC000078496445
REMARK                            x       y       z     vdW  Elec       q    Type
REMARK                         _______ _______ _______ _____ _____    ______ ____
ROOT
ATOM      1  N   LIG    1       -1.005  -2.212  -0.000  0.00  0.00    -0.120 N 
ATOM      2  N   LIG    1       -0.864  -2.935  -1.056  0.00  0.00    -0.030 NA
ATOM      3  N   LIG    1       -0.619  -4.151  -0.701  0.00  0.00    -0.250 NA
ATOM      4  C   LIG    1       -0.609  -4.179   0.640  0.00  0.00    +0.220 A 
ATOM      5  N   LIG    1       -0.849  -2.948   1.046  0.00  0.00    -0.250 NA
ENDROOT
BRANCH   4   6
ATOM      6  C   LIG    1       -0.369  -5.365   1.499  0.00  0.00    +0.150 A 
ATOM      7  N   LIG    1       -0.367  -5.376   2.806  0.00  0.00    -0.220 NA
ATOM      8  O   LIG    1       -0.099  -6.701   3.229  0.00  0.00    +0.040 OA
ATOM      9  N   LIG    1        0.064  -7.498   2.069  0.00  0.00    -0.350 NA
ATOM     10  C   LIG    1       -0.097  -6.728   1.028  0.00  0.00    +0.360 A 
BRANCH  10  11
ATOM     11  N   LIG    1       -0.017  -7.129  -0.300  0.00  0.00    -0.800 N 
ATOM     12  H   LIG    1       -0.152  -6.483  -1.011  0.00  0.00    +0.430 HD
ATOM     13  H   LIG    1        0.175  -8.055  -0.517  0.00  0.00    +0.420 HD
ENDBRANCH  10  11
ENDBRANCH   4   6
BRANCH   1  14
ATOM     14  C   LIG    1       -1.293  -0.775   0.010  0.00  0.00    +0.430 C 
BRANCH  14  18
ATOM     15  N   LIG    1       -0.016   1.344   0.009  0.00  0.00    -0.840 N 
ATOM     16  H   LIG    1       -0.863   1.817   0.016  0.00  0.00    +0.410 HD
ATOM     17  H   LIG    1        0.817   1.840   0.004  0.00  0.00    +0.420 HD
ATOM     18  C   LIG    1        0.002  -0.004   0.002  0.00  0.00    +0.510 C 
ATOM     19  O   LIG    1        1.060  -0.596  -0.011  0.00  0.00    -0.520 OA
ENDBRANCH  14  18
ENDBRANCH   1  14
TORSDOF 4
ENDMDL
MODEL      491
REMARK  Name = ZINC000098210277
REMARK                            x       y       z     vdW  Elec       q    Type
REMARK                         _______ _______ _______ _____ _____    ______ ____
ROOT
ATOM      1  N   LIG    1       -1.005  -2.212  -0.000  0.00  0.00    -0.280 N 
ATOM      2  C   LIG    1       -1.462  -3.118   0.894  0.00  0.00    +0.150 A 
ATOM      3  C   LIG    1       -0.958  -4.314   0.511  0.00  0.00    -0.030 A 
ATOM      4  N   LIG    1       -0.227  -4.084  -0.585  0.00  0.00    -0.260 NA
ATOM      5  N   LIG    1       -0.280  -2.829  -0.865  0.00  0.00    -0.050 NA
ENDROOT
BRANCH   1   6
ATOM      6  C   LIG    1       -1.293  -0.775   0.010  0.00  0.00    +0.360 C 
BRANCH   6  10
ATOM      7  N   LIG    1       -0.016   1.344   0.009  0.00  0.00    -0.850 N 
ATOM      8  H   LIG    1       -0.863   1.817   0.016  0.00  0.00    +0.410 HD
ATOM      9  H   LIG    1        0.817   1.840   0.004  0.00  0.00    +0.410 HD
ATOM     10  C   LIG    1        0.002  -0.004   0.002  0.00  0.00    +0.500 C 
ATOM     11  O   LIG    1        1.060  -0.596  -0.011  0.00  0.00    -0.510 OA
ENDBRANCH   6  10
ENDBRANCH   1   6
BRANCH   3  12
ATOM     12  C   LIG    1       -1.177  -5.644   1.186  0.00  0.00    +0.180 C 
BRANCH  12  13
ATOM     13  C   LIG    1       -1.729  -6.646   0.170  0.00  0.00    +0.240 C 
ATOM     14  N   LIG    1       -3.099  -6.279  -0.229  0.00  0.00    -0.720 N 
ATOM     15  H   LIG    1       -3.374  -5.460  -0.671  0.00  0.00    +0.440 HD
ATOM     16  C   LIG    1       -3.893  -7.301   0.138  0.00  0.00    +0.700 C 
ATOM     17  N   LIG    1       -3.213  -8.290   0.728  0.00  0.00    -0.680 N 
ATOM     18  H   LIG    1       -3.618  -9.107   1.060  0.00  0.00    +0.430 HD
ATOM     19  O   LIG    1       -5.094  -7.322  -0.045  0.00  0.00    -0.540 OA
ATOM     20  C   LIG    1       -1.893  -8.013   0.805  0.00  0.00    +0.530 C 
ATOM     21  O   LIG    1       -1.025  -8.711   1.282  0.00  0.00    -0.460 OA
ENDBRANCH  12  13
ENDBRANCH   3  12
TORSDOF 4
ENDMDL
MODEL      492
REMARK  Name = ZINC000098210276
REMARK                            x       y       z     vdW  Elec       q    Type
REMARK                         _______ _______ _______ _____ _____    ______ ____
ROOT
ATOM      1  N   LIG    1       -1.005  -2.212  -0.000  0.00  0.00    -0.280 N 
ATOM      2  C   LIG    1       -1.462  -3.118   0.894  0.00  0.00    +0.160 A 
ATOM      3  C   LIG    1       -0.958  -4.314   0.511  0.00  0.00    -0.020 A 
ATOM      4  N   LIG    1       -0.227  -4.084  -0.585  0.00  0.00    -0.270 NA
ATOM      5  N   LIG    1       -0.280  -2.829  -0.865  0.00  0.00    -0.050 NA
ENDROOT
BRANCH   1   6
ATOM      6  C   LIG    1       -1.293  -0.775   0.010  0.00  0.00    +0.370 C 
BRANCH   6  10
ATOM      7  N   LIG    1       -0.016   1.344   0.009  0.00  0.00    -0.850 N 
ATOM      8  H   LIG    1       -0.863   1.817   0.016  0.00  0.00    +0.410 HD
ATOM      9  H   LIG    1        0.817   1.840   0.004  0.00  0.00    +0.410 HD
ATOM     10  C   LIG    1        0.002  -0.004   0.002  0.00  0.00    +0.500 C 
ATOM     11  O   LIG    1        1.060  -0.596  -0.011  0.00  0.00    -0.510 OA
ENDBRANCH   6  10
ENDBRANCH   1   6
BRANCH   3  12
ATOM     12  C   LIG    1       -1.177  -5.644   1.186  0.00  0.00    +0.180 C 
BRANCH  12  13
ATOM     13  C   LIG    1       -1.729  -6.646   0.170  0.00  0.00    +0.230 C 
ATOM     14  N   LIG    1       -0.706  -6.982  -0.835  0.00  0.00    -0.710 N 
ATOM     15  H   LIG    1       -0.279  -6.369  -1.455  0.00  0.00    +0.450 HD
ATOM     16  C   LIG    1       -0.478  -8.303  -0.727  0.00  0.00    +0.700 C 
ATOM     17  N   LIG    1       -1.226  -8.874   0.225  0.00  0.00    -0.680 N 
ATOM     18  H   LIG    1       -1.198  -9.818   0.447  0.00  0.00    +0.430 HD
ATOM     19  O   LIG    1        0.318  -8.911  -1.416  0.00  0.00    -0.540 OA
ATOM     20  C   LIG    1       -2.026  -7.974   0.838  0.00  0.00    +0.530 C 
ATOM     21  O   LIG    1       -2.812  -8.186   1.736  0.00  0.00    -0.460 OA
ENDBRANCH  12  13
ENDBRANCH   3  12
TORSDOF 4
ENDMDL
MODEL      493
REMARK  Name = ZINC000040539761
REMARK                            x       y       z     vdW  Elec       q    Type
REMARK                         _______ _______ _______ _____ _____    ______ ____
ROOT
ATOM      1  N   LIG    1       -1.005  -2.212  -0.000  0.00  0.00    -0.380 N 
ATOM      2  N   LIG    1       -0.875  -2.888  -1.219  0.00  0.00    -0.240 NA
ATOM      3  C   LIG    1       -0.618  -4.173  -1.247  0.00  0.00    +0.360 A 
ATOM      4  C   LIG    1       -0.469  -4.898  -0.050  0.00  0.00    +0.090 A 
ATOM      5  C   LIG    1       -0.592  -4.260   1.145  0.00  0.00    +0.050 A 
ATOM      6  C   LIG    1       -0.863  -2.877   1.164  0.00  0.00    +0.500 A 
ATOM      7  O   LIG    1       -0.976  -2.287   2.227  0.00  0.00    -0.520 OA
ENDROOT
BRANCH   3   8
ATOM      8  N   LIG    1       -0.491  -4.829  -2.478  0.00  0.00    -0.330 N 
ATOM      9  C   LIG    1       -0.599  -4.277  -3.703  0.00  0.00    +0.530 A 
ATOM     10  N   LIG    1       -0.415  -5.221  -4.590  0.00  0.00    -0.530 NA
ATOM     11  C   LIG    1       -0.188  -6.382  -3.975  0.00  0.00    +0.460 A 
ATOM     12  N   LIG    1       -0.218  -6.191  -2.682  0.00  0.00    -0.300 NA
ENDBRANCH   3   8
BRANCH   1  13
ATOM     13  C   LIG    1       -1.293  -0.775   0.010  0.00  0.00    +0.380 C 
BRANCH  13  17
ATOM     14  N   LIG    1       -0.016   1.344   0.009  0.00  0.00    -0.850 N 
ATOM     15  H   LIG    1       -0.863   1.817   0.016  0.00  0.00    +0.410 HD
ATOM     16  H   LIG    1        0.817   1.840   0.004  0.00  0.00    +0.410 HD
ATOM     17  C   LIG    1        0.002  -0.004   0.002  0.00  0.00    +0.510 C 
ATOM     18  O   LIG    1        1.060  -0.596  -0.011  0.00  0.00    -0.530 OA
ENDBRANCH  13  17
ENDBRANCH   1  13
TORSDOF 3
ENDMDL
MODEL      494
REMARK  Name = ZINC000004940485
REMARK                            x       y       z     vdW  Elec       q    Type
REMARK                         _______ _______ _______ _____ _____    ______ ____
ROOT
ATOM      1  N   LIG    1       -1.005  -2.212  -0.000  0.00  0.00    -0.530 N 
ATOM      2  C   LIG    1       -0.879  -2.867  -1.182  0.00  0.00    +0.640 A 
ATOM      3  N   LIG    1       -0.624  -4.140  -1.263  0.00  0.00    -0.530 NA
ATOM      4  C   LIG    1       -0.468  -4.903  -0.170  0.00  0.00    +0.340 A 
ATOM      5  C   LIG    1       -0.581  -4.313   1.098  0.00  0.00    -0.340 A 
ATOM      6  C   LIG    1       -0.374  -5.328   2.051  0.00  0.00    +0.330 A 
ATOM      7  N   LIG    1       -0.153  -6.446   1.418  0.00  0.00    -0.270 NA
ATOM      8  N   LIG    1       -0.204  -6.219   0.036  0.00  0.00    -0.350 N 
ATOM      9  C   LIG    1       -0.862  -2.879   1.169  0.00  0.00    +0.580 A 
ATOM     10  O   LIG    1       -0.972  -2.308   2.240  0.00  0.00    -0.510 OA
ENDROOT
BRANCH   1  11
ATOM     11  C   LIG    1       -1.293  -0.775   0.010  0.00  0.00    +0.340 C 
BRANCH  11  15
ATOM     12  N   LIG    1       -0.016   1.344   0.009  0.00  0.00    -0.850 N 
ATOM     13  H   LIG    1       -0.863   1.817   0.016  0.00  0.00    +0.410 HD
ATOM     14  H   LIG    1        0.817   1.840   0.004  0.00  0.00    +0.410 HD
ATOM     15  C   LIG    1        0.002  -0.004   0.002  0.00  0.00    +0.500 C 
ATOM     16  O   LIG    1        1.060  -0.596  -0.011  0.00  0.00    -0.530 OA
ENDBRANCH  11  15
ENDBRANCH   1  11
BRANCH   8  17
ATOM     17  C   LIG    1       -0.006  -7.229  -1.007  0.00  0.00    +0.360 C 
BRANCH  17  18
ATOM     18  C   LIG    1       -1.352  -7.863  -1.364  0.00  0.00    +0.170 C 
BRANCH  18  19
ATOM     19  O   LIG    1       -1.159  -8.848  -2.381  0.00  0.00    -0.570 OA
ATOM     20  H   LIG    1       -1.972  -9.292  -2.658  0.00  0.00    +0.390 HD
ENDBRANCH  18  19
ENDBRANCH  17  18
ENDBRANCH   8  17
TORSDOF 5
ENDMDL
MODEL      495
REMARK  Name = ZINC000040412774
REMARK                            x       y       z     vdW  Elec       q    Type
REMARK                         _______ _______ _______ _____ _____    ______ ____
ROOT
ATOM      1  N   LIG    1        1.489  -4.009   2.408  0.00  0.00    -0.730 N 
ATOM      2  H   LIG    1        1.083  -4.539   1.704  0.00  0.00    +0.400 HD
ATOM      3  C   LIG    1        2.107  -4.618   3.438  0.00  0.00    +0.500 C 
ATOM      4  O   LIG    1        2.615  -3.955   4.318  0.00  0.00    -0.520 OA
ENDROOT
BRANCH   3   5
ATOM      5  C   LIG    1        2.168  -6.122   3.498  0.00  0.00    +0.240 C 
ATOM      6  C   LIG    1        0.844  -6.689   4.057  0.00  0.00    +0.080 C 
ATOM      7  C   LIG    1        1.166  -6.814   5.564  0.00  0.00    +0.060 C 
ATOM      8  C   LIG    1        2.673  -6.941   5.612  0.00  0.00    +0.530 C 
ATOM      9  O   LIG    1        3.307  -7.335   6.568  0.00  0.00    -0.520 OA
ATOM     10  N   LIG    1        3.208  -6.552   4.440  0.00  0.00    -0.710 N 
ATOM     11  H   LIG    1        4.159  -6.556   4.244  0.00  0.00    +0.420 HD
ENDBRANCH   3   5
BRANCH   1  12
ATOM     12  C   LIG    1        1.430  -2.546   2.350  0.00  0.00    +0.290 C 
BRANCH  12  13
ATOM     13  C   LIG    1        0.679  -2.115   1.088  0.00  0.00    +0.110 C 
BRANCH  13  14
ATOM     14  C   LIG    1        0.618  -0.611   1.029  0.00  0.00    +0.460 C 
ATOM     15  O   LIG    1        1.124   0.049   1.905  0.00  0.00    -0.500 OA
BRANCH  14  17
ATOM     16  C   LIG    1       -0.018   1.448   0.010  0.00  0.00    +0.270 C 
ATOM     17  O   LIG    1        0.002  -0.004   0.002  0.00  0.00    -0.360 OA
ENDBRANCH  14  17
ENDBRANCH  13  14
ENDBRANCH  12  13
ENDBRANCH   1  12
TORSDOF 5
ENDMDL
MODEL      496
REMARK  Name = ZINC000216202765
REMARK                            x       y       z     vdW  Elec       q    Type
REMARK                         _______ _______ _______ _____ _____    ______ ____
ROOT
ATOM      1  C   LIG    1       -0.090  -4.658  -2.408  0.00  0.00    +0.180 C 
ENDROOT
BRANCH   1   2
ATOM      2  O   LIG    1       -0.858  -4.199  -1.294  0.00  0.00    -0.520 OA
ATOM      3  H   LIG    1       -0.516  -4.484  -0.436  0.00  0.00    +0.370 HD
ENDBRANCH   1   2
BRANCH   1   4
ATOM      4  C   LIG    1        1.341  -4.130  -2.293  0.00  0.00    +0.200 C 
BRANCH   4   7
ATOM      5  N   LIG    1        0.738  -1.962  -1.265  0.00  0.00    -0.720 N 
ATOM      6  H   LIG    1        0.332  -2.457  -0.536  0.00  0.00    +0.400 HD
ATOM      7  C   LIG    1        1.321  -2.623  -2.285  0.00  0.00    +0.490 C 
ATOM      8  O   LIG    1        1.829  -2.004  -3.196  0.00  0.00    -0.530 OA
BRANCH   5   9
ATOM      9  C   LIG    1        0.718  -0.497  -1.257  0.00  0.00    +0.260 C 
BRANCH   9  11
ATOM     10  C   LIG    1       -0.019   1.526   0.010  0.00  0.00    +0.030 C 
ATOM     11  C   LIG    1        0.002  -0.004   0.002  0.00  0.00    +0.000 C 
ENDBRANCH   9  11
ENDBRANCH   5   9
ENDBRANCH   4   7
BRANCH   4  12
ATOM     12  O   LIG    1        2.110  -4.589  -3.407  0.00  0.00    -0.530 OA
ATOM     13  H   LIG    1        1.768  -4.304  -4.265  0.00  0.00    +0.390 HD
ENDBRANCH   4  12
ENDBRANCH   1   4
BRANCH   1  14
ATOM     14  C   LIG    1       -0.069  -6.188  -2.416  0.00  0.00    +0.180 C 
BRANCH  14  15
ATOM     15  O   LIG    1        0.622  -6.662  -1.259  0.00  0.00    -0.540 OA
ATOM     16  H   LIG    1        0.223  -6.386  -0.422  0.00  0.00    +0.370 HD
ENDBRANCH  14  15
BRANCH  14  17
ATOM     17  C   LIG    1       -1.504  -6.718  -2.406  0.00  0.00    +0.190 C 
BRANCH  17  18
ATOM     18  O   LIG    1       -2.208  -6.164  -1.292  0.00  0.00    -0.530 OA
ATOM     19  H   LIG    1       -1.818  -6.379  -0.434  0.00  0.00    +0.360 HD
ENDBRANCH  17  18
BRANCH  17  20
ATOM     20  C   LIG    1       -1.484  -8.243  -2.288  0.00  0.00    +0.170 C 
BRANCH  20  21
ATOM     21  O   LIG    1       -2.817  -8.747  -2.395  0.00  0.00    -0.570 OA
ATOM     22  H   LIG    1       -2.881  -9.709  -2.329  0.00  0.00    +0.380 HD
ENDBRANCH  20  21
ENDBRANCH  17  20
ENDBRANCH  14  17
ENDBRANCH   1  14
TORSDOF 12
ENDMDL
MODEL      497
REMARK  Name = ZINC000025625591
REMARK                            x       y       z     vdW  Elec       q    Type
REMARK                         _______ _______ _______ _____ _____    ______ ____
ROOT
ATOM      1  C   LIG    1       -0.090  -4.658  -2.408  0.00  0.00    +0.180 C 
ENDROOT
BRANCH   1   2
ATOM      2  O   LIG    1       -0.858  -4.199  -1.294  0.00  0.00    -0.540 OA
ATOM      3  H   LIG    1       -0.516  -4.484  -0.436  0.00  0.00    +0.370 HD
ENDBRANCH   1   2
BRANCH   1   4
ATOM      4  C   LIG    1        1.341  -4.130  -2.293  0.00  0.00    +0.200 C 
BRANCH   4   7
ATOM      5  N   LIG    1        0.738  -1.962  -1.265  0.00  0.00    -0.720 N 
ATOM      6  H   LIG    1        0.332  -2.457  -0.536  0.00  0.00    +0.400 HD
ATOM      7  C   LIG    1        1.321  -2.623  -2.285  0.00  0.00    +0.490 C 
ATOM      8  O   LIG    1        1.829  -2.004  -3.196  0.00  0.00    -0.530 OA
BRANCH   5   9
ATOM      9  C   LIG    1        0.718  -0.497  -1.257  0.00  0.00    +0.260 C 
BRANCH   9  11
ATOM     10  C   LIG    1       -0.019   1.526   0.010  0.00  0.00    +0.030 C 
ATOM     11  C   LIG    1        0.002  -0.004   0.002  0.00  0.00    +0.000 C 
ENDBRANCH   9  11
ENDBRANCH   5   9
ENDBRANCH   4   7
BRANCH   4  12
ATOM     12  O   LIG    1        2.110  -4.589  -3.407  0.00  0.00    -0.520 OA
ATOM     13  H   LIG    1        1.768  -4.304  -4.265  0.00  0.00    +0.390 HD
ENDBRANCH   4  12
ENDBRANCH   1   4
BRANCH   1  14
ATOM     14  C   LIG    1       -0.069  -6.188  -2.416  0.00  0.00    +0.170 C 
BRANCH  14  15
ATOM     15  O   LIG    1        0.622  -6.662  -1.259  0.00  0.00    -0.540 OA
ATOM     16  H   LIG    1        0.223  -6.386  -0.422  0.00  0.00    +0.370 HD
ENDBRANCH  14  15
BRANCH  14  17
ATOM     17  C   LIG    1       -1.504  -6.718  -2.406  0.00  0.00    +0.190 C 
BRANCH  17  18
ATOM     18  O   LIG    1       -2.195  -6.245  -3.563  0.00  0.00    -0.540 OA
ATOM     19  H   LIG    1       -1.796  -6.520  -4.400  0.00  0.00    +0.370 HD
ENDBRANCH  17  18
BRANCH  17  20
ATOM     20  C   LIG    1       -1.484  -8.248  -2.414  0.00  0.00    +0.150 C 
BRANCH  20  21
ATOM     21  O   LIG    1       -2.818  -8.743  -2.287  0.00  0.00    -0.570 OA
ATOM     22  H   LIG    1       -2.881  -9.708  -2.284  0.00  0.00    +0.380 HD
ENDBRANCH  20  21
ENDBRANCH  17  20
ENDBRANCH  14  17
ENDBRANCH   1  14
TORSDOF 12
ENDMDL
MODEL      498
REMARK  Name = ZINC000004533049
REMARK                            x       y       z     vdW  Elec       q    Type
REMARK                         _______ _______ _______ _____ _____    ______ ____
ROOT
ATOM      1  C   LIG    1       -0.090  -4.658  -2.408  0.00  0.00    +0.170 C 
ENDROOT
BRANCH   1   2
ATOM      2  O   LIG    1       -0.858  -4.199  -1.294  0.00  0.00    -0.520 OA
ATOM      3  H   LIG    1       -0.516  -4.484  -0.436  0.00  0.00    +0.370 HD
ENDBRANCH   1   2
BRANCH   1   4
ATOM      4  C   LIG    1        1.341  -4.130  -2.293  0.00  0.00    +0.190 C 
BRANCH   4   7
ATOM      5  N   LIG    1        0.738  -1.962  -1.265  0.00  0.00    -0.720 N 
ATOM      6  H   LIG    1        0.332  -2.457  -0.536  0.00  0.00    +0.400 HD
ATOM      7  C   LIG    1        1.321  -2.623  -2.285  0.00  0.00    +0.480 C 
ATOM      8  O   LIG    1        1.829  -2.004  -3.196  0.00  0.00    -0.530 OA
BRANCH   5   9
ATOM      9  C   LIG    1        0.718  -0.497  -1.257  0.00  0.00    +0.260 C 
BRANCH   9  11
ATOM     10  C   LIG    1       -0.019   1.526   0.010  0.00  0.00    +0.030 C 
ATOM     11  C   LIG    1        0.002  -0.004   0.002  0.00  0.00    +0.000 C 
ENDBRANCH   9  11
ENDBRANCH   5   9
ENDBRANCH   4   7
BRANCH   4  12
ATOM     12  O   LIG    1        2.110  -4.589  -3.407  0.00  0.00    -0.510 OA
ATOM     13  H   LIG    1        1.768  -4.304  -4.265  0.00  0.00    +0.380 HD
ENDBRANCH   4  12
ENDBRANCH   1   4
BRANCH   1  14
ATOM     14  C   LIG    1       -0.069  -6.188  -2.416  0.00  0.00    +0.170 C 
BRANCH  14  15
ATOM     15  O   LIG    1        0.700  -6.648  -3.530  0.00  0.00    -0.530 OA
ATOM     16  H   LIG    1        0.358  -6.363  -4.388  0.00  0.00    +0.380 HD
ENDBRANCH  14  15
BRANCH  14  17
ATOM     17  C   LIG    1       -1.500  -6.717  -2.531  0.00  0.00    +0.190 C 
BRANCH  17  18
ATOM     18  O   LIG    1       -2.268  -6.257  -1.418  0.00  0.00    -0.530 OA
ATOM     19  H   LIG    1       -1.927  -6.543  -0.559  0.00  0.00    +0.370 HD
ENDBRANCH  17  18
BRANCH  17  20
ATOM     20  C   LIG    1       -1.479  -8.247  -2.540  0.00  0.00    +0.150 C 
BRANCH  20  21
ATOM     21  O   LIG    1       -2.802  -8.740  -2.764  0.00  0.00    -0.570 OA
ATOM     22  H   LIG    1       -2.864  -9.705  -2.782  0.00  0.00    +0.380 HD
ENDBRANCH  20  21
ENDBRANCH  17  20
ENDBRANCH  14  17
ENDBRANCH   1  14
TORSDOF 12
ENDMDL
MODEL      499
REMARK  Name = ZINC000247793377
REMARK                            x       y       z     vdW  Elec       q    Type
REMARK                         _______ _______ _______ _____ _____    ______ ____
ROOT
ATOM      1  C   LIG    1        0.002  -0.004   0.002  0.00  0.00    +0.380 C 
ATOM      2  O   LIG    1        0.668  -0.467  -1.176  0.00  0.00    -0.410 OA
ATOM      3  C   LIG    1        0.021  -0.081  -2.392  0.00  0.00    +0.350 C 
ATOM      4  O   LIG    1        0.729  -0.639  -3.502  0.00  0.00    -0.370 OA
ATOM      5  C   LIG    1        0.752  -2.069  -3.508  0.00  0.00    +0.340 C 
ATOM      6  C   LIG    1       -0.687  -2.594  -3.515  0.00  0.00    +0.380 C 
ATOM      7  O   LIG    1       -1.393  -2.039  -2.402  0.00  0.00    -0.410 OA
ATOM      8  C   LIG    1       -1.418  -0.603  -2.386  0.00  0.00    +0.360 C 
ATOM      9  O   LIG    1       -2.094  -0.154  -1.208  0.00  0.00    -0.370 OA
ATOM     10  C   LIG    1       -1.434  -0.536   0.009  0.00  0.00    +0.340 C 
ENDROOT
BRANCH   1  11
ATOM     11  O   LIG    1       -0.017   1.425   0.010  0.00  0.00    -0.550 OA
ATOM     12  H   LIG    1        0.861   1.830   0.004  0.00  0.00    +0.390 HD
ENDBRANCH   1  11
BRANCH   6  13
ATOM     13  O   LIG    1       -1.331  -2.207  -4.731  0.00  0.00    -0.550 OA
ATOM     14  H   LIG    1       -2.247  -2.506  -4.804  0.00  0.00    +0.390 HD
ENDBRANCH   6  13
BRANCH   5  15
ATOM     15  O   LIG    1        1.436  -2.531  -4.675  0.00  0.00    -0.520 OA
ATOM     16  H   LIG    1        2.353  -2.231  -4.737  0.00  0.00    +0.400 HD
ENDBRANCH   5  15
BRANCH  10  17
ATOM     17  O   LIG    1       -2.150  -0.006   1.127  0.00  0.00    -0.520 OA
ATOM     18  H   LIG    1       -3.065  -0.313   1.190  0.00  0.00    +0.400 HD
ENDBRANCH  10  17
TORSDOF 4
ENDMDL
MODEL      500
REMARK  Name = ZINC000004793244
REMARK                            x       y       z     vdW  Elec       q    Type
REMARK                         _______ _______ _______ _____ _____    ______ ____
ROOT
ATOM      1  N   LIG    1        2.129  -0.090  -1.209  0.00  0.00    -0.470 N 
ATOM      2  H1  LIG    1        2.588  -0.556  -0.441  0.00  0.00    +0.430 HD
ATOM      3  H2  LIG    1        2.186   0.909  -1.079  0.00  0.00    +0.400 HD
ENDROOT
BRANCH   1   4
ATOM      4  C   LIG    1        2.788  -0.458  -2.470  0.00  0.00    +0.220 C 
ATOM      5  C   LIG    1        2.188   0.372  -3.634  0.00  0.00    -0.290 C 
ATOM      6  S   LIG    1        3.491   0.182  -4.916  0.00  0.00    +2.410 S 
ATOM      7  C   LIG    1        4.894   0.202  -3.738  0.00  0.00    -0.310 C 
ATOM      8  O   LIG    1        3.532   1.345  -5.732  0.00  0.00    -0.910 OA
ATOM      9  O   LIG    1        3.389  -1.104  -5.513  0.00  0.00    -0.900 OA
ATOM     10  C   LIG    1        4.284  -0.155  -2.375  0.00  0.00    +0.200 C 
BRANCH  10  11
ATOM     11  O   LIG    1        4.952  -1.307  -1.857  0.00  0.00    -0.540 OA
ATOM     12  H   LIG    1        5.898  -1.179  -1.705  0.00  0.00    +0.400 HD
ENDBRANCH  10  11
ENDBRANCH   1   4
BRANCH   1  13
ATOM     13  CA  LIG    1        0.718  -0.497  -1.257  0.00  0.00    +0.070 C 
BRANCH  13  14
ATOM     14  C   LIG    1        0.632  -2.000  -1.327  0.00  0.00    +0.490 C 
ATOM     15  OXT LIG    1        1.631  -2.677  -1.155  0.00  0.00    -0.660 OA
ATOM     16  O   LIG    1       -0.438  -2.539  -1.558  0.00  0.00    -0.630 OA
ENDBRANCH  13  14
BRANCH  13  18
ATOM     17  C   LIG    1       -0.019   1.526   0.010  0.00  0.00    +0.020 C 
ATOM     18  C   LIG    1        0.002  -0.004   0.002  0.00  0.00    +0.060 C 
ENDBRANCH  13  18
ENDBRANCH   1  13
TORSDOF 5
ENDMDL
MODEL      501
REMARK  Name = ZINC000031771707
REMARK                            x       y       z     vdW  Elec       q    Type
REMARK                         _______ _______ _______ _____ _____    ______ ____
ROOT
ATOM      1  C   LIG    1       -0.534  -0.733   0.189  0.00  0.00    +0.110 C 
ATOM      2  C   LIG    1        0.362  -0.962  -1.031  0.00  0.00    +0.200 C 
ATOM      3  O   LIG    1       -0.213  -0.321  -2.171  0.00  0.00    -0.370 OA
ATOM      4  C   LIG    1       -1.506  -0.814  -2.527  0.00  0.00    +0.300 C 
ATOM      5  C   LIG    1       -2.478  -0.579  -1.367  0.00  0.00    +0.210 C 
ATOM      6  C   LIG    1       -1.938  -1.269  -0.109  0.00  0.00    +0.170 C 
ENDROOT
BRANCH   1   7
ATOM      7  O   LIG    1       -0.607   0.665   0.472  0.00  0.00    -0.550 OA
ATOM      8  H   LIG    1        0.248   1.072   0.668  0.00  0.00    +0.380 HD
ENDBRANCH   1   7
BRANCH   5   9
ATOM      9  O   LIG    1       -3.758  -1.122  -1.698  0.00  0.00    -0.550 OA
ATOM     10  H   LIG    1       -4.424  -1.008  -1.007  0.00  0.00    +0.390 HD
ENDBRANCH   5   9
BRANCH   4  11
ATOM     11  O   LIG    1       -1.423  -2.214  -2.803  0.00  0.00    -0.550 OA
ATOM     12  H   LIG    1       -0.824  -2.437  -3.527  0.00  0.00    +0.390 HD
ENDBRANCH   4  11
BRANCH   6  13
ATOM     13  O   LIG    1       -2.802  -0.995   0.995  0.00  0.00    -0.560 OA
ATOM     14  H   LIG    1       -2.520  -1.402   1.826  0.00  0.00    +0.380 HD
ENDBRANCH   6  13
BRANCH   4  15
ATOM     15  C   LIG    1       -2.009  -0.078  -3.771  0.00  0.00    +0.210 C 
BRANCH  15  16
ATOM     16  N   LIG    1       -1.180  -0.447  -4.926  0.00  0.00    -0.540 NA
ATOM     17  C   LIG    1        0.247  -0.241  -4.638  0.00  0.00    +0.160 C 
ATOM     18  C   LIG    1        1.076  -0.693  -5.843  0.00  0.00    +0.220 C 
ATOM     19  O   LIG    1        0.649   0.025  -7.004  0.00  0.00    -0.390 OA
ATOM     20  C   LIG    1       -0.735  -0.153  -7.315  0.00  0.00    +0.220 C 
ATOM     21  C   LIG    1       -1.583   0.304  -6.124  0.00  0.00    +0.160 C 
ENDBRANCH  15  16
ENDBRANCH   4  15
TORSDOF 6
ENDMDL
MODEL      502
REMARK  Name = ZINC000247793372
REMARK                            x       y       z     vdW  Elec       q    Type
REMARK                         _______ _______ _______ _____ _____    ______ ____
ROOT
ATOM      1  C   LIG    1        0.002  -0.004   0.002  0.00  0.00    +0.380 C 
ATOM      2  O   LIG    1        0.668  -0.467  -1.176  0.00  0.00    -0.410 OA
ATOM      3  C   LIG    1        0.021  -0.081  -2.392  0.00  0.00    +0.350 C 
ATOM      4  O   LIG    1        0.729  -0.639  -3.502  0.00  0.00    -0.370 OA
ATOM      5  C   LIG    1        0.752  -2.069  -3.508  0.00  0.00    +0.340 C 
ATOM      6  C   LIG    1       -0.687  -2.594  -3.515  0.00  0.00    +0.350 C 
ATOM      7  O   LIG    1       -1.393  -2.039  -2.402  0.00  0.00    -0.430 OA
ATOM      8  C   LIG    1       -1.418  -0.603  -2.386  0.00  0.00    +0.360 C 
ATOM      9  O   LIG    1       -2.094  -0.154  -1.208  0.00  0.00    -0.360 OA
ATOM     10  C   LIG    1       -1.434  -0.536   0.009  0.00  0.00    +0.340 C 
ENDROOT
BRANCH   1  11
ATOM     11  O   LIG    1       -0.017   1.425   0.010  0.00  0.00    -0.550 OA
ATOM     12  H   LIG    1        0.861   1.830   0.004  0.00  0.00    +0.390 HD
ENDBRANCH   1  11
BRANCH   6  13
ATOM     13  O   LIG    1       -0.677  -4.019  -3.414  0.00  0.00    -0.520 OA
ATOM     14  H   LIG    1       -1.557  -4.420  -3.413  0.00  0.00    +0.400 HD
ENDBRANCH   6  13
BRANCH   5  15
ATOM     15  O   LIG    1        1.436  -2.531  -4.675  0.00  0.00    -0.520 OA
ATOM     16  H   LIG    1        2.353  -2.231  -4.737  0.00  0.00    +0.400 HD
ENDBRANCH   5  15
BRANCH  10  17
ATOM     17  O   LIG    1       -2.150  -0.006   1.127  0.00  0.00    -0.520 OA
ATOM     18  H   LIG    1       -3.065  -0.313   1.190  0.00  0.00    +0.400 HD
ENDBRANCH  10  17
TORSDOF 4
ENDMDL
MODEL      503
REMARK  Name = ZINC000004792693
REMARK                            x       y       z     vdW  Elec       q    Type
REMARK                         _______ _______ _______ _____ _____    ______ ____
ROOT
ATOM      1  N   SER A  1       -2.348   0.913  -0.189  0.00  0.00    -0.470 N 
ATOM      2  H1  SER A  1       -3.233   1.396  -0.185  0.00  0.00    +0.440 HD
ATOM      3  H2  SER A  1       -2.348   0.205   0.530  0.00  0.00    +0.430 HD
ENDROOT
BRANCH   1   4
ATOM      4  C   UNK A  0       -2.141   0.280  -1.498  0.00  0.00    +0.180 C 
ATOM      5  C   UNK A  0       -0.873  -0.591  -1.458  0.00  0.00    +0.090 C 
ATOM      6  C   UNK A  0       -0.900  -1.474  -2.732  0.00  0.00    -0.270 C 
ATOM      7  S   UNK A  0       -2.654  -1.998  -2.818  0.00  0.00    +2.410 S 
ATOM      8  O   UNK A  0       -2.817  -3.216  -2.104  0.00  0.00    -0.910 OA
ATOM      9  O   UNK A  0       -3.111  -1.897  -4.159  0.00  0.00    -0.910 OA
ATOM     10  C   UNK A  0       -3.346  -0.622  -1.834  0.00  0.00    -0.310 C 
ENDBRANCH   1   4
BRANCH   1  11
ATOM     11  CA  SER A  1       -1.265   1.871   0.068  0.00  0.00    +0.080 C 
BRANCH  11  13
ATOM     12  O   SER A  1       -2.428   2.252   2.091  0.00  0.00    -0.660 OA
ATOM     13  C   SER A  1       -1.391   2.408   1.470  0.00  0.00    +0.500 C 
ATOM     14  OXT SER A  1       -0.453   2.992   1.986  0.00  0.00    -0.640 OA
ENDBRANCH  11  13
BRANCH  11  15
ATOM     15  CB  SER A  1       -1.360   3.027  -0.931  0.00  0.00    +0.220 C 
BRANCH  15  16
ATOM     16  OG  SER A  1       -2.570   3.754  -0.705  0.00  0.00    -0.560 OA
ATOM     17  H   SER A  1       -2.696   4.503  -1.303  0.00  0.00    +0.390 HD
ENDBRANCH  15  16
ENDBRANCH  11  15
ENDBRANCH   1  11
TORSDOF 5
ENDMDL
MODEL      504
REMARK  Name = ZINC000100670248
REMARK                            x       y       z     vdW  Elec       q    Type
REMARK                         _______ _______ _______ _____ _____    ______ ____
ROOT
ATOM      1  C   LIG    1       -0.018   1.461   0.010  0.00  0.00    +0.350 C 
ATOM      2  N   LIG    1        0.002  -0.004   0.002  0.00  0.00    -0.550 N 
ATOM      3  C   LIG    1        0.005  -0.663  -1.173  0.00  0.00    +0.550 A 
ATOM      4  C   LIG    1        0.025  -2.071  -1.182  0.00  0.00    -0.030 A 
ATOM      5  C   LIG    1        0.040  -2.744   0.023  0.00  0.00    +0.280 A 
ATOM      6  N   LIG    1        0.036  -2.019   1.199  0.00  0.00    -0.630 N 
ATOM      7  H   LIG    1        0.046  -2.482   2.051  0.00  0.00    +0.440 HD
ATOM      8  O   LIG    1       -0.008  -0.043  -2.223  0.00  0.00    -0.490 OA
ATOM      9  C   LIG    1        0.022  -0.674   1.168  0.00  0.00    +0.700 A 
ATOM     10  O   LIG    1        0.019  -0.053   2.213  0.00  0.00    -0.530 OA
ENDROOT
BRANCH   5  11
ATOM     11  C   LIG    1        0.061  -4.211   0.054  0.00  0.00    +0.140 A 
ATOM     12  N   LIG    1        0.074  -5.011  -0.989  0.00  0.00    -0.180 NA
ATOM     13  N   LIG    1        0.091  -6.234  -0.587  0.00  0.00    -0.330 NA
ATOM     14  C   LIG    1        0.090  -6.262   0.730  0.00  0.00    +0.450 A 
ATOM     15  O   LIG    1        0.078  -4.989   1.161  0.00  0.00    -0.240 OA
BRANCH  14  16
ATOM     16  N   LIG    1        0.106  -7.388   1.520  0.00  0.00    -0.780 N 
ATOM     17  H   LIG    1        0.104  -7.302   2.486  0.00  0.00    +0.430 HD
ATOM     18  H   LIG    1        0.119  -8.267   1.111  0.00  0.00    +0.440 HD
ENDBRANCH  14  16
ENDBRANCH   5  11
TORSDOF 2
ENDMDL
MODEL      505
REMARK  Name = ZINC000041910252
REMARK                            x       y       z     vdW  Elec       q    Type
REMARK                         _______ _______ _______ _____ _____    ______ ____
ROOT
ATOM      1  C   LIG    1       -0.019   1.526   0.010  0.00  0.00    +0.070 C 
ATOM      2  C   LIG    1        0.002  -0.004   0.002  0.00  0.00    +0.140 C 
ATOM      3  C   LIG    1       -1.436  -0.536   0.015  0.00  0.00    +0.260 C 
ATOM      4  N   LIG    1       -1.389  -1.995   0.196  0.00  0.00    -0.610 N 
ATOM      5  C   LIG    1       -0.578  -2.530   1.302  0.00  0.00    +0.250 C 
ATOM      6  C   LIG    1        0.818  -1.901   1.226  0.00  0.00    +0.220 C 
ATOM      7  C   LIG    1       -2.068  -2.818  -0.627  0.00  0.00    +0.510 C 
ATOM      8  O   LIG    1       -2.731  -2.358  -1.533  0.00  0.00    -0.500 OA
ATOM      9  O   LIG    1        0.691  -0.479   1.161  0.00  0.00    -0.370 OA
ENDROOT
BRANCH   7  10
ATOM     10  C   LIG    1       -2.005  -4.310  -0.422  0.00  0.00    +0.380 C 
BRANCH  10  11
ATOM     11  N   LIG    1       -2.822  -4.978  -1.438  0.00  0.00    -0.310 N 
ATOM     12  C   LIG    1       -2.415  -5.942  -2.284  0.00  0.00    +0.400 A 
ATOM     13  N   LIG    1       -3.452  -6.259  -3.021  0.00  0.00    -0.300 NA
ATOM     14  N   LIG    1       -4.444  -5.528  -2.646  0.00  0.00    -0.070 NA
ATOM     15  N   LIG    1       -4.069  -4.756  -1.686  0.00  0.00    -0.060 NA
ENDBRANCH  10  11
ENDBRANCH   7  10
TORSDOF 2
ENDMDL
MODEL      506
REMARK  Name = ZINC000247793375
REMARK                            x       y       z     vdW  Elec       q    Type
REMARK                         _______ _______ _______ _____ _____    ______ ____
ROOT
ATOM      1  C   LIG    1        0.002  -0.004   0.002  0.00  0.00    +0.390 C 
ATOM      2  O   LIG    1        0.668  -0.467  -1.176  0.00  0.00    -0.400 OA
ATOM      3  C   LIG    1        0.021  -0.081  -2.392  0.00  0.00    +0.350 C 
ATOM      4  O   LIG    1        0.729  -0.639  -3.502  0.00  0.00    -0.370 OA
ATOM      5  C   LIG    1        0.752  -2.069  -3.508  0.00  0.00    +0.340 C 
ATOM      6  C   LIG    1       -0.687  -2.594  -3.515  0.00  0.00    +0.340 C 
ATOM      7  O   LIG    1       -1.393  -2.039  -2.402  0.00  0.00    -0.410 OA
ATOM      8  C   LIG    1       -1.418  -0.603  -2.386  0.00  0.00    +0.350 C 
ATOM      9  O   LIG    1       -2.094  -0.154  -1.208  0.00  0.00    -0.350 OA
ATOM     10  C   LIG    1       -1.434  -0.536   0.009  0.00  0.00    +0.370 C 
ENDROOT
BRANCH   1  11
ATOM     11  O   LIG    1       -0.017   1.425   0.010  0.00  0.00    -0.570 OA
ATOM     12  H   LIG    1        0.861   1.830   0.004  0.00  0.00    +0.400 HD
ENDBRANCH   1  11
BRANCH   6  13
ATOM     13  O   LIG    1       -0.677  -4.019  -3.414  0.00  0.00    -0.520 OA
ATOM     14  H   LIG    1       -1.557  -4.420  -3.413  0.00  0.00    +0.390 HD
ENDBRANCH   6  13
BRANCH   5  15
ATOM     15  O   LIG    1        1.436  -2.531  -4.675  0.00  0.00    -0.530 OA
ATOM     16  H   LIG    1        2.353  -2.231  -4.737  0.00  0.00    +0.390 HD
ENDBRANCH   5  15
BRANCH  10  17
ATOM     17  O   LIG    1       -1.392  -1.961   0.103  0.00  0.00    -0.550 OA
ATOM     18  H   LIG    1       -2.263  -2.381   0.107  0.00  0.00    +0.400 HD
ENDBRANCH  10  17
TORSDOF 4
ENDMDL
MODEL      507
REMARK  Name = ZINC000247793373
REMARK                            x       y       z     vdW  Elec       q    Type
REMARK                         _______ _______ _______ _____ _____    ______ ____
ROOT
ATOM      1  C   LIG    1        0.002  -0.004   0.002  0.00  0.00    +0.330 C 
ATOM      2  O   LIG    1        0.668  -0.467  -1.176  0.00  0.00    -0.370 OA
ATOM      3  C   LIG    1        0.696  -1.892  -1.298  0.00  0.00    +0.350 C 
ATOM      4  O   LIG    1        1.424  -2.446  -0.200  0.00  0.00    -0.410 OA
ATOM      5  C   LIG    1        1.455  -3.877  -0.195  0.00  0.00    +0.380 C 
ATOM      6  C   LIG    1        0.020  -4.410  -0.165  0.00  0.00    +0.340 C 
ATOM      7  O   LIG    1       -0.707  -3.859  -1.268  0.00  0.00    -0.370 OA
ATOM      8  C   LIG    1       -0.738  -2.428  -1.285  0.00  0.00    +0.360 C 
ATOM      9  O   LIG    1       -1.406  -1.955  -0.112  0.00  0.00    -0.430 OA
ATOM     10  C   LIG    1       -1.434  -0.536   0.009  0.00  0.00    +0.350 C 
ENDROOT
BRANCH   1  11
ATOM     11  O   LIG    1       -0.017   1.425   0.010  0.00  0.00    -0.530 OA
ATOM     12  H   LIG    1        0.861   1.830   0.004  0.00  0.00    +0.400 HD
ENDBRANCH   1  11
BRANCH   6  13
ATOM     13  O   LIG    1        0.037  -5.835  -0.267  0.00  0.00    -0.520 OA
ATOM     14  H   LIG    1       -0.840  -6.241  -0.255  0.00  0.00    +0.400 HD
ENDBRANCH   6  13
BRANCH   5  15
ATOM     15  O   LIG    1        2.116  -4.344  -1.372  0.00  0.00    -0.550 OA
ATOM     16  H   LIG    1        3.030  -4.040  -1.458  0.00  0.00    +0.390 HD
ENDBRANCH   5  15
BRANCH  10  17
ATOM     17  O   LIG    1       -2.077  -0.173   1.233  0.00  0.00    -0.520 OA
ATOM     18  H   LIG    1       -2.990  -0.484   1.304  0.00  0.00    +0.400 HD
ENDBRANCH  10  17
TORSDOF 4
ENDMDL
MODEL      508
REMARK  Name = ZINC000004792689
REMARK                            x       y       z     vdW  Elec       q    Type
REMARK                         _______ _______ _______ _____ _____    ______ ____
ROOT
ATOM      1  N   SER A  1       -2.424   1.001  -0.222  0.00  0.00    -0.470 N 
ATOM      2  H1  SER A  1       -3.309   1.478  -0.133  0.00  0.00    +0.410 HD
ATOM      3  H2  SER A  1       -2.376   0.254   0.455  0.00  0.00    +0.440 HD
ENDROOT
BRANCH   1   4
ATOM      4  C   UNK A  0       -2.301   0.444  -1.575  0.00  0.00    +0.210 C 
ATOM      5  C   UNK A  0       -2.549   1.544  -2.622  0.00  0.00    +0.080 C 
ATOM      6  C   UNK A  0       -2.752   0.880  -3.999  0.00  0.00    -0.290 C 
ATOM      7  S   UNK A  0       -3.430  -0.778  -3.632  0.00  0.00    +2.410 S 
ATOM      8  O   UNK A  0       -2.505  -1.770  -4.055  0.00  0.00    -0.910 OA
ATOM      9  O   UNK A  0       -4.782  -0.840  -4.066  0.00  0.00    -0.920 OA
ATOM     10  C   UNK A  0       -3.385  -0.640  -1.804  0.00  0.00    -0.320 C 
ENDBRANCH   1   4
BRANCH   1  11
ATOM     11  CA  SER A  1       -1.330   1.951   0.019  0.00  0.00    +0.080 C 
BRANCH  11  13
ATOM     12  O   SER A  1        0.002  -0.004   0.002  0.00  0.00    -0.660 OA
ATOM     13  C   SER A  1       -0.015   1.215   0.009  0.00  0.00    +0.500 C 
ATOM     14  OXT SER A  1        1.033   1.839   0.002  0.00  0.00    -0.640 OA
ENDBRANCH  11  13
BRANCH  11  15
ATOM     15  CB  SER A  1       -1.527   2.623   1.379  0.00  0.00    +0.220 C 
BRANCH  15  16
ATOM     16  OG  SER A  1       -1.413   1.645   2.415  0.00  0.00    -0.570 OA
ATOM     17  H   SER A  1       -1.528   2.001   3.306  0.00  0.00    +0.390 HD
ENDBRANCH  15  16
ENDBRANCH  11  15
ENDBRANCH   1  11
TORSDOF 5
ENDMDL
MODEL      509
REMARK  Name = ZINC000004403768
REMARK                            x       y       z     vdW  Elec       q    Type
REMARK                         _______ _______ _______ _____ _____    ______ ____
ROOT
ATOM      1  O   LIG    1        0.002  -0.004   0.002  0.00  0.00    -0.840 OA
ATOM      2  S   LIG    1       -0.017   1.417   0.010  0.00  0.00    +2.470 S 
ATOM      3  C   LIG    1       -0.617   1.973   1.623  0.00  0.00    -0.760 C 
ATOM      4  S   LIG    1        0.244   1.095   2.950  0.00  0.00    +2.470 S 
ATOM      5  C   LIG    1        1.939   1.708   2.793  0.00  0.00    -0.760 C 
ATOM      6  S   LIG    1        2.671   1.138   1.240  0.00  0.00    +2.470 S 
ATOM      7  O   LIG    1        2.420  -0.255   1.108  0.00  0.00    -0.840 OA
ATOM      8  O   LIG    1        4.009   1.610   1.172  0.00  0.00    -0.880 OA
ATOM      9  O   LIG    1        0.239  -0.293   2.648  0.00  0.00    -0.840 OA
ATOM     10  O   LIG    1       -0.280   1.535   4.195  0.00  0.00    -0.880 OA
ATOM     11  O   LIG    1       -0.743   2.105  -1.000  0.00  0.00    -0.880 OA
ATOM     12  C   LIG    1        1.690   2.014  -0.003  0.00  0.00    -0.760 C 
ENDROOT
TORSDOF 0
ENDMDL
MODEL      510
REMARK  Name = ZINC000009646732
REMARK                            x       y       z     vdW  Elec       q    Type
REMARK                         _______ _______ _______ _____ _____    ______ ____
ROOT
ATOM      1  N   LIG    1        1.178  -0.662  -0.014  0.00  0.00    -0.870 N 
ATOM      2  H   LIG    1        1.192  -1.632  -0.015  0.00  0.00    +0.400 HD
ATOM      3  H   LIG    1        2.012  -0.166  -0.020  0.00  0.00    +0.420 HD
ATOM      4  C   LIG    1        0.002  -0.004   0.002  0.00  0.00    +0.710 C 
ATOM      5  N   LIG    1       -1.155  -0.689  -0.092  0.00  0.00    -0.630 N 
ATOM      6  C   LIG    1       -2.438   0.019  -0.194  0.00  0.00    +0.310 C 
ATOM      7  C   LIG    1       -3.182  -0.485  -1.435  0.00  0.00    +0.060 C 
ATOM      8  C   LIG    1       -3.291  -2.005  -1.379  0.00  0.00    +0.120 C 
ATOM      9  N   LIG    1       -4.086  -2.421  -0.216  0.00  0.00    -0.720 N 
ATOM     10  H   LIG    1       -3.878  -2.257   0.718  0.00  0.00    +0.440 HD
ATOM     11  C   LIG    1       -5.159  -3.074  -0.701  0.00  0.00    +0.710 C 
ATOM     12  N   LIG    1       -5.158  -3.134  -2.038  0.00  0.00    -0.680 N 
ATOM     13  H   LIG    1       -5.849  -3.565  -2.565  0.00  0.00    +0.440 HD
ATOM     14  O   LIG    1       -6.029  -3.555  -0.003  0.00  0.00    -0.540 OA
ATOM     15  C   LIG    1       -1.909  -2.647  -1.338  0.00  0.00    +0.060 C 
ATOM     16  C   LIG    1       -4.077  -2.521  -2.563  0.00  0.00    +0.530 C 
ATOM     17  O   LIG    1       -3.795  -2.407  -3.736  0.00  0.00    -0.460 OA
ATOM     18  C   LIG    1       -1.155  -2.159  -0.102  0.00  0.00    +0.280 C 
ATOM     19  O   LIG    1       -0.015   1.208   0.101  0.00  0.00    -0.590 OA
ENDROOT
TORSDOF 0
ENDMDL
MODEL      511
REMARK  Name = ZINC000018129970
REMARK                            x       y       z     vdW  Elec       q    Type
REMARK                         _______ _______ _______ _____ _____    ______ ____
ROOT
ATOM      1  C   LIG    1        2.583  -2.785  -0.038  0.00  0.00    +0.420 C 
ENDROOT
BRANCH   1   3
ATOM      2  C   LIG    1        1.286  -0.722  -0.014  0.00  0.00    +0.560 C 
ATOM      3  N   LIG    1        1.304  -2.070  -0.021  0.00  0.00    -0.730 N 
ATOM      4  H   LIG    1        0.471  -2.566  -0.016  0.00  0.00    +0.410 HD
ATOM      5  O   LIG    1        2.331  -0.100  -0.021  0.00  0.00    -0.540 OA
BRANCH   2   7
ATOM      6  C   LIG    1       -0.016   1.326   0.009  0.00  0.00    +0.160 C 
ATOM      7  C   LIG    1        0.002  -0.004   0.002  0.00  0.00    -0.090 C 
ENDBRANCH   2   7
ENDBRANCH   1   3
BRANCH   1   8
ATOM      8  O   LIG    1        2.928  -3.113  -1.385  0.00  0.00    -0.550 OA
ATOM      9  H   LIG    1        2.281  -3.676  -1.831  0.00  0.00    +0.380 HD
ENDBRANCH   1   8
BRANCH   1  10
ATOM     10  C   LIG    1        2.459  -4.070   0.784  0.00  0.00    +0.420 C 
BRANCH  10  11
ATOM     11  N   LIG    1        3.737  -4.785   0.768  0.00  0.00    -0.730 N 
ATOM     12  H   LIG    1        4.570  -4.292   0.836  0.00  0.00    +0.410 HD
ATOM     13  C   LIG    1        3.757  -6.128   0.659  0.00  0.00    +0.560 C 
ATOM     14  O   LIG    1        2.713  -6.746   0.574  0.00  0.00    -0.540 OA
BRANCH  13  15
ATOM     15  C   LIG    1        5.040  -6.846   0.643  0.00  0.00    -0.090 C 
ATOM     16  C   LIG    1        5.060  -8.171   0.535  0.00  0.00    +0.160 C 
ENDBRANCH  13  15
ENDBRANCH  10  11
BRANCH  10  17
ATOM     17  O   LIG    1        2.113  -3.742   2.131  0.00  0.00    -0.550 OA
ATOM     18  H   LIG    1        2.760  -3.179   2.578  0.00  0.00    +0.380 HD
ENDBRANCH  10  17
ENDBRANCH   1  10
TORSDOF 7
ENDMDL
MODEL      512
REMARK  Name = ZINC000033358926
REMARK                            x       y       z     vdW  Elec       q    Type
REMARK                         _______ _______ _______ _____ _____    ______ ____
ROOT
ATOM      1  C   LIG    1       -1.471  -2.431   0.003  0.00  0.00    +0.170 C 
ATOM      2  O   LIG    1       -0.858  -2.826  -1.226  0.00  0.00    -0.340 OA
ATOM      3  C   LIG    1       -0.608  -4.229  -1.329  0.00  0.00    +0.180 C 
ATOM      4  C   LIG    1       -1.934  -4.990  -1.249  0.00  0.00    +0.170 C 
ATOM      5  C   LIG    1       -2.636  -4.638   0.066  0.00  0.00    +0.160 C 
ATOM      6  C   LIG    1       -2.832  -3.120   0.138  0.00  0.00    +0.160 C 
ENDROOT
BRANCH   5   7
ATOM      7  O   LIG    1       -3.908  -5.288   0.118  0.00  0.00    -0.560 OA
ATOM      8  H   LIG    1       -4.409  -5.109   0.925  0.00  0.00    +0.390 HD
ENDBRANCH   5   7
BRANCH   4   9
ATOM      9  O   LIG    1       -2.765  -4.619  -2.350  0.00  0.00    -0.550 OA
ATOM     10  H   LIG    1       -3.624  -5.064  -2.363  0.00  0.00    +0.390 HD
ENDBRANCH   4   9
BRANCH   6  11
ATOM     11  O   LIG    1       -3.422  -2.773   1.392  0.00  0.00    -0.560 OA
ATOM     12  H   LIG    1       -3.575  -1.825   1.506  0.00  0.00    +0.390 HD
ENDBRANCH   6  11
BRANCH   1  13
ATOM     13  S   LIG    1       -1.700  -0.632   0.015  0.00  0.00    -0.210 S 
BRANCH  13  15
ATOM     14  C   LIG    1       -0.019   1.526   0.010  0.00  0.00    +0.070 C 
ATOM     15  C   LIG    1        0.002  -0.004   0.002  0.00  0.00    +0.080 C 
ENDBRANCH  13  15
ENDBRANCH   1  13
BRANCH   3  16
ATOM     16  C   LIG    1        0.072  -4.529  -2.667  0.00  0.00    +0.220 C 
BRANCH  16  17
ATOM     17  O   LIG    1        1.361  -3.912  -2.695  0.00  0.00    -0.570 OA
ATOM     18  H   LIG    1        1.850  -4.061  -3.515  0.00  0.00    +0.380 HD
ENDBRANCH  16  17
ENDBRANCH   3  16
TORSDOF 7
ENDMDL
MODEL      513
REMARK  Name = ZINC000019943988
REMARK                            x       y       z     vdW  Elec       q    Type
REMARK                         _______ _______ _______ _____ _____    ______ ____
ROOT
ATOM      1  C   LIG    1        0.007  -0.753  -1.136  0.00  0.00    +0.530 A 
ATOM      2  C   LIG    1        0.032  -0.164  -2.412  0.00  0.00    -0.370 A 
ATOM      3  C   LIG    1        0.014  -1.054  -3.580  0.00  0.00    +0.560 A 
ATOM      4  N   LIG    1       -0.025  -2.387  -3.376  0.00  0.00    -0.560 N 
ATOM      5  C   LIG    1       -0.046  -2.893  -2.132  0.00  0.00    +0.700 A 
ATOM      6  O   LIG    1       -0.081  -4.099  -1.991  0.00  0.00    -0.530 OA
ATOM      7  C   LIG    1       -0.042  -3.294  -4.525  0.00  0.00    +0.340 C 
ATOM      8  O   LIG    1        0.034  -0.599  -4.708  0.00  0.00    -0.470 OA
ATOM      9  N   LIG    1       -0.025  -2.115  -1.038  0.00  0.00    -0.540 N 
ATOM     10  C   LIG    1       -0.051  -2.739   0.287  0.00  0.00    +0.340 C 
ENDROOT
BRANCH   1  12
ATOM     11  C   LIG    1       -1.237   0.391   0.634  0.00  0.00    +0.300 C 
ATOM     12  N   LIG    1        0.022   0.021  -0.017  0.00  0.00    -0.680 N 
ATOM     13  C   LIG    1        1.297   0.483   0.537  0.00  0.00    +0.310 C 
ENDBRANCH   1  12
BRANCH   2  14
ATOM     14  C   LIG    1        0.072   1.239  -2.566  0.00  0.00    +0.500 C 
ATOM     15  O   LIG    1        0.190   1.725  -3.673  0.00  0.00    -0.450 OA
ENDBRANCH   2  14
TORSDOF 2
ENDMDL
MODEL      514
REMARK  Name = ZINC000097201755
REMARK                            x       y       z     vdW  Elec       q    Type
REMARK                         _______ _______ _______ _____ _____    ______ ____
ROOT
ATOM      1  C   LIG    1       -2.432  -2.813   0.010  0.00  0.00    +0.280 C 
ENDROOT
BRANCH   1   8
ATOM      2  N   LIG    1       -0.016   1.344   0.009  0.00  0.00    -0.860 N 
ATOM      3  H   LIG    1       -0.863   1.817   0.016  0.00  0.00    +0.400 HD
ATOM      4  H   LIG    1        0.817   1.840   0.004  0.00  0.00    +0.420 HD
ATOM      5  C   LIG    1        0.002  -0.004   0.002  0.00  0.00    +0.690 C 
ATOM      6  N   LIG    1       -1.156  -0.694   0.009  0.00  0.00    -0.690 N 
ATOM      7  H   LIG    1       -2.002  -0.220   0.020  0.00  0.00    +0.410 HD
ATOM      8  C   LIG    1       -1.137  -2.041   0.002  0.00  0.00    +0.480 C 
ATOM      9  O   LIG    1       -0.080  -2.633  -0.011  0.00  0.00    -0.460 OA
ATOM     10  O   LIG    1        1.063  -0.597  -0.011  0.00  0.00    -0.530 OA
ENDBRANCH   1   8
BRANCH   1  11
ATOM     11  N   LIG    1       -2.144  -4.253  -0.000  0.00  0.00    -0.510 NA
ATOM     12  C   LIG    1       -1.320  -4.634   1.155  0.00  0.00    +0.210 C 
ATOM     13  C   LIG    1       -1.345  -6.158   1.327  0.00  0.00    +0.300 C 
ATOM     14  N   LIG    1       -1.047  -6.771   0.030  0.00  0.00    -0.450 N 
ATOM     15  C   LIG    1       -0.668  -8.049  -0.239  0.00  0.00    +0.130 A 
ATOM     16  C   LIG    1       -0.509  -8.132  -1.576  0.00  0.00    +0.140 A 
ATOM     17  N   LIG    1       -0.787  -6.928  -2.105  0.00  0.00    -0.490 NA
ATOM     18  C   LIG    1       -1.111  -6.108  -1.151  0.00  0.00    +0.210 A 
ATOM     19  C   LIG    1       -1.505  -4.654  -1.266  0.00  0.00    +0.330 C 
ENDBRANCH   1  11
TORSDOF 2
ENDMDL
MODEL      515
REMARK  Name = ZINC000005612423
REMARK                            x       y       z     vdW  Elec       q    Type
REMARK                         _______ _______ _______ _____ _____    ______ ____
ROOT
ATOM      1  C   LIG    1       -2.276  -4.196   0.001  0.00  0.00    +0.290 C 
ENDROOT
BRANCH   1   9
ATOM      2  N   LIG    1       -0.016   1.344   0.009  0.00  0.00    -0.860 N 
ATOM      3  H   LIG    1       -0.863   1.817   0.016  0.00  0.00    +0.400 HD
ATOM      4  H   LIG    1        0.817   1.840   0.004  0.00  0.00    +0.420 HD
ATOM      5  C   LIG    1        0.002  -0.004   0.002  0.00  0.00    +0.710 C 
ATOM      6  N   LIG    1       -1.156  -0.694   0.009  0.00  0.00    -0.690 N 
ATOM      7  H   LIG    1       -2.002  -0.220   0.020  0.00  0.00    +0.410 HD
ATOM      8  C   LIG    1       -1.137  -2.041   0.002  0.00  0.00    +0.710 C 
ATOM      9  N   LIG    1       -2.295  -2.731   0.009  0.00  0.00    -0.740 N 
ATOM     10  H   LIG    1       -3.142  -2.258   0.020  0.00  0.00    +0.400 HD
ATOM     11  O   LIG    1       -0.077  -2.635  -0.011  0.00  0.00    -0.520 OA
ATOM     12  O   LIG    1        1.063  -0.597  -0.011  0.00  0.00    -0.530 OA
ENDBRANCH   1   9
BRANCH   1  13
ATOM     13  C   LIG    1       -3.711  -4.726   0.012  0.00  0.00    +0.290 C 
BRANCH  13  14
ATOM     14  N   LIG    1       -3.691  -6.190   0.004  0.00  0.00    -0.730 N 
ATOM     15  H   LIG    1       -2.845  -6.664  -0.007  0.00  0.00    +0.400 HD
ATOM     16  C   LIG    1       -4.849  -6.880   0.011  0.00  0.00    +0.710 C 
ATOM     17  N   LIG    1       -4.831  -8.228   0.004  0.00  0.00    -0.690 N 
ATOM     18  H   LIG    1       -3.984  -8.701  -0.007  0.00  0.00    +0.410 HD
ATOM     19  C   LIG    1       -5.989  -8.917   0.011  0.00  0.00    +0.710 C 
ATOM     20  O   LIG    1       -7.049  -8.324   0.025  0.00  0.00    -0.530 OA
ATOM     21  N   LIG    1       -5.970 -10.265   0.004  0.00  0.00    -0.860 N 
ATOM     22  H   LIG    1       -6.804 -10.761   0.009  0.00  0.00    +0.420 HD
ATOM     23  H   LIG    1       -5.124 -10.739  -0.007  0.00  0.00    +0.400 HD
ATOM     24  O   LIG    1       -5.910  -6.287   0.025  0.00  0.00    -0.520 OA
ENDBRANCH  13  14
ENDBRANCH   1  13
TORSDOF 3
ENDMDL
MODEL      516
REMARK  Name = ZINC000005328959
REMARK                            x       y       z     vdW  Elec       q    Type
REMARK                         _______ _______ _______ _____ _____    ______ ____
ROOT
ATOM      1  C   LIG    1       -2.432  -2.813   0.010  0.00  0.00    +0.110 C 
ENDROOT
BRANCH   1   8
ATOM      2  N   LIG    1       -0.016   1.344   0.009  0.00  0.00    -0.860 N 
ATOM      3  H   LIG    1       -0.863   1.817   0.016  0.00  0.00    +0.400 HD
ATOM      4  H   LIG    1        0.817   1.840   0.004  0.00  0.00    +0.420 HD
ATOM      5  C   LIG    1        0.002  -0.004   0.002  0.00  0.00    +0.700 C 
ATOM      6  N   LIG    1       -1.156  -0.694   0.009  0.00  0.00    -0.690 N 
ATOM      7  H   LIG    1       -2.002  -0.220   0.020  0.00  0.00    +0.410 HD
ATOM      8  C   LIG    1       -1.137  -2.041   0.002  0.00  0.00    +0.520 C 
ATOM      9  O   LIG    1       -0.080  -2.633  -0.011  0.00  0.00    -0.460 OA
ATOM     10  O   LIG    1        1.063  -0.597  -0.011  0.00  0.00    -0.530 OA
ENDBRANCH   1   8
BRANCH   1  11
ATOM     11  C   LIG    1       -2.132  -4.313  -0.001  0.00  0.00    +0.250 C 
ATOM     12  N   LIG    1       -1.524  -4.729   1.274  0.00  0.00    -0.720 N 
ATOM     13  H   LIG    1       -0.683  -4.417   1.644  0.00  0.00    +0.450 HD
ATOM     14  C   LIG    1       -2.361  -5.626   1.826  0.00  0.00    +0.700 C 
ATOM     15  N   LIG    1       -3.442  -5.848   1.069  0.00  0.00    -0.680 N 
ATOM     16  H   LIG    1       -4.154  -6.463   1.305  0.00  0.00    +0.440 HD
ATOM     17  O   LIG    1       -2.158  -6.173   2.892  0.00  0.00    -0.540 OA
ATOM     18  C   LIG    1       -3.418  -5.113  -0.064  0.00  0.00    +0.530 C 
ATOM     19  O   LIG    1       -4.252  -5.096  -0.943  0.00  0.00    -0.460 OA
ENDBRANCH   1  11
TORSDOF 2
ENDMDL
MODEL      517
REMARK  Name = ZINC000007191720
REMARK                            x       y       z     vdW  Elec       q    Type
REMARK                         _______ _______ _______ _____ _____    ______ ____
ROOT
ATOM      1  S   LIG    1       -2.077  -4.587  -0.003  0.00  0.00    +0.100 S 
ENDROOT
BRANCH   1   2
ATOM      2  C   LIG    1       -3.719  -5.228   0.009  0.00  0.00    +0.390 A 
ATOM      3  N   LIG    1       -4.737  -4.392   0.018  0.00  0.00    -0.580 NA
ATOM      4  C   LIG    1       -5.998  -4.839   0.028  0.00  0.00    +0.460 A 
ATOM      5  C   LIG    1       -6.246  -6.204   0.028  0.00  0.00    -0.250 A 
ATOM      6  C   LIG    1       -5.159  -7.085   0.019  0.00  0.00    +0.540 A 
ATOM      7  O   LIG    1       -5.339  -8.292   0.019  0.00  0.00    -0.550 OA
ATOM      8  N   LIG    1       -3.909  -6.577   0.004  0.00  0.00    -0.620 N 
ATOM      9  H   LIG    1       -3.144  -7.173  -0.003  0.00  0.00    +0.420 HD
BRANCH   4  10
ATOM     10  N   LIG    1       -7.050  -3.944   0.036  0.00  0.00    -0.830 N 
ATOM     11  H   LIG    1       -7.963  -4.270   0.043  0.00  0.00    +0.420 HD
ATOM     12  H   LIG    1       -6.875  -2.990   0.036  0.00  0.00    +0.410 HD
ENDBRANCH   4  10
ENDBRANCH   1   2
BRANCH   1  13
ATOM     13  C   LIG    1       -2.432  -2.813   0.010  0.00  0.00    +0.130 C 
BRANCH  13  20
ATOM     14  N   LIG    1       -0.016   1.344   0.009  0.00  0.00    -0.850 N 
ATOM     15  H   LIG    1       -0.863   1.817   0.016  0.00  0.00    +0.400 HD
ATOM     16  H   LIG    1        0.817   1.840   0.004  0.00  0.00    +0.420 HD
ATOM     17  C   LIG    1        0.002  -0.004   0.002  0.00  0.00    +0.700 C 
ATOM     18  N   LIG    1       -1.156  -0.694   0.009  0.00  0.00    -0.680 N 
ATOM     19  H   LIG    1       -2.002  -0.220   0.020  0.00  0.00    +0.410 HD
ATOM     20  C   LIG    1       -1.137  -2.041   0.002  0.00  0.00    +0.540 C 
ATOM     21  O   LIG    1       -0.080  -2.633  -0.011  0.00  0.00    -0.450 OA
ATOM     22  O   LIG    1        1.063  -0.597  -0.011  0.00  0.00    -0.530 OA
ENDBRANCH  13  20
ENDBRANCH   1  13
TORSDOF 4
ENDMDL
MODEL      518
REMARK  Name = ZINC000001738553
REMARK                            x       y       z     vdW  Elec       q    Type
REMARK                         _______ _______ _______ _____ _____    ______ ____
ROOT
ATOM      1  C   LIG    1       -2.432  -2.813   0.010  0.00  0.00    +0.110 C 
ENDROOT
BRANCH   1   8
ATOM      2  N   LIG    1       -0.016   1.344   0.009  0.00  0.00    -0.860 N 
ATOM      3  H   LIG    1       -0.863   1.817   0.016  0.00  0.00    +0.400 HD
ATOM      4  H   LIG    1        0.817   1.840   0.004  0.00  0.00    +0.420 HD
ATOM      5  C   LIG    1        0.002  -0.004   0.002  0.00  0.00    +0.700 C 
ATOM      6  N   LIG    1       -1.156  -0.694   0.009  0.00  0.00    -0.690 N 
ATOM      7  H   LIG    1       -2.002  -0.220   0.020  0.00  0.00    +0.410 HD
ATOM      8  C   LIG    1       -1.137  -2.041   0.002  0.00  0.00    +0.520 C 
ATOM      9  O   LIG    1       -0.080  -2.633  -0.011  0.00  0.00    -0.460 OA
ATOM     10  O   LIG    1        1.063  -0.597  -0.011  0.00  0.00    -0.530 OA
ENDBRANCH   1   8
BRANCH   1  11
ATOM     11  C   LIG    1       -2.132  -4.313  -0.001  0.00  0.00    +0.250 C 
ATOM     12  N   LIG    1       -1.548  -4.715  -1.292  0.00  0.00    -0.720 N 
ATOM     13  H   LIG    1       -0.715  -4.399  -1.675  0.00  0.00    +0.450 HD
ATOM     14  C   LIG    1       -2.396  -5.606  -1.837  0.00  0.00    +0.700 C 
ATOM     15  N   LIG    1       -3.462  -5.837  -1.062  0.00  0.00    -0.680 N 
ATOM     16  H   LIG    1       -4.179  -6.449  -1.291  0.00  0.00    +0.440 HD
ATOM     17  O   LIG    1       -2.213  -6.142  -2.912  0.00  0.00    -0.540 OA
ATOM     18  C   LIG    1       -3.417  -5.114   0.078  0.00  0.00    +0.530 C 
ATOM     19  O   LIG    1       -4.233  -5.108   0.974  0.00  0.00    -0.460 OA
ENDBRANCH   1  11
TORSDOF 2
ENDMDL
MODEL      519
REMARK  Name = ZINC000001648298
REMARK                            x       y       z     vdW  Elec       q    Type
REMARK                         _______ _______ _______ _____ _____    ______ ____
ROOT
ATOM      1  C   LIG    1        1.479  -2.361  -2.569  0.00  0.00    +0.250 C 
ENDROOT
BRANCH   1   2
ATOM      2  C   LIG    1        0.786  -1.801  -1.353  0.00  0.00    +0.450 C 
ATOM      3  O   LIG    1        0.325  -2.548  -0.523  0.00  0.00    -0.490 OA
BRANCH   2   4
ATOM      4  O   LIG    1        0.682  -0.472  -1.193  0.00  0.00    -0.350 OA
BRANCH   4   6
ATOM      5  C   LIG    1       -0.019   1.526   0.010  0.00  0.00    +0.070 C 
ATOM      6  C   LIG    1        0.002  -0.004   0.002  0.00  0.00    +0.200 C 
ENDBRANCH   4   6
ENDBRANCH   2   4
ENDBRANCH   1   2
BRANCH   1   7
ATOM      7  O   LIG    1        1.564  -3.783  -2.455  0.00  0.00    -0.520 OA
ATOM      8  H   LIG    1        0.707  -4.224  -2.387  0.00  0.00    +0.390 HD
ENDBRANCH   1   7
BRANCH   1   9
ATOM      9  C   LIG    1        0.682  -1.996  -3.823  0.00  0.00    +0.250 C 
BRANCH   9  10
ATOM     10  C   LIG    1        1.305  -2.658  -5.024  0.00  0.00    +0.450 C 
ATOM     11  O   LIG    1        0.693  -3.502  -5.635  0.00  0.00    -0.490 OA
BRANCH  10  12
ATOM     12  O   LIG    1        2.541  -2.311  -5.417  0.00  0.00    -0.350 OA
BRANCH  12  13
ATOM     13  C   LIG    1        3.078  -2.990  -6.582  0.00  0.00    +0.200 C 
ATOM     14  C   LIG    1        4.486  -2.465  -6.874  0.00  0.00    +0.070 C 
ENDBRANCH  12  13
ENDBRANCH  10  12
ENDBRANCH   9  10
BRANCH   9  15
ATOM     15  O   LIG    1       -0.667  -2.446  -3.678  0.00  0.00    -0.520 OA
ATOM     16  H   LIG    1       -0.752  -3.401  -3.553  0.00  0.00    +0.390 HD
ENDBRANCH   9  15
ENDBRANCH   1   9
TORSDOF 9
ENDMDL
MODEL      520
REMARK  Name = ZINC000017877781
REMARK                            x       y       z     vdW  Elec       q    Type
REMARK                         _______ _______ _______ _____ _____    ______ ____
ROOT
ATOM      1  C   LIG    1        1.479  -2.361  -2.569  0.00  0.00    +0.240 C 
ENDROOT
BRANCH   1   2
ATOM      2  C   LIG    1        0.786  -1.801  -1.353  0.00  0.00    +0.440 C 
ATOM      3  O   LIG    1        0.325  -2.548  -0.523  0.00  0.00    -0.490 OA
BRANCH   2   4
ATOM      4  O   LIG    1        0.682  -0.472  -1.193  0.00  0.00    -0.340 OA
BRANCH   4   6
ATOM      5  C   LIG    1       -0.019   1.526   0.010  0.00  0.00    +0.070 C 
ATOM      6  C   LIG    1        0.002  -0.004   0.002  0.00  0.00    +0.200 C 
ENDBRANCH   4   6
ENDBRANCH   2   4
ENDBRANCH   1   2
BRANCH   1   7
ATOM      7  O   LIG    1        1.360  -3.785  -2.571  0.00  0.00    -0.510 OA
ATOM      8  H   LIG    1        1.751  -4.213  -1.797  0.00  0.00    +0.390 HD
ENDBRANCH   1   7
BRANCH   1   9
ATOM      9  C   LIG    1        2.958  -1.972  -2.537  0.00  0.00    +0.240 C 
BRANCH   9  10
ATOM     10  C   LIG    1        3.651  -2.533  -3.753  0.00  0.00    +0.440 C 
ATOM     11  O   LIG    1        4.112  -1.786  -4.583  0.00  0.00    -0.490 OA
BRANCH  10  12
ATOM     12  O   LIG    1        3.755  -3.861  -3.913  0.00  0.00    -0.340 OA
BRANCH  12  13
ATOM     13  C   LIG    1        4.435  -4.329  -5.108  0.00  0.00    +0.200 C 
ATOM     14  C   LIG    1        4.456  -5.859  -5.116  0.00  0.00    +0.070 C 
ENDBRANCH  12  13
ENDBRANCH  10  12
ENDBRANCH   9  10
BRANCH   9  15
ATOM     15  O   LIG    1        3.077  -0.548  -2.535  0.00  0.00    -0.510 OA
ATOM     16  H   LIG    1        2.686  -0.120  -3.309  0.00  0.00    +0.390 HD
ENDBRANCH   9  15
ENDBRANCH   1   9
TORSDOF 9
ENDMDL
MODEL      521
REMARK  Name = ZINC000004741001
REMARK                            x       y       z     vdW  Elec       q    Type
REMARK                         _______ _______ _______ _____ _____    ______ ____
ROOT
ATOM      1  N   LIG    1       -2.551  -4.153   0.004  0.00  0.00    -0.710 N 
ATOM      2  H   LIG    1       -1.705  -4.627  -0.006  0.00  0.00    +0.410 HD
ATOM      3  C   LIG    1       -3.709  -4.843   0.011  0.00  0.00    +0.620 C 
ATOM      4  O   LIG    1       -4.770  -4.250   0.025  0.00  0.00    -0.520 OA
ENDROOT
BRANCH   3   5
ATOM      5  C   LIG    1       -3.689  -6.324   0.003  0.00  0.00    -0.090 A 
ATOM      6  N   LIG    1       -2.652  -7.133  -0.005  0.00  0.00    -0.300 NA
ATOM      7  O   LIG    1       -3.038  -8.278  -0.009  0.00  0.00    +0.350 OA
ATOM      8  N   LIG    1       -4.236  -8.436  -0.005  0.00  0.00    -0.410 NA
ATOM      9  C   LIG    1       -4.831  -7.266   0.009  0.00  0.00    +0.330 A 
BRANCH   9  10
ATOM     10  N   LIG    1       -6.190  -6.983   0.018  0.00  0.00    -0.800 N 
ATOM     11  H   LIG    1       -6.494  -6.062   0.029  0.00  0.00    +0.430 HD
ATOM     12  H   LIG    1       -6.836  -7.707   0.014  0.00  0.00    +0.420 HD
ENDBRANCH   9  10
ENDBRANCH   3   5
BRANCH   1  13
ATOM     13  C   LIG    1       -2.571  -2.688   0.012  0.00  0.00    +0.270 C 
BRANCH  13  14
ATOM     14  C   LIG    1       -1.136  -2.159   0.001  0.00  0.00    +0.290 C 
BRANCH  14  19
ATOM     15  N   LIG    1       -0.016   1.344   0.009  0.00  0.00    -0.870 N 
ATOM     16  H   LIG    1       -0.863   1.817   0.016  0.00  0.00    +0.400 HD
ATOM     17  H   LIG    1        0.817   1.840   0.004  0.00  0.00    +0.420 HD
ATOM     18  C   LIG    1        0.002  -0.004   0.002  0.00  0.00    +0.710 C 
ATOM     19  N   LIG    1       -1.156  -0.694   0.009  0.00  0.00    -0.740 N 
ATOM     20  H   LIG    1       -2.002  -0.220   0.020  0.00  0.00    +0.400 HD
ATOM     21  O   LIG    1        1.063  -0.598  -0.011  0.00  0.00    -0.590 OA
ENDBRANCH  14  19
ENDBRANCH  13  14
ENDBRANCH   1  13
TORSDOF 5
ENDMDL
MODEL      522
REMARK  Name = ZINC000036757583
REMARK                            x       y       z     vdW  Elec       q    Type
REMARK                         _______ _______ _______ _____ _____    ______ ____
ROOT
ATOM      1  N   LIG    1        0.796  -0.399  -1.397  0.00  0.00    -1.000 NA
ATOM      2  C   LIG    1        0.054  -0.583  -2.652  0.00  0.00    +0.300 C 
ATOM      3  C   LIG    1        0.651   0.347  -3.715  0.00  0.00    +0.280 C 
ATOM      4  N   LIG    1        2.111   0.175  -3.723  0.00  0.00    -0.610 N 
ATOM      5  C   LIG    1        2.853   0.359  -2.468  0.00  0.00    +0.270 C 
ATOM      6  C   LIG    1        2.757  -0.145  -4.862  0.00  0.00    +0.510 C 
ATOM      7  O   LIG    1        2.134  -0.294  -5.891  0.00  0.00    -0.510 OA
ATOM      8  C   LIG    1        2.256  -0.566  -1.406  0.00  0.00    +0.290 C 
ENDROOT
BRANCH   1  10
ATOM      9  C   LIG    1       -0.022   1.810   0.012  0.00  0.00    -0.280 C 
ATOM     10  S   LIG    1        0.002  -0.004   0.002  0.00  0.00    +2.610 S 
ATOM     11  O   LIG    1       -1.309  -0.519  -0.182  0.00  0.00    -0.950 OA
ATOM     12  O   LIG    1        0.845  -0.497   1.035  0.00  0.00    -0.950 OA
ENDBRANCH   1  10
BRANCH   6  13
ATOM     13  C   LIG    1        4.254  -0.319  -4.855  0.00  0.00    +0.220 C 
BRANCH  13  14
ATOM     14  O   LIG    1        4.700  -0.654  -6.170  0.00  0.00    -0.550 OA
ATOM     15  H   LIG    1        5.657  -0.781  -6.241  0.00  0.00    +0.390 HD
ENDBRANCH  13  14
ENDBRANCH   6  13
TORSDOF 3
ENDMDL
MODEL      523
REMARK  Name = ZINC000085252247
REMARK                            x       y       z     vdW  Elec       q    Type
REMARK                         _______ _______ _______ _____ _____    ______ ____
ROOT
ATOM      1  C   LIG    1        0.041  -3.294  -1.522  0.00  0.00    +0.600 C 
ATOM      2  N   LIG    1        0.061  -4.521  -0.965  0.00  0.00    -0.720 N 
ATOM      3  H   LIG    1        0.066  -4.615   0.001  0.00  0.00    +0.400 HD
ATOM      4  O   LIG    1        0.034  -3.176  -2.732  0.00  0.00    -0.550 OA
ENDROOT
BRANCH   1   8
ATOM      5  C   LIG    1       -0.018   1.461   0.010  0.00  0.00    +0.360 C 
ATOM      6  N   LIG    1        0.002  -0.004   0.002  0.00  0.00    -0.360 N 
ATOM      7  C   LIG    1        0.008  -0.782  -1.092  0.00  0.00    +0.320 A 
ATOM      8  C   LIG    1        0.028  -2.095  -0.665  0.00  0.00    -0.300 A 
ATOM      9  C   LIG    1        0.034  -2.074   0.748  0.00  0.00    +0.270 A 
ATOM     10  N   LIG    1        0.025  -0.828   1.133  0.00  0.00    -0.290 NA
ENDBRANCH   1   8
BRANCH   2  11
ATOM     11  C   LIG    1        0.074  -5.713  -1.817  0.00  0.00    +0.250 C 
BRANCH  11  12
ATOM     12  C   LIG    1        0.095  -6.966  -0.940  0.00  0.00    +0.120 C 
ATOM     13  C   LIG    1        1.280  -6.894   0.025  0.00  0.00    +0.070 C 
BRANCH  12  14
ATOM     14  O   LIG    1       -1.122  -7.048  -0.195  0.00  0.00    -0.550 OA
ATOM     15  H   LIG    1       -1.916  -7.097  -0.744  0.00  0.00    +0.380 HD
ENDBRANCH  12  14
BRANCH  12  16
ATOM     16  C   LIG    1        0.234  -8.206  -1.826  0.00  0.00    +0.160 C 
BRANCH  16  17
ATOM     17  O   LIG    1        0.254  -9.377  -1.007  0.00  0.00    -0.560 OA
ATOM     18  H   LIG    1        0.341 -10.203  -1.503  0.00  0.00    +0.380 HD
ENDBRANCH  16  17
ENDBRANCH  12  16
ENDBRANCH  11  12
ENDBRANCH   2  11
TORSDOF 6
ENDMDL
MODEL      524
REMARK  Name = ZINC000085252249
REMARK                            x       y       z     vdW  Elec       q    Type
REMARK                         _______ _______ _______ _____ _____    ______ ____
ROOT
ATOM      1  C   LIG    1        0.041  -3.294  -1.522  0.00  0.00    +0.600 C 
ATOM      2  N   LIG    1        0.061  -4.521  -0.965  0.00  0.00    -0.720 N 
ATOM      3  H   LIG    1        0.066  -4.615   0.001  0.00  0.00    +0.400 HD
ATOM      4  O   LIG    1        0.034  -3.176  -2.732  0.00  0.00    -0.550 OA
ENDROOT
BRANCH   1   8
ATOM      5  C   LIG    1       -0.018   1.461   0.010  0.00  0.00    +0.360 C 
ATOM      6  N   LIG    1        0.002  -0.004   0.002  0.00  0.00    -0.360 N 
ATOM      7  C   LIG    1        0.008  -0.782  -1.092  0.00  0.00    +0.320 A 
ATOM      8  C   LIG    1        0.028  -2.095  -0.665  0.00  0.00    -0.300 A 
ATOM      9  C   LIG    1        0.034  -2.074   0.748  0.00  0.00    +0.270 A 
ATOM     10  N   LIG    1        0.025  -0.828   1.133  0.00  0.00    -0.290 NA
ENDBRANCH   1   8
BRANCH   2  11
ATOM     11  C   LIG    1        0.074  -5.713  -1.817  0.00  0.00    +0.250 C 
BRANCH  11  12
ATOM     12  C   LIG    1        0.095  -6.966  -0.940  0.00  0.00    +0.120 C 
ATOM     13  C   LIG    1       -1.150  -6.989  -0.051  0.00  0.00    +0.070 C 
BRANCH  12  14
ATOM     14  O   LIG    1        1.265  -6.954  -0.120  0.00  0.00    -0.550 OA
ATOM     15  H   LIG    1        2.094  -6.940  -0.618  0.00  0.00    +0.380 HD
ENDBRANCH  12  14
BRANCH  12  16
ATOM     16  C   LIG    1        0.109  -8.211  -1.830  0.00  0.00    +0.160 C 
BRANCH  16  17
ATOM     17  O   LIG    1        0.011  -9.381  -1.014  0.00  0.00    -0.560 OA
ATOM     18  H   LIG    1        0.014 -10.209  -1.513  0.00  0.00    +0.380 HD
ENDBRANCH  16  17
ENDBRANCH  12  16
ENDBRANCH  11  12
ENDBRANCH   2  11
TORSDOF 6
ENDMDL
MODEL      525
REMARK  Name = ZINC000033747619
REMARK                            x       y       z     vdW  Elec       q    Type
REMARK                         _______ _______ _______ _____ _____    ______ ____
ROOT
ATOM      1  C   LIG    1        2.358  -2.414   1.337  0.00  0.00    +0.130 C 
ATOM      2  C   LIG    1        1.137  -1.875   0.636  0.00  0.00    -0.260 A 
ATOM      3  C   LIG    1       -0.017  -2.575   0.637  0.00  0.00    +0.340 A 
ATOM      4  N   LIG    1       -1.116  -2.072  -0.004  0.00  0.00    -0.540 N 
ATOM      5  C   LIG    1       -1.057  -0.885  -0.636  0.00  0.00    +0.700 A 
ATOM      6  N   LIG    1        0.081  -0.167  -0.653  0.00  0.00    -0.660 N 
ATOM      7  H   LIG    1        0.106   0.687  -1.113  0.00  0.00    +0.430 HD
ATOM      8  O   LIG    1       -2.045  -0.457  -1.199  0.00  0.00    -0.530 OA
ATOM      9  C   LIG    1        1.184  -0.626  -0.028  0.00  0.00    +0.550 A 
ATOM     10  O   LIG    1        2.214   0.024  -0.043  0.00  0.00    -0.510 OA
ENDROOT
BRANCH   4  11
ATOM     11  C   LIG    1       -2.369  -2.831  -0.002  0.00  0.00    +0.450 C 
ATOM     12  O   LIG    1       -2.316  -3.859   1.001  0.00  0.00    -0.340 OA
ATOM     13  C   LIG    1       -1.835  -5.057   0.353  0.00  0.00    +0.200 C 
ATOM     14  C   LIG    1       -2.555  -5.038  -1.019  0.00  0.00    +0.180 C 
ATOM     15  C   LIG    1       -2.562  -3.526  -1.364  0.00  0.00    -0.010 C 
BRANCH  14  16
ATOM     16  O   LIG    1       -3.888  -5.540  -0.903  0.00  0.00    -0.540 OA
ATOM     17  H   LIG    1       -3.938  -6.458  -0.602  0.00  0.00    +0.380 HD
ENDBRANCH  14  16
BRANCH  15  18
ATOM     18  C   LIG    1       -3.900  -3.126  -1.991  0.00  0.00    +0.220 C 
BRANCH  18  19
ATOM     19  O   LIG    1       -4.038  -3.762  -3.263  0.00  0.00    -0.570 OA
ATOM     20  H   LIG    1       -4.865  -3.553  -3.719  0.00  0.00    +0.380 HD
ENDBRANCH  18  19
ENDBRANCH  15  18
ENDBRANCH   4  11
TORSDOF 4
ENDMDL
MODEL      526
REMARK  Name = ZINC000003833811
REMARK                            x       y       z     vdW  Elec       q    Type
REMARK                         _______ _______ _______ _____ _____    ______ ____
ROOT
ATOM      1  C   LIG    1       -1.136  -2.159   0.001  0.00  0.00    +0.400 C 
ATOM      2  O   LIG    1       -1.260  -2.630  -1.342  0.00  0.00    -0.370 OA
ATOM      3  C   LIG    1       -1.226  -4.053  -1.467  0.00  0.00    +0.190 C 
ATOM      4  C   LIG    1       -2.398  -4.660  -0.691  0.00  0.00    +0.170 C 
ATOM      5  C   LIG    1       -2.312  -4.220   0.774  0.00  0.00    +0.170 C 
ATOM      6  C   LIG    1       -2.304  -2.690   0.837  0.00  0.00    +0.120 C 
ENDROOT
BRANCH   1  11
ATOM      7  N   LIG    1       -0.016   1.344   0.009  0.00  0.00    -0.860 N 
ATOM      8  H   LIG    1       -0.863   1.817   0.016  0.00  0.00    +0.400 HD
ATOM      9  H   LIG    1        0.817   1.840   0.004  0.00  0.00    +0.420 HD
ATOM     10  C   LIG    1        0.002  -0.004   0.002  0.00  0.00    +0.710 C 
ATOM     11  N   LIG    1       -1.156  -0.694   0.009  0.00  0.00    -0.730 N 
ATOM     12  H   LIG    1       -2.002  -0.220   0.020  0.00  0.00    +0.400 HD
ATOM     13  O   LIG    1        1.063  -0.598  -0.011  0.00  0.00    -0.580 OA
ENDBRANCH   1  11
BRANCH   5  14
ATOM     14  O   LIG    1       -3.440  -4.724   1.492  0.00  0.00    -0.560 OA
ATOM     15  H   LIG    1       -3.451  -4.483   2.428  0.00  0.00    +0.390 HD
ENDBRANCH   5  14
BRANCH   4  16
ATOM     16  O   LIG    1       -2.334  -6.085  -0.767  0.00  0.00    -0.550 OA
ATOM     17  H   LIG    1       -3.047  -6.537  -0.296  0.00  0.00    +0.390 HD
ENDBRANCH   4  16
BRANCH   6  18
ATOM     18  O   LIG    1       -2.152  -2.268   2.194  0.00  0.00    -0.550 OA
ATOM     19  H   LIG    1       -2.139  -1.308   2.308  0.00  0.00    +0.390 HD
ENDBRANCH   6  18
BRANCH   3  20
ATOM     20  C   LIG    1       -1.338  -4.438  -2.943  0.00  0.00    +0.220 C 
BRANCH  20  21
ATOM     21  O   LIG    1       -0.186  -3.969  -3.647  0.00  0.00    -0.560 OA
ATOM     22  H   LIG    1       -0.189  -4.179  -4.591  0.00  0.00    +0.380 HD
ENDBRANCH  20  21
ENDBRANCH   3  20
TORSDOF 6
ENDMDL
MODEL      527
REMARK  Name = ZINC000003160850
REMARK                            x       y       z     vdW  Elec       q    Type
REMARK                         _______ _______ _______ _____ _____    ______ ____
ROOT
ATOM      1  C   LIG    1       -1.136  -2.159   0.001  0.00  0.00    +0.290 C 
ATOM      2  C   LIG    1       -1.017  -2.687   1.455  0.00  0.00    -0.310 C 
ATOM      3  S   LIG    1       -1.576  -4.426   1.249  0.00  0.00    +2.390 S 
ATOM      4  C   LIG    1       -2.841  -4.049  -0.021  0.00  0.00    -0.300 C 
ATOM      5  O   LIG    1       -2.209  -4.867   2.442  0.00  0.00    -0.930 OA
ATOM      6  O   LIG    1       -0.533  -5.197   0.670  0.00  0.00    -0.920 OA
ATOM      7  C   LIG    1       -2.438  -2.688  -0.604  0.00  0.00    +0.300 C 
ENDROOT
BRANCH   1  12
ATOM      8  N   LIG    1       -0.016   1.344   0.009  0.00  0.00    -0.860 N 
ATOM      9  H   LIG    1       -0.863   1.817   0.016  0.00  0.00    +0.400 HD
ATOM     10  H   LIG    1        0.817   1.840   0.004  0.00  0.00    +0.420 HD
ATOM     11  C   LIG    1        0.002  -0.004   0.002  0.00  0.00    +0.710 C 
ATOM     12  N   LIG    1       -1.156  -0.694   0.009  0.00  0.00    -0.730 N 
ATOM     13  H   LIG    1       -2.002  -0.220   0.020  0.00  0.00    +0.400 HD
ATOM     14  O   LIG    1        1.063  -0.598  -0.011  0.00  0.00    -0.580 OA
ENDBRANCH   1  12
BRANCH   7  15
ATOM     15  N   LIG    1       -3.509  -1.723  -0.344  0.00  0.00    -0.740 N 
ATOM     16  H   LIG    1       -3.475  -1.162   0.447  0.00  0.00    +0.400 HD
ATOM     17  C   LIG    1       -4.542  -1.615  -1.203  0.00  0.00    +0.710 C 
ATOM     18  O   LIG    1       -4.584  -2.318  -2.194  0.00  0.00    -0.580 OA
ATOM     19  N   LIG    1       -5.527  -0.727  -0.963  0.00  0.00    -0.860 N 
ATOM     20  H   LIG    1       -6.271  -0.649  -1.582  0.00  0.00    +0.420 HD
ATOM     21  H   LIG    1       -5.493  -0.166  -0.173  0.00  0.00    +0.400 HD
ENDBRANCH   7  15
TORSDOF 2
ENDMDL
MODEL      528
REMARK  Name = ZINC000003160848
REMARK                            x       y       z     vdW  Elec       q    Type
REMARK                         _______ _______ _______ _____ _____    ______ ____
ROOT
ATOM      1  C   LIG    1       -1.136  -2.159   0.001  0.00  0.00    +0.290 C 
ATOM      2  C   LIG    1       -1.000  -2.649  -1.454  0.00  0.00    -0.290 C 
ATOM      3  S   LIG    1       -2.743  -2.971  -1.942  0.00  0.00    +2.380 S 
ATOM      4  C   LIG    1       -3.244  -3.560  -0.275  0.00  0.00    -0.300 C 
ATOM      5  O   LIG    1       -2.792  -4.047  -2.869  0.00  0.00    -0.930 OA
ATOM      6  O   LIG    1       -3.395  -1.743  -2.236  0.00  0.00    -0.920 OA
ATOM      7  C   LIG    1       -2.407  -2.674   0.666  0.00  0.00    +0.280 C 
ENDROOT
BRANCH   1  12
ATOM      8  N   LIG    1       -0.016   1.344   0.009  0.00  0.00    -0.860 N 
ATOM      9  H   LIG    1       -0.863   1.817   0.016  0.00  0.00    +0.400 HD
ATOM     10  H   LIG    1        0.817   1.840   0.004  0.00  0.00    +0.420 HD
ATOM     11  C   LIG    1        0.002  -0.004   0.002  0.00  0.00    +0.710 C 
ATOM     12  N   LIG    1       -1.156  -0.694   0.009  0.00  0.00    -0.740 N 
ATOM     13  H   LIG    1       -2.002  -0.220   0.020  0.00  0.00    +0.410 HD
ATOM     14  O   LIG    1        1.063  -0.598  -0.011  0.00  0.00    -0.590 OA
ENDBRANCH   1  12
BRANCH   7  15
ATOM     15  N   LIG    1       -2.034  -3.455   1.848  0.00  0.00    -0.730 N 
ATOM     16  H   LIG    1       -1.185  -3.924   1.872  0.00  0.00    +0.400 HD
ATOM     17  C   LIG    1       -2.871  -3.522   2.902  0.00  0.00    +0.710 C 
ATOM     18  O   LIG    1       -3.935  -2.935   2.873  0.00  0.00    -0.590 OA
ATOM     19  N   LIG    1       -2.528  -4.241   3.990  0.00  0.00    -0.860 N 
ATOM     20  H   LIG    1       -3.130  -4.289   4.749  0.00  0.00    +0.420 HD
ATOM     21  H   LIG    1       -1.679  -4.709   4.014  0.00  0.00    +0.400 HD
ENDBRANCH   7  15
TORSDOF 2
ENDMDL
MODEL      529
REMARK  Name = ZINC000016028117
REMARK                            x       y       z     vdW  Elec       q    Type
REMARK                         _______ _______ _______ _____ _____    ______ ____
ROOT
ATOM      1  C   LIG    1        2.553  -3.189   0.945  0.00  0.00    +0.140 C 
ATOM      2  C   LIG    1        1.324  -2.426   0.521  0.00  0.00    -0.260 A 
ATOM      3  C   LIG    1        0.120  -3.035   0.483  0.00  0.00    +0.360 A 
ATOM      4  N   LIG    1       -0.985  -2.327   0.096  0.00  0.00    -0.530 N 
ATOM      5  C   LIG    1       -0.883  -1.030  -0.246  0.00  0.00    +0.700 A 
ATOM      6  N   LIG    1        0.305  -0.398  -0.216  0.00  0.00    -0.660 N 
ATOM      7  H   LIG    1        0.361   0.538  -0.466  0.00  0.00    +0.430 HD
ATOM      8  O   LIG    1       -1.878  -0.419  -0.586  0.00  0.00    -0.540 OA
ATOM      9  C   LIG    1        1.417  -1.059   0.164  0.00  0.00    +0.550 A 
ATOM     10  O   LIG    1        2.492  -0.488   0.192  0.00  0.00    -0.510 OA
ENDROOT
BRANCH   4  11
ATOM     11  C   LIG    1       -2.292  -2.988   0.054  0.00  0.00    +0.430 C 
ATOM     12  O   LIG    1       -2.300  -4.112   0.950  0.00  0.00    -0.360 OA
ATOM     13  C   LIG    1       -3.136  -5.124   0.348  0.00  0.00    +0.210 C 
ATOM     14  C   LIG    1       -2.769  -5.049  -1.156  0.00  0.00    +0.170 C 
ATOM     15  C   LIG    1       -2.562  -3.526  -1.364  0.00  0.00    -0.010 C 
BRANCH  14  16
ATOM     16  O   LIG    1       -1.566  -5.771  -1.423  0.00  0.00    -0.550 OA
ATOM     17  H   LIG    1       -1.620  -6.715  -1.222  0.00  0.00    +0.380 HD
ENDBRANCH  14  16
BRANCH  15  18
ATOM     18  C   LIG    1       -1.360  -3.268  -2.275  0.00  0.00    +0.200 C 
BRANCH  18  19
ATOM     19  O   LIG    1       -1.625  -3.800  -3.575  0.00  0.00    -0.560 OA
ATOM     20  H   LIG    1       -0.904  -3.672  -4.206  0.00  0.00    +0.380 HD
ENDBRANCH  18  19
ENDBRANCH  15  18
ENDBRANCH   4  11
TORSDOF 4
ENDMDL
MODEL      530
REMARK  Name = ZINC000255971843
REMARK                            x       y       z     vdW  Elec       q    Type
REMARK                         _______ _______ _______ _____ _____    ______ ____
ROOT
ATOM      1  C   LIG    1       -1.136  -2.159   0.001  0.00  0.00    +0.400 C 
ATOM      2  O   LIG    1       -1.260  -2.630  -1.342  0.00  0.00    -0.370 OA
ATOM      3  C   LIG    1       -1.226  -4.053  -1.467  0.00  0.00    +0.200 C 
ATOM      4  C   LIG    1       -2.398  -4.660  -0.691  0.00  0.00    +0.170 C 
ATOM      5  C   LIG    1       -2.312  -4.220   0.774  0.00  0.00    +0.170 C 
ATOM      6  C   LIG    1       -2.304  -2.690   0.837  0.00  0.00    +0.120 C 
ENDROOT
BRANCH   1  11
ATOM      7  N   LIG    1       -0.016   1.344   0.009  0.00  0.00    -0.860 N 
ATOM      8  H   LIG    1       -0.863   1.817   0.016  0.00  0.00    +0.400 HD
ATOM      9  H   LIG    1        0.817   1.840   0.004  0.00  0.00    +0.420 HD
ATOM     10  C   LIG    1        0.002  -0.004   0.002  0.00  0.00    +0.710 C 
ATOM     11  N   LIG    1       -1.156  -0.694   0.009  0.00  0.00    -0.730 N 
ATOM     12  H   LIG    1       -2.002  -0.220   0.020  0.00  0.00    +0.400 HD
ATOM     13  O   LIG    1        1.063  -0.598  -0.011  0.00  0.00    -0.580 OA
ENDBRANCH   1  11
BRANCH   5  14
ATOM     14  O   LIG    1       -1.111  -4.730   1.357  0.00  0.00    -0.550 OA
ATOM     15  H   LIG    1       -0.991  -4.490   2.286  0.00  0.00    +0.390 HD
ENDBRANCH   5  14
BRANCH   4  16
ATOM     16  O   LIG    1       -3.630  -4.207  -1.255  0.00  0.00    -0.540 OA
ATOM     17  H   LIG    1       -4.416  -4.554  -0.811  0.00  0.00    +0.380 HD
ENDBRANCH   4  16
BRANCH   6  18
ATOM     18  O   LIG    1       -2.152  -2.268   2.194  0.00  0.00    -0.550 OA
ATOM     19  H   LIG    1       -2.139  -1.308   2.308  0.00  0.00    +0.390 HD
ENDBRANCH   6  18
BRANCH   3  20
ATOM     20  C   LIG    1       -1.338  -4.438  -2.943  0.00  0.00    +0.210 C 
BRANCH  20  21
ATOM     21  O   LIG    1       -0.186  -3.969  -3.647  0.00  0.00    -0.570 OA
ATOM     22  H   LIG    1       -0.189  -4.179  -4.591  0.00  0.00    +0.380 HD
ENDBRANCH  20  21
ENDBRANCH   3  20
TORSDOF 6
ENDMDL
MODEL      531
REMARK  Name = ZINC000004578652
REMARK                            x       y       z     vdW  Elec       q    Type
REMARK                         _______ _______ _______ _____ _____    ______ ____
ROOT
ATOM      1  C   LIG    1       -1.136  -2.159   0.001  0.00  0.00    +0.400 C 
ATOM      2  O   LIG    1       -1.260  -2.630  -1.342  0.00  0.00    -0.360 OA
ATOM      3  C   LIG    1       -1.226  -4.053  -1.467  0.00  0.00    +0.190 C 
ATOM      4  C   LIG    1       -2.398  -4.660  -0.691  0.00  0.00    +0.160 C 
ATOM      5  C   LIG    1       -2.312  -4.220   0.774  0.00  0.00    +0.160 C 
ATOM      6  C   LIG    1       -2.304  -2.690   0.837  0.00  0.00    +0.120 C 
ENDROOT
BRANCH   1  11
ATOM      7  N   LIG    1       -0.016   1.344   0.009  0.00  0.00    -0.860 N 
ATOM      8  H   LIG    1       -0.863   1.817   0.016  0.00  0.00    +0.400 HD
ATOM      9  H   LIG    1        0.817   1.840   0.004  0.00  0.00    +0.420 HD
ATOM     10  C   LIG    1        0.002  -0.004   0.002  0.00  0.00    +0.710 C 
ATOM     11  N   LIG    1       -1.156  -0.694   0.009  0.00  0.00    -0.730 N 
ATOM     12  H   LIG    1       -2.002  -0.220   0.020  0.00  0.00    +0.400 HD
ATOM     13  O   LIG    1        1.063  -0.598  -0.011  0.00  0.00    -0.580 OA
ENDBRANCH   1  11
BRANCH   5  14
ATOM     14  O   LIG    1       -3.440  -4.724   1.492  0.00  0.00    -0.550 OA
ATOM     15  H   LIG    1       -3.451  -4.483   2.428  0.00  0.00    +0.390 HD
ENDBRANCH   5  14
BRANCH   4  16
ATOM     16  O   LIG    1       -3.630  -4.207  -1.255  0.00  0.00    -0.530 OA
ATOM     17  H   LIG    1       -4.416  -4.554  -0.811  0.00  0.00    +0.380 HD
ENDBRANCH   4  16
BRANCH   6  18
ATOM     18  O   LIG    1       -3.534  -2.184   0.316  0.00  0.00    -0.520 OA
ATOM     19  H   LIG    1       -3.598  -1.219   0.325  0.00  0.00    +0.370 HD
ENDBRANCH   6  18
BRANCH   3  20
ATOM     20  C   LIG    1       -1.338  -4.438  -2.943  0.00  0.00    +0.220 C 
BRANCH  20  21
ATOM     21  O   LIG    1       -0.186  -3.969  -3.647  0.00  0.00    -0.570 OA
ATOM     22  H   LIG    1       -0.189  -4.179  -4.591  0.00  0.00    +0.380 HD
ENDBRANCH  20  21
ENDBRANCH   3  20
TORSDOF 6
ENDMDL
MODEL      532
REMARK  Name = ZINC000045885113
REMARK                            x       y       z     vdW  Elec       q    Type
REMARK                         _______ _______ _______ _____ _____    ______ ____
ROOT
ATOM      1  C   LIG    1       -1.412  -0.526   0.013  0.00  0.00    +0.510 C 
ATOM      2  N   LIG    1       -2.236  -0.217   1.033  0.00  0.00    -0.620 N 
ATOM      3  C   LIG    1       -3.621  -0.715   1.077  0.00  0.00    +0.310 C 
ATOM      4  C   LIG    1       -3.776  -1.586   2.325  0.00  0.00    +0.260 C 
ATOM      5  N   LIG    1       -3.206  -0.924   3.491  0.00  0.00    -0.720 N 
ATOM      6  H   LIG    1       -3.518  -1.204   4.366  0.00  0.00    +0.410 HD
ATOM      7  C   LIG    1       -2.286   0.041   3.439  0.00  0.00    +0.510 C 
ATOM      8  O   LIG    1       -1.829   0.460   4.481  0.00  0.00    -0.540 OA
ATOM      9  C   LIG    1       -1.788   0.626   2.151  0.00  0.00    +0.330 C 
ATOM     10  O   LIG    1       -1.808  -1.223  -0.897  0.00  0.00    -0.510 OA
ENDROOT
BRANCH   1  12
ATOM     11  C   LIG    1       -0.019   1.526   0.010  0.00  0.00    +0.090 C 
ATOM     12  C   LIG    1        0.002  -0.004   0.002  0.00  0.00    +0.270 C 
BRANCH  12  13
ATOM     13  N   LIG    1        0.688  -0.476  -1.203  0.00  0.00    -0.370 N 
ATOM     14  C   LIG    1        0.665   0.095  -2.420  0.00  0.00    +0.490 A 
ATOM     15  N   LIG    1        1.402  -0.629  -3.223  0.00  0.00    -0.540 NA
ATOM     16  C   LIG    1        1.909  -1.666  -2.558  0.00  0.00    +0.430 A 
ATOM     17  N   LIG    1        1.504  -1.613  -1.316  0.00  0.00    -0.310 NA
ENDBRANCH  12  13
ENDBRANCH   1  12
TORSDOF 2
ENDMDL
MODEL      533
REMARK  Name = ZINC000005131877
REMARK                            x       y       z     vdW  Elec       q    Type
REMARK                         _______ _______ _______ _____ _____    ______ ____
ROOT
ATOM      1  C   LIG    1       -1.136  -2.159   0.001  0.00  0.00    +0.430 C 
ATOM      2  O   LIG    1       -1.351  -2.645   1.327  0.00  0.00    -0.350 OA
ATOM      3  C   LIG    1       -2.586  -2.223   1.911  0.00  0.00    +0.180 C 
ATOM      4  C   LIG    1       -3.752  -2.747   1.068  0.00  0.00    +0.170 C 
ATOM      5  C   LIG    1       -3.603  -2.236  -0.368  0.00  0.00    +0.150 C 
ATOM      6  C   LIG    1       -2.244  -2.679  -0.918  0.00  0.00    +0.130 C 
ENDROOT
BRANCH   1  11
ATOM      7  N   LIG    1       -0.016   1.344   0.009  0.00  0.00    -0.860 N 
ATOM      8  H   LIG    1       -0.863   1.817   0.016  0.00  0.00    +0.400 HD
ATOM      9  H   LIG    1        0.817   1.840   0.004  0.00  0.00    +0.420 HD
ATOM     10  C   LIG    1        0.002  -0.004   0.002  0.00  0.00    +0.710 C 
ATOM     11  N   LIG    1       -1.156  -0.694   0.009  0.00  0.00    -0.750 N 
ATOM     12  H   LIG    1       -2.002  -0.220   0.020  0.00  0.00    +0.400 HD
ATOM     13  O   LIG    1        1.063  -0.598  -0.011  0.00  0.00    -0.590 OA
ENDBRANCH   1  11
BRANCH   5  14
ATOM     14  O   LIG    1       -4.648  -2.777  -1.179  0.00  0.00    -0.560 OA
ATOM     15  H   LIG    1       -4.615  -2.495  -2.103  0.00  0.00    +0.390 HD
ENDBRANCH   5  14
BRANCH   4  16
ATOM     16  O   LIG    1       -4.985  -2.279   1.617  0.00  0.00    -0.550 OA
ATOM     17  H   LIG    1       -5.769  -2.573   1.132  0.00  0.00    +0.390 HD
ENDBRANCH   4  16
BRANCH   6  18
ATOM     18  O   LIG    1       -2.064  -2.148  -2.233  0.00  0.00    -0.550 OA
ATOM     19  H   LIG    1       -1.222  -2.390  -2.643  0.00  0.00    +0.390 HD
ENDBRANCH   6  18
BRANCH   3  20
ATOM     20  C   LIG    1       -2.694  -2.778   3.333  0.00  0.00    +0.220 C 
BRANCH  20  21
ATOM     21  O   LIG    1       -1.673  -2.200   4.149  0.00  0.00    -0.570 OA
ATOM     22  H   LIG    1       -1.682  -2.506   5.066  0.00  0.00    +0.380 HD
ENDBRANCH  20  21
ENDBRANCH   3  20
TORSDOF 6
ENDMDL
MODEL      534
REMARK  Name = ZINC000003160849
REMARK                            x       y       z     vdW  Elec       q    Type
REMARK                         _______ _______ _______ _____ _____    ______ ____
ROOT
ATOM      1  C   LIG    1       -1.136  -2.159   0.001  0.00  0.00    +0.290 C 
ATOM      2  C   LIG    1       -0.973  -2.663   1.443  0.00  0.00    -0.300 C 
ATOM      3  S   LIG    1       -2.415  -3.754   1.741  0.00  0.00    +2.390 S 
ATOM      4  C   LIG    1       -2.775  -4.050  -0.037  0.00  0.00    -0.300 C 
ATOM      5  O   LIG    1       -3.469  -3.003   2.327  0.00  0.00    -0.920 OA
ATOM      6  O   LIG    1       -1.980  -4.964   2.347  0.00  0.00    -0.920 OA
ATOM      7  C   LIG    1       -2.424  -2.669  -0.646  0.00  0.00    +0.280 C 
ENDROOT
BRANCH   1  12
ATOM      8  N   LIG    1       -0.016   1.344   0.009  0.00  0.00    -0.860 N 
ATOM      9  H   LIG    1       -0.863   1.817   0.016  0.00  0.00    +0.400 HD
ATOM     10  H   LIG    1        0.817   1.840   0.004  0.00  0.00    +0.420 HD
ATOM     11  C   LIG    1        0.002  -0.004   0.002  0.00  0.00    +0.710 C 
ATOM     12  N   LIG    1       -1.156  -0.694   0.009  0.00  0.00    -0.740 N 
ATOM     13  H   LIG    1       -2.002  -0.220   0.020  0.00  0.00    +0.400 HD
ATOM     14  O   LIG    1        1.063  -0.598  -0.011  0.00  0.00    -0.590 OA
ENDBRANCH   1  12
BRANCH   7  15
ATOM     15  N   LIG    1       -2.221  -2.805  -2.091  0.00  0.00    -0.730 N 
ATOM     16  H   LIG    1       -1.330  -2.949  -2.444  0.00  0.00    +0.400 HD
ATOM     17  C   LIG    1       -3.274  -2.729  -2.929  0.00  0.00    +0.710 C 
ATOM     18  O   LIG    1       -4.392  -2.549  -2.487  0.00  0.00    -0.590 OA
ATOM     19  N   LIG    1       -3.087  -2.854  -4.258  0.00  0.00    -0.860 N 
ATOM     20  H   LIG    1       -3.845  -2.800  -4.862  0.00  0.00    +0.420 HD
ATOM     21  H   LIG    1       -2.196  -2.998  -4.611  0.00  0.00    +0.400 HD
ENDBRANCH   7  15
TORSDOF 2
ENDMDL
MODEL      535
REMARK  Name = ZINC000001645022
REMARK                            x       y       z     vdW  Elec       q    Type
REMARK                         _______ _______ _______ _____ _____    ______ ____
ROOT
ATOM      1  C   LIG    1       -1.136  -2.159   0.001  0.00  0.00    +0.400 C 
ATOM      2  O   LIG    1       -1.260  -2.630  -1.342  0.00  0.00    -0.370 OA
ATOM      3  C   LIG    1       -1.226  -4.053  -1.467  0.00  0.00    +0.200 C 
ATOM      4  C   LIG    1       -2.398  -4.660  -0.691  0.00  0.00    +0.180 C 
ATOM      5  C   LIG    1       -2.312  -4.220   0.774  0.00  0.00    +0.170 C 
ATOM      6  C   LIG    1       -2.304  -2.690   0.837  0.00  0.00    +0.120 C 
ENDROOT
BRANCH   1  11
ATOM      7  N   LIG    1       -0.016   1.344   0.009  0.00  0.00    -0.860 N 
ATOM      8  H   LIG    1       -0.863   1.817   0.016  0.00  0.00    +0.400 HD
ATOM      9  H   LIG    1        0.817   1.840   0.004  0.00  0.00    +0.420 HD
ATOM     10  C   LIG    1        0.002  -0.004   0.002  0.00  0.00    +0.710 C 
ATOM     11  N   LIG    1       -1.156  -0.694   0.009  0.00  0.00    -0.730 N 
ATOM     12  H   LIG    1       -2.002  -0.220   0.020  0.00  0.00    +0.400 HD
ATOM     13  O   LIG    1        1.063  -0.598  -0.011  0.00  0.00    -0.580 OA
ENDBRANCH   1  11
BRANCH   5  14
ATOM     14  O   LIG    1       -3.440  -4.724   1.492  0.00  0.00    -0.560 OA
ATOM     15  H   LIG    1       -3.451  -4.483   2.428  0.00  0.00    +0.390 HD
ENDBRANCH   5  14
BRANCH   4  16
ATOM     16  O   LIG    1       -3.630  -4.207  -1.255  0.00  0.00    -0.550 OA
ATOM     17  H   LIG    1       -4.416  -4.554  -0.811  0.00  0.00    +0.390 HD
ENDBRANCH   4  16
BRANCH   6  18
ATOM     18  O   LIG    1       -2.152  -2.268   2.194  0.00  0.00    -0.560 OA
ATOM     19  H   LIG    1       -2.139  -1.308   2.308  0.00  0.00    +0.390 HD
ENDBRANCH   6  18
BRANCH   3  20
ATOM     20  C   LIG    1       -1.338  -4.438  -2.943  0.00  0.00    +0.220 C 
BRANCH  20  21
ATOM     21  O   LIG    1       -0.186  -3.969  -3.647  0.00  0.00    -0.570 OA
ATOM     22  H   LIG    1       -0.189  -4.179  -4.591  0.00  0.00    +0.380 HD
ENDBRANCH  20  21
ENDBRANCH   3  20
TORSDOF 6
ENDMDL
MODEL      536
REMARK  Name = ZINC000137023587
REMARK                            x       y       z     vdW  Elec       q    Type
REMARK                         _______ _______ _______ _____ _____    ______ ____
ROOT
ATOM      1  C   LIG    1       -1.256  -0.754   0.010  0.00  0.00    -0.160 A 
ATOM      2  C   LIG    1       -1.392  -2.135   0.009  0.00  0.00    +0.370 A 
ATOM      3  N   LIG    1       -2.732  -2.389   0.019  0.00  0.00    -0.480 N 
ATOM      4  C   LIG    1       -3.381  -1.190   0.026  0.00  0.00    +0.400 A 
ATOM      5  N   LIG    1       -2.511  -0.225   0.025  0.00  0.00    -0.440 NA
ENDROOT
BRANCH   1   9
ATOM      6  N   LIG    1       -0.016   1.344   0.009  0.00  0.00    -0.840 N 
ATOM      7  H   LIG    1       -0.863   1.817   0.016  0.00  0.00    +0.410 HD
ATOM      8  H   LIG    1        0.817   1.840   0.004  0.00  0.00    +0.400 HD
ATOM      9  C   LIG    1        0.002  -0.004   0.002  0.00  0.00    +0.620 C 
ATOM     10  O   LIG    1        1.064  -0.598  -0.011  0.00  0.00    -0.570 OA
ENDBRANCH   1   9
BRANCH   2  11
ATOM     11  N   LIG    1       -0.373  -3.065   0.001  0.00  0.00    -0.830 N 
ATOM     12  H   LIG    1       -0.581  -4.013   0.002  0.00  0.00    +0.400 HD
ATOM     13  H   LIG    1        0.552  -2.772  -0.006  0.00  0.00    +0.430 HD
ENDBRANCH   2  11
BRANCH   3  14
ATOM     14  C   LIG    1       -3.360  -3.713   0.023  0.00  0.00    +0.290 C 
BRANCH  14  15
ATOM     15  C   LIG    1       -3.454  -4.228   1.461  0.00  0.00    +0.200 C 
BRANCH  15  16
ATOM     16  O   LIG    1       -4.335  -3.389   2.211  0.00  0.00    -0.540 OA
ATOM     17  H   LIG    1       -5.236  -3.353   1.861  0.00  0.00    +0.370 HD
ENDBRANCH  15  16
BRANCH  15  18
ATOM     18  C   LIG    1       -3.995  -5.660   1.455  0.00  0.00    +0.170 C 
BRANCH  18  19
ATOM     19  O   LIG    1       -3.974  -6.182   2.785  0.00  0.00    -0.560 OA
ATOM     20  H   LIG    1       -4.304  -7.088   2.857  0.00  0.00    +0.390 HD
ENDBRANCH  18  19
ENDBRANCH  15  18
ENDBRANCH  14  15
ENDBRANCH   3  14
TORSDOF 7
ENDMDL
MODEL      537
REMARK  Name = ZINC000137023532
REMARK                            x       y       z     vdW  Elec       q    Type
REMARK                         _______ _______ _______ _____ _____    ______ ____
ROOT
ATOM      1  C   LIG    1       -1.256  -0.754   0.010  0.00  0.00    -0.170 A 
ATOM      2  C   LIG    1       -1.392  -2.135   0.009  0.00  0.00    +0.380 A 
ATOM      3  N   LIG    1       -2.732  -2.389   0.019  0.00  0.00    -0.480 N 
ATOM      4  C   LIG    1       -3.381  -1.190   0.026  0.00  0.00    +0.380 A 
ATOM      5  N   LIG    1       -2.511  -0.225   0.025  0.00  0.00    -0.430 NA
ENDROOT
BRANCH   1   9
ATOM      6  N   LIG    1       -0.016   1.344   0.009  0.00  0.00    -0.840 N 
ATOM      7  H   LIG    1       -0.863   1.817   0.016  0.00  0.00    +0.410 HD
ATOM      8  H   LIG    1        0.817   1.840   0.004  0.00  0.00    +0.400 HD
ATOM      9  C   LIG    1        0.002  -0.004   0.002  0.00  0.00    +0.620 C 
ATOM     10  O   LIG    1        1.064  -0.598  -0.011  0.00  0.00    -0.570 OA
ENDBRANCH   1   9
BRANCH   2  11
ATOM     11  N   LIG    1       -0.373  -3.065   0.001  0.00  0.00    -0.820 N 
ATOM     12  H   LIG    1       -0.581  -4.013   0.002  0.00  0.00    +0.390 HD
ATOM     13  H   LIG    1        0.552  -2.772  -0.006  0.00  0.00    +0.430 HD
ENDBRANCH   2  11
BRANCH   3  14
ATOM     14  C   LIG    1       -3.360  -3.713   0.023  0.00  0.00    +0.290 C 
BRANCH  14  15
ATOM     15  C   LIG    1       -3.454  -4.228   1.461  0.00  0.00    +0.210 C 
BRANCH  15  16
ATOM     16  O   LIG    1       -2.139  -4.433   1.981  0.00  0.00    -0.540 OA
ATOM     17  H   LIG    1       -1.614  -5.073   1.482  0.00  0.00    +0.370 HD
ENDBRANCH  15  16
BRANCH  15  18
ATOM     18  C   LIG    1       -4.221  -5.552   1.479  0.00  0.00    +0.160 C 
BRANCH  18  19
ATOM     19  O   LIG    1       -4.411  -5.975   2.831  0.00  0.00    -0.560 OA
ATOM     20  H   LIG    1       -4.891  -6.809   2.918  0.00  0.00    +0.390 HD
ENDBRANCH  18  19
ENDBRANCH  15  18
ENDBRANCH  14  15
ENDBRANCH   3  14
TORSDOF 7
ENDMDL
MODEL      538
REMARK  Name = ZINC000054458985
REMARK                            x       y       z     vdW  Elec       q    Type
REMARK                         _______ _______ _______ _____ _____    ______ ____
ROOT
ATOM      1  N   LIG    1        1.291  -2.644  -2.232  0.00  0.00    -0.600 N 
ATOM      2  C   LIG    1        0.590  -2.872  -3.360  0.00  0.00    +0.510 C 
ATOM      3  O   LIG    1       -0.608  -2.686  -3.378  0.00  0.00    -0.500 OA
ATOM      4  C   LIG    1        2.739  -2.869  -2.210  0.00  0.00    +0.310 C 
ENDROOT
BRANCH   1   5
ATOM      5  C   LIG    1        0.606  -2.171  -1.026  0.00  0.00    +0.330 C 
BRANCH   5   9
ATOM      6  C   LIG    1       -0.018   1.461   0.010  0.00  0.00    +0.290 C 
ATOM      7  N   LIG    1        0.002  -0.004   0.002  0.00  0.00    -0.730 N 
ATOM      8  H   LIG    1       -0.404  -0.499   0.731  0.00  0.00    +0.400 HD
ATOM      9  C   LIG    1        0.585  -0.664  -1.018  0.00  0.00    +0.490 C 
ATOM     10  O   LIG    1        1.093  -0.046  -1.929  0.00  0.00    -0.530 OA
ENDBRANCH   5   9
ENDBRANCH   1   5
BRANCH   2  11
ATOM     11  C   LIG    1        1.296  -3.358  -4.600  0.00  0.00    +0.370 C 
BRANCH  11  12
ATOM     12  N   LIG    1        0.322  -3.528  -5.681  0.00  0.00    -0.370 N 
ATOM     13  C   LIG    1        0.374  -2.977  -6.906  0.00  0.00    +0.480 A 
ATOM     14  N   LIG    1       -0.679  -3.373  -7.574  0.00  0.00    -0.540 NA
ATOM     15  C   LIG    1       -1.423  -4.174  -6.812  0.00  0.00    +0.420 A 
ATOM     16  N   LIG    1       -0.849  -4.303  -5.645  0.00  0.00    -0.290 NA
ENDBRANCH  11  12
ENDBRANCH   2  11
TORSDOF 4
ENDMDL
MODEL      539
REMARK  Name = ZINC000032918974
REMARK                            x       y       z     vdW  Elec       q    Type
REMARK                         _______ _______ _______ _____ _____    ______ ____
ROOT
ATOM      1  C   LIG    1       -1.293  -0.775   0.010  0.00  0.00    +0.280 C 
ENDROOT
BRANCH   1   5
ATOM      2  N   LIG    1       -0.016   1.344   0.009  0.00  0.00    -0.840 N 
ATOM      3  H   LIG    1       -0.863   1.817   0.016  0.00  0.00    +0.400 HD
ATOM      4  H   LIG    1        0.817   1.840   0.004  0.00  0.00    +0.420 HD
ATOM      5  C   LIG    1        0.002  -0.004   0.002  0.00  0.00    +0.530 C 
ATOM      6  O   LIG    1        1.060  -0.596  -0.011  0.00  0.00    -0.510 OA
ENDBRANCH   1   5
BRANCH   1   7
ATOM      7  N   LIG    1       -1.005  -2.212  -0.000  0.00  0.00    -0.680 N 
ATOM      8  H   LIG    1       -0.160  -2.540   0.345  0.00  0.00    +0.420 HD
ATOM      9  C   LIG    1       -1.915  -3.077  -0.489  0.00  0.00    +0.580 C 
ATOM     10  O   LIG    1       -2.974  -2.666  -0.922  0.00  0.00    -0.530 OA
BRANCH   9  11
ATOM     11  C   LIG    1       -1.625  -4.530  -0.500  0.00  0.00    -0.080 A 
ATOM     12  C   LIG    1       -0.416  -5.025  -0.002  0.00  0.00    +0.010 A 
ATOM     13  C   LIG    1       -0.186  -6.387  -0.031  0.00  0.00    +0.270 A 
ATOM     14  N   LIG    1       -1.088  -7.215  -0.520  0.00  0.00    -0.470 NA
ATOM     15  C   LIG    1       -2.240  -6.790  -0.999  0.00  0.00    +0.270 A 
ATOM     16  C   LIG    1       -2.555  -5.445  -1.003  0.00  0.00    +0.040 A 
ENDBRANCH   9  11
ENDBRANCH   1   7
BRANCH   1  17
ATOM     17  C   LIG    1       -2.076  -0.429   1.250  0.00  0.00    +0.250 C 
ATOM     18  S   LIG    1       -2.253  -1.512   2.413  0.00  0.00    -0.380 S 
BRANCH  17  19
ATOM     19  N   LIG    1       -2.627   0.795   1.379  0.00  0.00    -0.780 N 
ATOM     20  H   LIG    1       -3.131   1.018   2.177  0.00  0.00    +0.430 HD
ATOM     21  H   LIG    1       -2.519   1.452   0.674  0.00  0.00    +0.390 HD
ENDBRANCH  17  19
ENDBRANCH   1  17
TORSDOF 5
ENDMDL
MODEL      540
REMARK  Name = ZINC000034085615
REMARK                            x       y       z     vdW  Elec       q    Type
REMARK                         _______ _______ _______ _____ _____    ______ ____
ROOT
ATOM      1  C   LIG    1        0.001  -4.173  -0.023  0.00  0.00    +0.410 C 
ATOM      2  O   LIG    1       -0.855  -4.660  -1.078  0.00  0.00    -0.340 OA
ATOM      3  C   LIG    1       -1.233  -6.001  -0.726  0.00  0.00    +0.150 C 
ATOM      4  C   LIG    1       -1.169  -6.107   0.810  0.00  0.00    +0.130 C 
ATOM      5  C   LIG    1       -0.665  -4.715   1.268  0.00  0.00    +0.200 C 
ENDROOT
BRANCH   1   9
ATOM      6  C   LIG    1        0.002  -0.004   0.002  0.00  0.00    +0.500 A 
ATOM      7  N   LIG    1       -1.135  -0.687   0.004  0.00  0.00    -0.620 NA
ATOM      8  C   LIG    1       -1.129  -2.018  -0.004  0.00  0.00    +0.660 A 
ATOM      9  N   LIG    1        0.026  -2.708  -0.014  0.00  0.00    -0.520 N 
ATOM     10  C   LIG    1        1.220  -2.050  -0.016  0.00  0.00    +0.380 A 
ATOM     11  O   LIG    1       -2.189  -2.623  -0.003  0.00  0.00    -0.530 OA
ATOM     12  C   LIG    1        1.230  -0.697  -0.013  0.00  0.00    -0.150 A 
BRANCH   6  13
ATOM     13  N   LIG    1       -0.017   1.371   0.010  0.00  0.00    -0.820 N 
ATOM     14  H   LIG    1       -0.863   1.845   0.016  0.00  0.00    +0.410 HD
ATOM     15  H   LIG    1        0.817   1.868   0.004  0.00  0.00    +0.420 HD
ENDBRANCH   6  13
ENDBRANCH   1   9
BRANCH   5  16
ATOM     16  N   LIG    1        0.314  -4.843   2.356  0.00  0.00    -0.820 NA
ATOM     17  H   LIG    1        1.132  -5.347   2.049  0.00  0.00    +0.350 HD
ATOM     18  H   LIG    1       -0.100  -5.283   3.164  0.00  0.00    +0.350 HD
ENDBRANCH   5  16
BRANCH   4  19
ATOM     19  O   LIG    1       -0.246  -7.126   1.203  0.00  0.00    -0.560 OA
ATOM     20  H   LIG    1       -0.482  -8.011   0.893  0.00  0.00    +0.390 HD
ENDBRANCH   4  19
BRANCH   3  21
ATOM     21  C   LIG    1       -2.657  -6.285  -1.210  0.00  0.00    +0.200 C 
BRANCH  21  22
ATOM     22  O   LIG    1       -2.683  -6.284  -2.639  0.00  0.00    -0.560 OA
ATOM     23  H   LIG    1       -3.556  -6.457  -3.017  0.00  0.00    +0.380 HD
ENDBRANCH  21  22
ENDBRANCH   3  21
TORSDOF 6
ENDMDL
MODEL      541
REMARK  Name = ZINC000034118379
REMARK                            x       y       z     vdW  Elec       q    Type
REMARK                         _______ _______ _______ _____ _____    ______ ____
ROOT
ATOM      1  C   LIG    1        0.673  -0.582   1.123  0.00  0.00    +0.300 C 
ATOM      2  O   LIG    1        2.059  -0.237   1.079  0.00  0.00    -0.380 OA
ATOM      3  C   LIG    1        2.823  -0.747   2.174  0.00  0.00    +0.150 C 
ATOM      4  C   LIG    1        2.762  -2.276   2.169  0.00  0.00    +0.130 C 
ATOM      5  C   LIG    1        1.299  -2.722   2.247  0.00  0.00    +0.190 C 
ATOM      6  C   LIG    1        0.526  -2.106   1.076  0.00  0.00    +0.260 C 
ENDROOT
BRANCH   6   7
ATOM      7  N   LIG    1       -0.890  -2.465   1.181  0.00  0.00    -0.720 N 
ATOM      8  H   LIG    1       -1.272  -2.684   2.045  0.00  0.00    +0.400 HD
ATOM      9  C   LIG    1       -1.662  -2.493   0.076  0.00  0.00    +0.510 C 
ATOM     10  O   LIG    1       -1.184  -2.220  -1.004  0.00  0.00    -0.520 OA
ATOM     11  C   LIG    1       -3.119  -2.863   0.184  0.00  0.00    +0.080 C 
ENDBRANCH   6   7
BRANCH   1  13
ATOM     12  C   LIG    1       -0.017   1.425   0.010  0.00  0.00    +0.210 C 
ATOM     13  O   LIG    1        0.002  -0.004   0.002  0.00  0.00    -0.340 OA
ENDBRANCH   1  13
BRANCH   5  14
ATOM     14  O   LIG    1        1.228  -4.147   2.171  0.00  0.00    -0.540 OA
ATOM     15  H   LIG    1        1.702  -4.602   2.880  0.00  0.00    +0.380 HD
ENDBRANCH   5  14
BRANCH   4  16
ATOM     16  O   LIG    1        3.351  -2.774   0.966  0.00  0.00    -0.540 OA
ATOM     17  H   LIG    1        4.278  -2.525   0.850  0.00  0.00    +0.380 HD
ENDBRANCH   4  16
BRANCH   3  18
ATOM     18  C   LIG    1        4.278  -0.293   2.037  0.00  0.00    +0.210 C 
BRANCH  18  19
ATOM     19  O   LIG    1        4.347   1.129   2.156  0.00  0.00    -0.560 OA
ATOM     20  H   LIG    1        5.241   1.488   2.079  0.00  0.00    +0.390 HD
ENDBRANCH  18  19
ENDBRANCH   3  18
TORSDOF 6
ENDMDL
MODEL      542
REMARK  Name = ZINC000047470991
REMARK                            x       y       z     vdW  Elec       q    Type
REMARK                         _______ _______ _______ _____ _____    ______ ____
ROOT
ATOM      1  N   LIG    1        1.333  -2.667   2.182  0.00  0.00    -0.600 N 
ATOM      2  C   LIG    1        2.664  -2.874   2.135  0.00  0.00    +0.520 C 
ATOM      3  O   LIG    1        3.276  -2.658   1.110  0.00  0.00    -0.530 OA
ATOM      4  C   LIG    1        0.595  -2.929   3.420  0.00  0.00    +0.300 C 
ENDROOT
BRANCH   1   5
ATOM      5  C   LIG    1        0.625  -2.182   0.995  0.00  0.00    +0.330 C 
BRANCH   5   9
ATOM      6  C   LIG    1       -0.018   1.461   0.010  0.00  0.00    +0.290 C 
ATOM      7  N   LIG    1        0.002  -0.004   0.002  0.00  0.00    -0.730 N 
ATOM      8  H   LIG    1       -0.418  -0.491  -0.724  0.00  0.00    +0.400 HD
ATOM      9  C   LIG    1        0.604  -0.675   1.004  0.00  0.00    +0.490 C 
ATOM     10  O   LIG    1        1.130  -0.067   1.911  0.00  0.00    -0.530 OA
ENDBRANCH   5   9
ENDBRANCH   1   5
BRANCH   2  11
ATOM     11  C   LIG    1        3.393  -3.373   3.356  0.00  0.00    +0.300 C 
BRANCH  11  12
ATOM     12  N   LIG    1        4.819  -3.515   3.050  0.00  0.00    -0.720 N 
ATOM     13  H   LIG    1        5.149  -3.295   2.164  0.00  0.00    +0.410 HD
ATOM     14  C   LIG    1        5.672  -3.950   3.998  0.00  0.00    +0.550 C 
ATOM     15  O   LIG    1        5.259  -4.225   5.105  0.00  0.00    -0.540 OA
BRANCH  14  16
ATOM     16  C   LIG    1        7.138  -4.096   3.683  0.00  0.00    -0.070 C 
ATOM     17  C   LIG    1        8.107  -3.129   4.366  0.00  0.00    +0.060 C 
ATOM     18  C   LIG    1        8.055  -4.595   4.802  0.00  0.00    +0.070 C 
ENDBRANCH  14  16
ENDBRANCH  11  12
ENDBRANCH   2  11
TORSDOF 5
ENDMDL
MODEL      543
REMARK  Name = ZINC000004653596
REMARK                            x       y       z     vdW  Elec       q    Type
REMARK                         _______ _______ _______ _____ _____    ______ ____
ROOT
ATOM      1  N   LIG    1        1.461  -3.825  -2.510  0.00  0.00    -0.630 N 
ATOM      2  C   LIG    1        0.363  -4.637  -2.473  0.00  0.00    +0.730 C 
ATOM      3  N   LIG    1        0.682  -5.946  -2.755  0.00  0.00    -0.720 N 
ATOM      4  H   LIG    1        0.155  -6.741  -2.580  0.00  0.00    +0.430 HD
ATOM      5  C   LIG    1        1.950  -5.861  -3.356  0.00  0.00    +0.380 C 
ATOM      6  N   LIG    1        3.075  -6.624  -3.695  0.00  0.00    -0.720 N 
ATOM      7  H   LIG    1        3.134  -7.588  -3.779  0.00  0.00    +0.430 HD
ATOM      8  C   LIG    1        4.075  -5.703  -3.882  0.00  0.00    +0.730 C 
ATOM      9  N   LIG    1        3.738  -4.472  -3.396  0.00  0.00    -0.740 N 
ATOM     10  H   LIG    1        4.161  -3.624  -3.601  0.00  0.00    +0.430 HD
ATOM     11  O   LIG    1        5.137  -5.953  -4.419  0.00  0.00    -0.530 OA
ATOM     12  O   LIG    1       -0.762  -4.250  -2.221  0.00  0.00    -0.510 OA
ATOM     13  C   LIG    1        2.615  -4.724  -2.485  0.00  0.00    +0.430 C 
ENDROOT
BRANCH   1  14
ATOM     14  C   LIG    1        1.479  -2.361  -2.569  0.00  0.00    +0.320 C 
ATOM     15  C   LIG    1        0.752  -1.892  -3.831  0.00  0.00    +0.080 C 
BRANCH  14  16
ATOM     16  C   LIG    1        0.786  -1.801  -1.353  0.00  0.00    +0.440 C 
ATOM     17  O   LIG    1        0.325  -2.548  -0.523  0.00  0.00    -0.480 OA
BRANCH  16  18
ATOM     18  O   LIG    1        0.682  -0.472  -1.193  0.00  0.00    -0.360 OA
BRANCH  18  20
ATOM     19  C   LIG    1       -0.019   1.526   0.010  0.00  0.00    +0.070 C 
ATOM     20  C   LIG    1        0.002  -0.004   0.002  0.00  0.00    +0.200 C 
ENDBRANCH  18  20
ENDBRANCH  16  18
ENDBRANCH  14  16
ENDBRANCH   1  14
TORSDOF 4
ENDMDL
MODEL      544
REMARK  Name = ZINC000004653594
REMARK                            x       y       z     vdW  Elec       q    Type
REMARK                         _______ _______ _______ _____ _____    ______ ____
ROOT
ATOM      1  N   LIG    1        1.461  -3.825  -2.510  0.00  0.00    -0.620 N 
ATOM      2  C   LIG    1        0.359  -4.585  -2.475  0.00  0.00    +0.710 C 
ATOM      3  N   LIG    1        0.607  -5.899  -2.423  0.00  0.00    -0.740 N 
ATOM      4  H   LIG    1       -0.067  -6.596  -2.392  0.00  0.00    +0.430 HD
ATOM      5  C   LIG    1        2.060  -6.121  -2.421  0.00  0.00    +0.480 C 
ATOM      6  N   LIG    1        2.480  -6.632  -1.108  0.00  0.00    -0.740 N 
ATOM      7  H   LIG    1        2.275  -7.513  -0.757  0.00  0.00    +0.430 HD
ATOM      8  C   LIG    1        3.189  -5.691  -0.472  0.00  0.00    +0.710 C 
ATOM      9  N   LIG    1        3.334  -4.556  -1.168  0.00  0.00    -0.740 N 
ATOM     10  H   LIG    1        3.815  -3.770  -0.865  0.00  0.00    +0.430 HD
ATOM     11  O   LIG    1        3.659  -5.853   0.637  0.00  0.00    -0.570 OA
ATOM     12  O   LIG    1       -0.765  -4.123  -2.489  0.00  0.00    -0.550 OA
ATOM     13  C   LIG    1        2.649  -4.689  -2.487  0.00  0.00    +0.480 C 
ENDROOT
BRANCH   1  14
ATOM     14  C   LIG    1        1.479  -2.361  -2.569  0.00  0.00    +0.320 C 
ATOM     15  C   LIG    1        0.752  -1.892  -3.831  0.00  0.00    +0.090 C 
BRANCH  14  16
ATOM     16  C   LIG    1        0.786  -1.801  -1.353  0.00  0.00    +0.440 C 
ATOM     17  O   LIG    1        0.325  -2.548  -0.523  0.00  0.00    -0.480 OA
BRANCH  16  18
ATOM     18  O   LIG    1        0.682  -0.472  -1.193  0.00  0.00    -0.360 OA
BRANCH  18  20
ATOM     19  C   LIG    1       -0.019   1.526   0.010  0.00  0.00    +0.070 C 
ATOM     20  C   LIG    1        0.002  -0.004   0.002  0.00  0.00    +0.200 C 
ENDBRANCH  18  20
ENDBRANCH  16  18
ENDBRANCH  14  16
ENDBRANCH   1  14
TORSDOF 4
ENDMDL
MODEL      545
REMARK  Name = ZINC000000116708
REMARK                            x       y       z     vdW  Elec       q    Type
REMARK                         _______ _______ _______ _____ _____    ______ ____
ROOT
ATOM      1  N   LIG    1        1.461  -3.825  -2.510  0.00  0.00    -0.620 N 
ATOM      2  C   LIG    1        0.359  -4.585  -2.475  0.00  0.00    +0.710 C 
ATOM      3  N   LIG    1        0.607  -5.899  -2.423  0.00  0.00    -0.740 N 
ATOM      4  H   LIG    1       -0.067  -6.597  -2.393  0.00  0.00    +0.430 HD
ATOM      5  C   LIG    1        2.060  -6.121  -2.421  0.00  0.00    +0.470 C 
ATOM      6  N   LIG    1        2.469  -6.735  -3.691  0.00  0.00    -0.740 N 
ATOM      7  H   LIG    1        2.262  -7.641  -3.969  0.00  0.00    +0.430 HD
ATOM      8  C   LIG    1        3.172  -5.848  -4.407  0.00  0.00    +0.710 C 
ATOM      9  N   LIG    1        3.322  -4.662  -3.805  0.00  0.00    -0.740 N 
ATOM     10  H   LIG    1        3.801  -3.903  -4.174  0.00  0.00    +0.430 HD
ATOM     11  O   LIG    1        3.633  -6.098  -5.504  0.00  0.00    -0.570 OA
ATOM     12  O   LIG    1       -0.765  -4.123  -2.489  0.00  0.00    -0.550 OA
ATOM     13  C   LIG    1        2.649  -4.689  -2.487  0.00  0.00    +0.480 C 
ENDROOT
BRANCH   1  14
ATOM     14  C   LIG    1        1.479  -2.361  -2.569  0.00  0.00    +0.320 C 
ATOM     15  C   LIG    1        0.752  -1.892  -3.831  0.00  0.00    +0.090 C 
BRANCH  14  16
ATOM     16  C   LIG    1        0.786  -1.801  -1.353  0.00  0.00    +0.450 C 
ATOM     17  O   LIG    1        0.325  -2.548  -0.523  0.00  0.00    -0.480 OA
BRANCH  16  18
ATOM     18  O   LIG    1        0.682  -0.472  -1.193  0.00  0.00    -0.360 OA
BRANCH  18  20
ATOM     19  C   LIG    1       -0.019   1.526   0.010  0.00  0.00    +0.070 C 
ATOM     20  C   LIG    1        0.002  -0.004   0.002  0.00  0.00    +0.200 C 
ENDBRANCH  18  20
ENDBRANCH  16  18
ENDBRANCH  14  16
ENDBRANCH   1  14
TORSDOF 4
ENDMDL
MODEL      546
REMARK  Name = ZINC000015306204
REMARK                            x       y       z     vdW  Elec       q    Type
REMARK                         _______ _______ _______ _____ _____    ______ ____
ROOT
ATOM      1  N   LIG    1        1.461  -3.825  -2.510  0.00  0.00    -0.630 N 
ATOM      2  C   LIG    1        0.363  -4.637  -2.473  0.00  0.00    +0.740 C 
ATOM      3  N   LIG    1        0.685  -5.919  -2.091  0.00  0.00    -0.720 N 
ATOM      4  H   LIG    1        0.156  -6.726  -2.197  0.00  0.00    +0.430 HD
ATOM      5  C   LIG    1        1.957  -5.787  -1.510  0.00  0.00    +0.390 C 
ATOM      6  N   LIG    1        3.086  -6.521  -1.120  0.00  0.00    -0.720 N 
ATOM      7  H   LIG    1        3.146  -7.476  -0.960  0.00  0.00    +0.430 HD
ATOM      8  C   LIG    1        4.087  -5.589  -1.015  0.00  0.00    +0.730 C 
ATOM      9  N   LIG    1        3.745  -4.401  -1.595  0.00  0.00    -0.750 N 
ATOM     10  H   LIG    1        4.169  -3.538  -1.461  0.00  0.00    +0.430 HD
ATOM     11  O   LIG    1        5.154  -5.796  -0.470  0.00  0.00    -0.530 OA
ATOM     12  O   LIG    1       -0.764  -4.271  -2.746  0.00  0.00    -0.520 OA
ATOM     13  C   LIG    1        2.615  -4.724  -2.485  0.00  0.00    +0.440 C 
ENDROOT
BRANCH   1  14
ATOM     14  C   LIG    1        1.479  -2.361  -2.569  0.00  0.00    +0.320 C 
ATOM     15  C   LIG    1        0.752  -1.892  -3.831  0.00  0.00    +0.080 C 
BRANCH  14  16
ATOM     16  C   LIG    1        0.786  -1.801  -1.353  0.00  0.00    +0.450 C 
ATOM     17  O   LIG    1        0.325  -2.548  -0.523  0.00  0.00    -0.490 OA
BRANCH  16  18
ATOM     18  O   LIG    1        0.682  -0.472  -1.193  0.00  0.00    -0.350 OA
BRANCH  18  20
ATOM     19  C   LIG    1       -0.019   1.526   0.010  0.00  0.00    +0.070 C 
ATOM     20  C   LIG    1        0.002  -0.004   0.002  0.00  0.00    +0.200 C 
ENDBRANCH  18  20
ENDBRANCH  16  18
ENDBRANCH  14  16
ENDBRANCH   1  14
TORSDOF 4
ENDMDL
MODEL      547
REMARK  Name = ZINC000019536814
REMARK                            x       y       z     vdW  Elec       q    Type
REMARK                         _______ _______ _______ _____ _____    ______ ____
ROOT
ATOM      1  C   LIG    1        0.052  -3.230   1.524  0.00  0.00    +0.340 C 
ENDROOT
BRANCH   1   6
ATOM      2  C   LIG    1       -0.018   1.461   0.010  0.00  0.00    +0.420 C 
ATOM      3  N   LIG    1        0.002  -0.004   0.002  0.00  0.00    -0.140 N 
ATOM      4  N   LIG    1        0.008  -0.745  -1.051  0.00  0.00    -0.060 NA
ATOM      5  N   LIG    1        0.026  -1.982  -0.687  0.00  0.00    -0.280 NA
ATOM      6  C   LIG    1        0.032  -2.004   0.646  0.00  0.00    +0.130 A 
ATOM      7  N   LIG    1        0.022  -0.757   1.048  0.00  0.00    -0.300 NA
ENDBRANCH   1   6
BRANCH   1   8
ATOM      8  O   LIG    1       -0.890  -4.184   1.030  0.00  0.00    -0.530 OA
ATOM      9  H   LIG    1       -0.716  -4.478   0.126  0.00  0.00    +0.390 HD
ENDBRANCH   1   8
BRANCH   1  10
ATOM     10  C   LIG    1        1.454  -3.843   1.511  0.00  0.00    +0.170 C 
BRANCH  10  11
ATOM     11  N   LIG    1        1.474  -5.037   2.366  0.00  0.00    -0.520 NA
ATOM     12  C   LIG    1        0.818  -4.773   3.655  0.00  0.00    +0.150 C 
ATOM     13  C   LIG    1        0.808  -6.057   4.489  0.00  0.00    +0.220 C 
ATOM     14  O   LIG    1        2.150  -6.525   4.650  0.00  0.00    -0.390 OA
ATOM     15  C   LIG    1        2.818  -6.793   3.414  0.00  0.00    +0.220 C 
ATOM     16  C   LIG    1        2.848  -5.517   2.569  0.00  0.00    +0.150 C 
ENDBRANCH  10  11
ENDBRANCH   1  10
TORSDOF 4
ENDMDL
MODEL      548
REMARK  Name = ZINC000034381085
REMARK                            x       y       z     vdW  Elec       q    Type
REMARK                         _______ _______ _______ _____ _____    ______ ____
ROOT
ATOM      1  C   LIG    1        0.877  -0.392  -1.539  0.00  0.00    +0.170 C 
ATOM      2  O   LIG    1        0.099   0.051  -2.653  0.00  0.00    -0.340 OA
ATOM      3  C   LIG    1        0.711  -0.184  -3.923  0.00  0.00    +0.180 C 
ATOM      4  C   LIG    1        0.919  -1.688  -4.117  0.00  0.00    +0.170 C 
ATOM      5  C   LIG    1        1.776  -2.229  -2.969  0.00  0.00    +0.170 C 
ATOM      6  C   LIG    1        1.092  -1.904  -1.637  0.00  0.00    +0.150 C 
ENDROOT
BRANCH   1   8
ATOM      7  C   LIG    1       -0.022   1.810   0.012  0.00  0.00    +0.160 C 
ATOM      8  S   LIG    1        0.002  -0.004   0.002  0.00  0.00    -0.210 S 
ENDBRANCH   1   8
BRANCH   5   9
ATOM      9  O   LIG    1        1.916  -3.645  -3.103  0.00  0.00    -0.560 OA
ATOM     10  H   LIG    1        2.449  -4.055  -2.408  0.00  0.00    +0.390 HD
ENDBRANCH   5   9
BRANCH   4  11
ATOM     11  O   LIG    1        1.582  -1.922  -5.361  0.00  0.00    -0.550 OA
ATOM     12  H   LIG    1        1.747  -2.856  -5.550  0.00  0.00    +0.390 HD
ENDBRANCH   4  11
BRANCH   6  13
ATOM     13  O   LIG    1        1.917  -2.342  -0.556  0.00  0.00    -0.550 OA
ATOM     14  H   LIG    1        1.545  -2.168   0.319  0.00  0.00    +0.390 HD
ENDBRANCH   6  13
BRANCH   3  15
ATOM     15  C   LIG    1       -0.194   0.354  -5.033  0.00  0.00    +0.230 C 
BRANCH  15  16
ATOM     16  O   LIG    1       -0.295   1.774  -4.919  0.00  0.00    -0.570 OA
ATOM     17  H   LIG    1       -0.856   2.184  -5.593  0.00  0.00    +0.380 HD
ENDBRANCH  15  16
ENDBRANCH   3  15
TORSDOF 6
ENDMDL
MODEL      549
REMARK  Name = ZINC000041392800
REMARK                            x       y       z     vdW  Elec       q    Type
REMARK                         _______ _______ _______ _____ _____    ______ ____
ROOT
ATOM      1  N   LIG    1        1.335  -2.669   2.185  0.00  0.00    -0.500 NA
ATOM      2  C   LIG    1        0.598  -2.336   3.412  0.00  0.00    +0.200 C 
ENDROOT
BRANCH   1   3
ATOM      3  C   LIG    1        1.583  -4.114   2.096  0.00  0.00    +0.200 C 
ATOM      4  C   LIG    1        0.252  -4.882   2.161  0.00  0.00    +0.020 C 
ATOM      5  C   LIG    1        0.553  -6.374   2.409  0.00  0.00    -0.310 C 
ATOM      6  S   LIG    1        2.141  -6.394   3.316  0.00  0.00    +2.390 S 
ATOM      7  O   LIG    1        3.130  -7.033   2.520  0.00  0.00    -0.930 OA
ATOM      8  O   LIG    1        1.916  -6.831   4.649  0.00  0.00    -0.930 OA
ATOM      9  C   LIG    1        2.428  -4.584   3.309  0.00  0.00    -0.300 C 
ENDBRANCH   1   3
BRANCH   1  10
ATOM     10  C   LIG    1        0.625  -2.182   0.995  0.00  0.00    +0.210 C 
BRANCH  10  14
ATOM     11  C   LIG    1       -0.018   1.461   0.010  0.00  0.00    +0.290 C 
ATOM     12  N   LIG    1        0.002  -0.004   0.002  0.00  0.00    -0.740 N 
ATOM     13  H   LIG    1       -0.418  -0.491  -0.724  0.00  0.00    +0.400 HD
ATOM     14  C   LIG    1        0.604  -0.675   1.004  0.00  0.00    +0.510 C 
ATOM     15  O   LIG    1        1.130  -0.067   1.911  0.00  0.00    -0.520 OA
ENDBRANCH  10  14
ENDBRANCH   1  10
TORSDOF 3
ENDMDL
MODEL      550
REMARK  Name = ZINC000040527965
REMARK                            x       y       z     vdW  Elec       q    Type
REMARK                         _______ _______ _______ _____ _____    ______ ____
ROOT
ATOM      1  S   LIG    1        2.945  -3.039   2.090  0.00  0.00    +2.730 S 
ATOM      2  O   LIG    1        3.213  -3.325   0.725  0.00  0.00    -0.960 OA
ATOM      3  O   LIG    1        3.205  -3.958   3.143  0.00  0.00    -0.950 OA
ENDROOT
BRANCH   1   4
ATOM      4  C   LIG    1        3.841  -1.572   2.477  0.00  0.00    -0.810 A 
ATOM      5  C   LIG    1        4.245  -0.630   1.594  0.00  0.00    +0.370 A 
ATOM      6  N   LIG    1        4.897   0.329   2.284  0.00  0.00    -0.360 N 
ATOM      7  N   LIG    1        4.894  -0.037   3.637  0.00  0.00    -0.290 NA
ATOM      8  C   LIG    1        5.501   1.538   1.720  0.00  0.00    +0.360 C 
ATOM      9  C   LIG    1        4.255  -1.173   3.752  0.00  0.00    +0.340 A 
ENDBRANCH   1   4
BRANCH   1  10
ATOM     10  N   LIG    1        1.333  -2.667   2.182  0.00  0.00    -0.980 NA
ATOM     11  C   LIG    1        0.617  -2.824   3.450  0.00  0.00    +0.310 C 
BRANCH  10  12
ATOM     12  C   LIG    1        0.625  -2.182   0.995  0.00  0.00    +0.340 C 
BRANCH  12  16
ATOM     13  C   LIG    1       -0.018   1.461   0.010  0.00  0.00    +0.290 C 
ATOM     14  N   LIG    1        0.002  -0.004   0.002  0.00  0.00    -0.740 N 
ATOM     15  H   LIG    1       -0.418  -0.491  -0.724  0.00  0.00    +0.400 HD
ATOM     16  C   LIG    1        0.604  -0.675   1.004  0.00  0.00    +0.480 C 
ATOM     17  O   LIG    1        1.130  -0.067   1.911  0.00  0.00    -0.520 OA
ENDBRANCH  12  16
ENDBRANCH  10  12
ENDBRANCH   1  10
TORSDOF 4
ENDMDL
MODEL      551
REMARK  Name = ZINC000019536817
REMARK                            x       y       z     vdW  Elec       q    Type
REMARK                         _______ _______ _______ _____ _____    ______ ____
ROOT
ATOM      1  C   LIG    1       -0.051  -3.074   1.743  0.00  0.00    +0.300 C 
ENDROOT
BRANCH   1   6
ATOM      2  C   LIG    1       -0.531   1.682   0.539  0.00  0.00    +0.420 C 
ATOM      3  N   LIG    1       -0.326   0.235   0.440  0.00  0.00    -0.140 N 
ATOM      4  N   LIG    1       -0.101  -0.414  -0.650  0.00  0.00    -0.060 NA
ATOM      5  N   LIG    1        0.030  -1.666  -0.367  0.00  0.00    -0.280 NA
ATOM      6  C   LIG    1       -0.121  -1.794   0.952  0.00  0.00    +0.130 A 
ATOM      7  N   LIG    1       -0.336  -0.592   1.428  0.00  0.00    -0.300 NA
ENDBRANCH   1   6
BRANCH   1   8
ATOM      8  O   LIG    1        1.074  -3.841   1.310  0.00  0.00    -0.540 OA
ATOM      9  H   LIG    1        1.048  -4.085   0.375  0.00  0.00    +0.390 HD
ENDBRANCH   1   8
BRANCH   1  10
ATOM     10  C   LIG    1       -1.333  -3.880   1.523  0.00  0.00    +0.210 C 
BRANCH  10  11
ATOM     11  N   LIG    1       -1.313  -5.074   2.378  0.00  0.00    -0.520 NA
ATOM     12  C   LIG    1       -0.924  -4.731   3.754  0.00  0.00    +0.150 C 
ATOM     13  C   LIG    1       -0.975  -5.991   4.622  0.00  0.00    +0.220 C 
ATOM     14  O   LIG    1       -0.124  -6.990   4.053  0.00  0.00    -0.380 OA
ATOM     15  C   LIG    1       -0.474  -7.349   2.714  0.00  0.00    +0.220 C 
ATOM     16  C   LIG    1       -0.419  -6.103   1.826  0.00  0.00    +0.160 C 
ENDBRANCH  10  11
ENDBRANCH   1  10
TORSDOF 4
ENDMDL
MODEL      552
REMARK  Name = ZINC000005883978
REMARK                            x       y       z     vdW  Elec       q    Type
REMARK                         _______ _______ _______ _____ _____    ______ ____
ROOT
ATOM      1  C   LIG    1       -1.136  -2.159   0.001  0.00  0.00    +0.250 C 
ATOM      2  C   LIG    1       -0.993  -2.676   1.435  0.00  0.00    +0.360 C 
ATOM      3  O   LIG    1       -2.124  -2.264   2.204  0.00  0.00    -0.380 OA
ATOM      4  C   LIG    1       -3.372  -2.765   1.721  0.00  0.00    +0.150 C 
ATOM      5  C   LIG    1       -3.611  -2.252   0.299  0.00  0.00    +0.120 C 
ATOM      6  C   LIG    1       -2.444  -2.685  -0.596  0.00  0.00    +0.190 C 
ENDROOT
BRANCH   1   9
ATOM      7  C   LIG    1       -0.018   1.503   0.010  0.00  0.00    +0.110 C 
ATOM      8  C   LIG    1        0.002  -0.004   0.002  0.00  0.00    +0.520 C 
ATOM      9  N   LIG    1       -1.156  -0.694   0.009  0.00  0.00    -0.720 N 
ATOM     10  H   LIG    1       -2.002  -0.220   0.020  0.00  0.00    +0.400 HD
ATOM     11  O   LIG    1        1.060  -0.596  -0.011  0.00  0.00    -0.540 OA
ENDBRANCH   1   9
BRANCH   5  12
ATOM     12  O   LIG    1       -4.831  -2.797  -0.207  0.00  0.00    -0.550 OA
ATOM     13  H   LIG    1       -5.612  -2.565   0.314  0.00  0.00    +0.380 HD
ENDBRANCH   5  12
BRANCH   2  14
ATOM     14  O   LIG    1       -0.920  -4.103   1.421  0.00  0.00    -0.550 OA
ATOM     15  H   LIG    1       -0.828  -4.501   2.298  0.00  0.00    +0.380 HD
ENDBRANCH   2  14
BRANCH   6  16
ATOM     16  O   LIG    1       -2.400  -4.112  -0.666  0.00  0.00    -0.530 OA
ATOM     17  H   LIG    1       -3.202  -4.513  -1.029  0.00  0.00    +0.390 HD
ENDBRANCH   6  16
BRANCH   4  18
ATOM     18  C   LIG    1       -4.503  -2.286   2.634  0.00  0.00    +0.190 C 
BRANCH  18  19
ATOM     19  O   LIG    1       -4.342  -2.860   3.933  0.00  0.00    -0.560 OA
ATOM     20  H   LIG    1       -5.025  -2.598   4.565  0.00  0.00    +0.380 HD
ENDBRANCH  18  19
ENDBRANCH   4  18
TORSDOF 6
ENDMDL
MODEL      553
REMARK  Name = ZINC000000895509
REMARK                            x       y       z     vdW  Elec       q    Type
REMARK                         _______ _______ _______ _____ _____    ______ ____
ROOT
ATOM      1  C   LIG    1       -1.136  -2.159   0.001  0.00  0.00    +0.260 C 
ATOM      2  C   LIG    1       -1.020  -2.661  -1.440  0.00  0.00    +0.310 C 
ATOM      3  O   LIG    1       -1.059  -4.089  -1.450  0.00  0.00    -0.380 OA
ATOM      4  C   LIG    1       -2.269  -4.644  -0.930  0.00  0.00    +0.150 C 
ATOM      5  C   LIG    1       -2.435  -4.221   0.532  0.00  0.00    +0.130 C 
ATOM      6  C   LIG    1       -2.433  -2.692   0.618  0.00  0.00    +0.190 C 
ENDROOT
BRANCH   1   9
ATOM      7  C   LIG    1       -0.018   1.503   0.010  0.00  0.00    +0.100 C 
ATOM      8  C   LIG    1        0.002  -0.004   0.002  0.00  0.00    +0.510 C 
ATOM      9  N   LIG    1       -1.156  -0.694   0.009  0.00  0.00    -0.720 N 
ATOM     10  H   LIG    1       -2.002  -0.220   0.020  0.00  0.00    +0.400 HD
ATOM     11  O   LIG    1        1.060  -0.596  -0.011  0.00  0.00    -0.520 OA
ENDBRANCH   1   9
BRANCH   5  12
ATOM     12  O   LIG    1       -1.354  -4.745   1.306  0.00  0.00    -0.540 OA
ATOM     13  H   LIG    1       -1.293  -5.710   1.294  0.00  0.00    +0.380 HD
ENDBRANCH   5  12
BRANCH   2  14
ATOM     14  O   LIG    1        0.215  -2.214  -2.003  0.00  0.00    -0.520 OA
ATOM     15  H   LIG    1        0.356  -2.496  -2.917  0.00  0.00    +0.380 HD
ENDBRANCH   2  14
BRANCH   6  16
ATOM     16  O   LIG    1       -2.516  -2.290   1.987  0.00  0.00    -0.540 OA
ATOM     17  H   LIG    1       -3.312  -2.599   2.440  0.00  0.00    +0.380 HD
ENDBRANCH   6  16
BRANCH   4  18
ATOM     18  C   LIG    1       -2.210  -6.170  -1.017  0.00  0.00    +0.210 C 
BRANCH  18  19
ATOM     19  O   LIG    1       -2.171  -6.568  -2.389  0.00  0.00    -0.560 OA
ATOM     20  H   LIG    1       -2.133  -7.525  -2.520  0.00  0.00    +0.390 HD
ENDBRANCH  18  19
ENDBRANCH   4  18
TORSDOF 6
ENDMDL
MODEL      554
REMARK  Name = ZINC000001208863
REMARK                            x       y       z     vdW  Elec       q    Type
REMARK                         _______ _______ _______ _____ _____    ______ ____
ROOT
ATOM      1  C   LIG    1       -0.018   1.461   0.010  0.00  0.00    +0.330 C 
ATOM      2  N   LIG    1        0.002  -0.004   0.002  0.00  0.00    -0.610 N 
ATOM      3  C   LIG    1        0.009  -0.834  -1.092  0.00  0.00    +0.720 C 
ATOM      4  N   LIG    1       -0.212  -2.139  -0.745  0.00  0.00    -0.640 N 
ATOM      5  C   LIG    1       -0.826  -2.084   0.580  0.00  0.00    +0.430 C 
ATOM      6  N   LIG    1       -0.451  -3.040   1.614  0.00  0.00    -0.630 N 
ATOM      7  C   LIG    1       -0.278  -2.279   2.760  0.00  0.00    +0.730 C 
ATOM      8  O   LIG    1       -0.231  -2.750   3.880  0.00  0.00    -0.510 OA
ATOM      9  N   LIG    1       -0.173  -0.938   2.489  0.00  0.00    -0.600 N 
ATOM     10  C   LIG    1        0.099  -3.335  -1.532  0.00  0.00    +0.340 C 
ATOM     11  O   LIG    1        0.191  -0.454  -2.232  0.00  0.00    -0.530 OA
ATOM     12  C   LIG    1        0.024  -0.862   1.108  0.00  0.00    +0.380 C 
ENDROOT
BRANCH   6  13
ATOM     13  C   LIG    1       -0.279  -4.489   1.484  0.00  0.00    +0.490 C 
BRANCH  13  14
ATOM     14  O   LIG    1       -1.391  -5.156   2.085  0.00  0.00    -0.580 OA
ATOM     15  H   LIG    1       -1.344  -6.120   2.036  0.00  0.00    +0.400 HD
ENDBRANCH  13  14
ENDBRANCH   6  13
BRANCH   9  16
ATOM     16  C   LIG    1       -0.251   0.173   3.441  0.00  0.00    +0.490 C 
BRANCH  16  17
ATOM     17  O   LIG    1       -1.612   0.372   3.831  0.00  0.00    -0.590 OA
ATOM     18  H   LIG    1       -1.739   1.094   4.462  0.00  0.00    +0.400 HD
ENDBRANCH  16  17
ENDBRANCH   9  16
TORSDOF 4
ENDMDL
MODEL      555
REMARK  Name = ZINC000001208865
REMARK                            x       y       z     vdW  Elec       q    Type
REMARK                         _______ _______ _______ _____ _____    ______ ____
ROOT
ATOM      1  C   LIG    1       -0.018   1.461   0.010  0.00  0.00    +0.350 C 
ATOM      2  N   LIG    1        0.002  -0.004   0.002  0.00  0.00    -0.640 N 
ATOM      3  C   LIG    1        0.008  -0.772  -1.095  0.00  0.00    +0.700 C 
ATOM      4  N   LIG    1        0.028  -2.086  -0.838  0.00  0.00    -0.640 N 
ATOM      5  C   LIG    1        0.037  -2.298   0.617  0.00  0.00    +0.470 C 
ATOM      6  N   LIG    1        1.339  -2.840   1.029  0.00  0.00    -0.630 N 
ATOM      7  C   LIG    1        2.001  -1.894   1.728  0.00  0.00    +0.710 C 
ATOM      8  O   LIG    1        3.111  -2.071   2.192  0.00  0.00    -0.550 OA
ATOM      9  N   LIG    1        1.326  -0.746   1.870  0.00  0.00    -0.620 N 
ATOM     10  C   LIG    1        0.038  -3.147  -1.848  0.00  0.00    +0.330 C 
ATOM     11  O   LIG    1       -0.003  -0.318  -2.222  0.00  0.00    -0.570 OA
ATOM     12  C   LIG    1        0.025  -0.860   1.196  0.00  0.00    +0.470 C 
ENDROOT
BRANCH   6  13
ATOM     13  C   LIG    1        1.847  -4.181   0.728  0.00  0.00    +0.490 C 
BRANCH  13  14
ATOM     14  O   LIG    1        1.780  -4.990   1.904  0.00  0.00    -0.590 OA
ATOM     15  H   LIG    1        2.100  -5.894   1.779  0.00  0.00    +0.400 HD
ENDBRANCH  13  14
ENDBRANCH   6  13
BRANCH   9  16
ATOM     16  C   LIG    1        1.809   0.438   2.586  0.00  0.00    +0.490 C 
BRANCH  16  17
ATOM     17  O   LIG    1        1.732   0.207   3.994  0.00  0.00    -0.580 OA
ATOM     18  H   LIG    1        2.036   0.951   4.532  0.00  0.00    +0.400 HD
ENDBRANCH  16  17
ENDBRANCH   9  16
TORSDOF 4
ENDMDL
MODEL      556
REMARK  Name = ZINC000008770271
REMARK                            x       y       z     vdW  Elec       q    Type
REMARK                         _______ _______ _______ _____ _____    ______ ____
ROOT
ATOM      1  C   LIG    1        0.568  -2.879  -3.396  0.00  0.00    +0.420 A 
ATOM      2  N   LIG    1       -0.730  -2.670  -3.409  0.00  0.00    -0.300 NA
ATOM      3  N   LIG    1       -1.470  -2.900  -4.568  0.00  0.00    -0.170 N 
ATOM      4  N   LIG    1       -2.825  -2.780  -4.904  0.00  0.00    -0.050 NA
ATOM      5  N   LIG    1       -2.940  -3.137  -6.139  0.00  0.00    -0.030 NA
ATOM      6  N   LIG    1       -1.798  -3.472  -6.626  0.00  0.00    -0.290 NA
ATOM      7  C   LIG    1       -0.853  -3.346  -5.704  0.00  0.00    +0.180 A 
ATOM      8  C   LIG    1        0.536  -3.570  -5.691  0.00  0.00    +0.180 A 
ATOM      9  C   LIG    1        1.234  -3.333  -4.549  0.00  0.00    +0.030 A 
ENDROOT
BRANCH   1  10
ATOM     10  N   LIG    1        1.291  -2.644  -2.232  0.00  0.00    -0.570 N 
ATOM     11  C   LIG    1        2.739  -2.869  -2.210  0.00  0.00    +0.320 C 
BRANCH  10  12
ATOM     12  C   LIG    1        0.606  -2.171  -1.026  0.00  0.00    +0.340 C 
BRANCH  12  16
ATOM     13  C   LIG    1       -0.018   1.461   0.010  0.00  0.00    +0.290 C 
ATOM     14  N   LIG    1        0.002  -0.004   0.002  0.00  0.00    -0.730 N 
ATOM     15  H   LIG    1       -0.404  -0.499   0.731  0.00  0.00    +0.400 HD
ATOM     16  C   LIG    1        0.585  -0.664  -1.018  0.00  0.00    +0.490 C 
ATOM     17  O   LIG    1        1.093  -0.046  -1.929  0.00  0.00    -0.530 OA
ENDBRANCH  12  16
ENDBRANCH  10  12
ENDBRANCH   1  10
TORSDOF 3
ENDMDL
MODEL      557
REMARK  Name = ZINC000252624249
REMARK                            x       y       z     vdW  Elec       q    Type
REMARK                         _______ _______ _______ _____ _____    ______ ____
ROOT
ATOM      1  C   LIG    1       -1.416  -2.058  -0.121  0.00  0.00    +0.160 C 
ATOM      2  O   LIG    1       -0.857  -2.450  -1.393  0.00  0.00    -0.350 OA
ATOM      3  C   LIG    1       -1.321  -3.783  -1.667  0.00  0.00    +0.400 C 
ATOM      4  N   LIG    1       -1.687  -3.879  -3.089  0.00  0.00    -0.660 N 
ATOM      5  H   LIG    1       -1.067  -3.837  -3.834  0.00  0.00    +0.450 HD
ATOM      6  C   LIG    1       -3.013  -4.034  -3.190  0.00  0.00    +0.500 C 
ATOM      7  O   LIG    1       -3.645  -4.074  -2.010  0.00  0.00    -0.270 OA
ATOM      8  S   LIG    1       -3.827  -4.167  -4.690  0.00  0.00    -0.500 S 
ATOM      9  C   LIG    1       -2.661  -3.962  -0.911  0.00  0.00    +0.150 C 
ATOM     10  C   LIG    1       -2.860  -2.618  -0.168  0.00  0.00    +0.190 C 
ENDROOT
BRANCH  10  11
ATOM     11  O   LIG    1       -3.400  -2.833   1.137  0.00  0.00    -0.530 OA
ATOM     12  H   LIG    1       -4.269  -3.256   1.139  0.00  0.00    +0.400 HD
ENDBRANCH  10  11
BRANCH   1  13
ATOM     13  C   LIG    1       -1.433  -0.534   0.013  0.00  0.00    +0.240 C 
BRANCH  13  14
ATOM     14  O   LIG    1       -2.066  -0.171   1.242  0.00  0.00    -0.530 OA
ATOM     15  H   LIG    1       -1.626  -0.521   2.029  0.00  0.00    +0.380 HD
ENDBRANCH  13  14
BRANCH  13  16
ATOM     16  C   LIG    1        0.002  -0.004   0.002  0.00  0.00    +0.160 C 
BRANCH  16  17
ATOM     17  O   LIG    1       -0.017   1.425   0.010  0.00  0.00    -0.560 OA
ATOM     18  H   LIG    1        0.861   1.830   0.004  0.00  0.00    +0.380 HD
ENDBRANCH  16  17
ENDBRANCH  13  16
ENDBRANCH   1  13
TORSDOF 5
ENDMDL
MODEL      558
REMARK  Name = ZINC000252624247
REMARK                            x       y       z     vdW  Elec       q    Type
REMARK                         _______ _______ _______ _____ _____    ______ ____
ROOT
ATOM      1  C   LIG    1       -1.416  -2.058  -0.121  0.00  0.00    +0.170 C 
ATOM      2  O   LIG    1       -0.817  -2.442  -1.399  0.00  0.00    -0.320 OA
ATOM      3  C   LIG    1       -1.501  -3.598  -1.738  0.00  0.00    +0.330 C 
ATOM      4  N   LIG    1       -1.641  -4.350  -2.938  0.00  0.00    -0.650 N 
ATOM      5  H   LIG    1       -0.999  -4.438  -3.660  0.00  0.00    +0.450 HD
ATOM      6  C   LIG    1       -2.886  -4.926  -2.851  0.00  0.00    +0.490 C 
ATOM      7  O   LIG    1       -3.557  -4.485  -1.735  0.00  0.00    -0.270 OA
ATOM      8  S   LIG    1       -3.517  -6.044  -3.982  0.00  0.00    -0.430 S 
ATOM      9  C   LIG    1       -3.011  -3.142  -1.562  0.00  0.00    +0.100 C 
ATOM     10  C   LIG    1       -2.872  -2.610  -0.130  0.00  0.00    +0.200 C 
ENDROOT
BRANCH  10  11
ATOM     11  O   LIG    1       -3.822  -1.573   0.121  0.00  0.00    -0.520 OA
ATOM     12  H   LIG    1       -4.744  -1.857   0.044  0.00  0.00    +0.390 HD
ENDBRANCH  10  11
BRANCH   1  13
ATOM     13  C   LIG    1       -1.433  -0.534   0.013  0.00  0.00    +0.250 C 
BRANCH  13  14
ATOM     14  O   LIG    1       -2.066  -0.171   1.242  0.00  0.00    -0.520 OA
ATOM     15  H   LIG    1       -1.626  -0.521   2.029  0.00  0.00    +0.370 HD
ENDBRANCH  13  14
BRANCH  13  16
ATOM     16  C   LIG    1        0.002  -0.004   0.002  0.00  0.00    +0.150 C 
BRANCH  16  17
ATOM     17  O   LIG    1       -0.017   1.425   0.010  0.00  0.00    -0.560 OA
ATOM     18  H   LIG    1        0.861   1.830   0.004  0.00  0.00    +0.380 HD
ENDBRANCH  16  17
ENDBRANCH  13  16
ENDBRANCH   1  13
TORSDOF 5
ENDMDL
MODEL      559
REMARK  Name = ZINC000038247219
REMARK                            x       y       z     vdW  Elec       q    Type
REMARK                         _______ _______ _______ _____ _____    ______ ____
ROOT
ATOM      1  C   LIG    1        0.673  -0.582   1.123  0.00  0.00    +0.310 C 
ATOM      2  O   LIG    1        2.059  -0.237   1.079  0.00  0.00    -0.380 OA
ATOM      3  C   LIG    1        2.823  -0.747   2.174  0.00  0.00    +0.150 C 
ATOM      4  C   LIG    1        2.762  -2.276   2.169  0.00  0.00    +0.130 C 
ATOM      5  C   LIG    1        1.299  -2.722   2.247  0.00  0.00    +0.200 C 
ATOM      6  C   LIG    1        0.526  -2.106   1.076  0.00  0.00    +0.260 C 
ENDROOT
BRANCH   6   7
ATOM      7  N   LIG    1       -0.890  -2.465   1.181  0.00  0.00    -0.720 N 
ATOM      8  H   LIG    1       -1.272  -2.684   2.045  0.00  0.00    +0.410 HD
ATOM      9  C   LIG    1       -1.662  -2.493   0.076  0.00  0.00    +0.510 C 
ATOM     10  O   LIG    1       -1.184  -2.220  -1.004  0.00  0.00    -0.520 OA
ATOM     11  C   LIG    1       -3.119  -2.863   0.184  0.00  0.00    +0.080 C 
ENDBRANCH   6   7
BRANCH   1  13
ATOM     12  C   LIG    1       -0.017   1.425   0.010  0.00  0.00    +0.210 C 
ATOM     13  O   LIG    1        0.002  -0.004   0.002  0.00  0.00    -0.350 OA
ENDBRANCH   1  13
BRANCH   5  14
ATOM     14  O   LIG    1        0.730  -2.281   3.482  0.00  0.00    -0.550 OA
ATOM     15  H   LIG    1        1.175  -2.630   4.266  0.00  0.00    +0.390 HD
ENDBRANCH   5  14
BRANCH   4  16
ATOM     16  O   LIG    1        3.351  -2.774   0.966  0.00  0.00    -0.550 OA
ATOM     17  H   LIG    1        4.278  -2.525   0.850  0.00  0.00    +0.380 HD
ENDBRANCH   4  16
BRANCH   3  18
ATOM     18  C   LIG    1        4.278  -0.293   2.037  0.00  0.00    +0.200 C 
BRANCH  18  19
ATOM     19  O   LIG    1        4.347   1.129   2.156  0.00  0.00    -0.560 OA
ATOM     20  H   LIG    1        5.241   1.488   2.079  0.00  0.00    +0.380 HD
ENDBRANCH  18  19
ENDBRANCH   3  18
TORSDOF 6
ENDMDL
MODEL      560
REMARK  Name = ZINC000034027758
REMARK                            x       y       z     vdW  Elec       q    Type
REMARK                         _______ _______ _______ _____ _____    ______ ____
ROOT
ATOM      1  C   LIG    1       -1.136  -2.159   0.001  0.00  0.00    +0.270 C 
ATOM      2  C   LIG    1       -1.021  -2.662  -1.441  0.00  0.00    +0.150 C 
ATOM      3  C   LIG    1       -1.081  -4.191  -1.446  0.00  0.00    +0.310 C 
ATOM      4  O   LIG    1       -2.298  -4.622  -0.834  0.00  0.00    -0.390 OA
ATOM      5  C   LIG    1       -2.439  -4.221   0.530  0.00  0.00    +0.150 C 
ATOM      6  C   LIG    1       -2.433  -2.692   0.617  0.00  0.00    +0.160 C 
ENDROOT
BRANCH   1   9
ATOM      7  C   LIG    1       -0.018   1.503   0.010  0.00  0.00    +0.100 C 
ATOM      8  C   LIG    1        0.002  -0.004   0.002  0.00  0.00    +0.510 C 
ATOM      9  N   LIG    1       -1.156  -0.694   0.009  0.00  0.00    -0.720 N 
ATOM     10  H   LIG    1       -2.002  -0.220   0.020  0.00  0.00    +0.400 HD
ATOM     11  O   LIG    1        1.060  -0.596  -0.011  0.00  0.00    -0.520 OA
ENDBRANCH   1   9
BRANCH   3  12
ATOM     12  O   LIG    1       -1.030  -4.666  -2.793  0.00  0.00    -0.540 OA
ATOM     13  H   LIG    1       -1.064  -5.629  -2.872  0.00  0.00    +0.400 HD
ENDBRANCH   3  12
BRANCH   2  14
ATOM     14  O   LIG    1        0.220  -2.229  -2.001  0.00  0.00    -0.530 OA
ATOM     15  H   LIG    1        0.360  -2.512  -2.914  0.00  0.00    +0.390 HD
ENDBRANCH   2  14
BRANCH   6  16
ATOM     16  O   LIG    1       -2.517  -2.291   1.986  0.00  0.00    -0.540 OA
ATOM     17  H   LIG    1       -3.314  -2.599   2.438  0.00  0.00    +0.380 HD
ENDBRANCH   6  16
BRANCH   5  18
ATOM     18  C   LIG    1       -3.759  -4.758   1.087  0.00  0.00    +0.210 C 
BRANCH  18  19
ATOM     19  O   LIG    1       -3.717  -6.187   1.115  0.00  0.00    -0.560 OA
ATOM     20  H   LIG    1       -4.523  -6.597   1.457  0.00  0.00    +0.390 HD
ENDBRANCH  18  19
ENDBRANCH   5  18
TORSDOF 6
ENDMDL
MODEL      561
REMARK  Name = ZINC000044892823
REMARK                            x       y       z     vdW  Elec       q    Type
REMARK                         _______ _______ _______ _____ _____    ______ ____
ROOT
ATOM      1  N   LIG    1       -2.542  -2.619  -0.064  0.00  0.00    -0.520 NA
ATOM      2  C   LIG    1       -3.372  -1.820   0.847  0.00  0.00    +0.180 C 
ATOM      3  C   LIG    1       -4.845  -2.182   0.647  0.00  0.00    +0.040 C 
ATOM      4  C   LIG    1       -5.041  -3.675   0.926  0.00  0.00    +0.230 C 
ATOM      5  C   LIG    1       -4.130  -4.483  -0.003  0.00  0.00    +0.040 C 
ATOM      6  C   LIG    1       -2.678  -4.054   0.216  0.00  0.00    +0.170 C 
ENDROOT
BRANCH   4   7
ATOM      7  N   LIG    1       -6.438  -4.039   0.680  0.00  0.00    -1.110 NA
ATOM      8  H   LIG    1       -6.934  -3.609  -0.035  0.00  0.00    +0.420 HD
BRANCH   7   9
ATOM      9  S   LIG    1       -7.173  -5.187   1.621  0.00  0.00    +2.610 S 
ATOM     10  O   LIG    1       -6.278  -6.290   1.591  0.00  0.00    -0.950 OA
ATOM     11  O   LIG    1       -8.485  -5.293   1.085  0.00  0.00    -0.960 OA
ATOM     12  C   LIG    1       -7.220  -4.450   3.278  0.00  0.00    -0.280 C 
ENDBRANCH   7   9
ENDBRANCH   4   7
BRANCH   1  13
ATOM     13  C   LIG    1       -1.135  -2.201   0.001  0.00  0.00    +0.210 C 
BRANCH  13  17
ATOM     14  C   LIG    1        1.722  -3.346  -2.274  0.00  0.00    +0.290 C 
ATOM     15  N   LIG    1        0.974  -2.713  -1.185  0.00  0.00    -0.740 N 
ATOM     16  H   LIG    1        1.442  -2.195  -0.512  0.00  0.00    +0.400 HD
ATOM     17  C   LIG    1       -0.365  -2.852  -1.119  0.00  0.00    +0.510 C 
ATOM     18  O   LIG    1       -0.950  -3.500  -1.960  0.00  0.00    -0.520 OA
ENDBRANCH  13  17
ENDBRANCH   1  13
TORSDOF 4
ENDMDL
MODEL      562
REMARK  Name = ZINC000001578621
REMARK                            x       y       z     vdW  Elec       q    Type
REMARK                         _______ _______ _______ _____ _____    ______ ____
ROOT
ATOM      1  C   VAL A  1        2.132   0.024  -1.268  0.00  0.00    +0.500 C 
ATOM      2  N   SER A  2        2.381   1.288  -1.662  0.00  0.00    -0.660 N 
ATOM      3  H   SER A  2        1.650   1.863  -1.940  0.00  0.00    +0.400 HD
ATOM      4  O   VAL A  1        3.046  -0.694  -0.921  0.00  0.00    -0.540 OA
ENDROOT
BRANCH   1   5
ATOM      5  CA  VAL A  1        0.718  -0.497  -1.257  0.00  0.00    +0.170 C 
BRANCH   5   6
ATOM      6  N   VAL A  1        0.738  -1.966  -1.265  0.00  0.00    -0.620 N 
ATOM      7  H1  VAL A  1       -0.208  -2.316  -1.258  0.00  0.00    +0.430 HD
ATOM      8  H2  VAL A  1        1.226  -2.301  -0.447  0.00  0.00    +0.440 HD
ATOM      9  H3  VAL A  1        1.210  -2.292  -2.095  0.00  0.00    +0.440 HD
ENDBRANCH   5   6
BRANCH   5  11
ATOM     10  CG1 VAL A  1       -0.019   1.526   0.010  0.00  0.00    +0.070 C 
ATOM     11  CB  VAL A  1        0.002  -0.004   0.002  0.00  0.00    +0.000 C 
ATOM     12  CG2 VAL A  1       -1.433  -0.534   0.013  0.00  0.00    +0.050 C 
ENDBRANCH   5  11
ENDBRANCH   1   5
BRANCH   2  13
ATOM     13  CA  SER A  2        3.755   1.796  -1.673  0.00  0.00    +0.160 C 
BRANCH  13  14
ATOM     14  C   SER A  2        4.112   2.307  -0.301  0.00  0.00    +0.500 C 
ATOM     15  OXT SER A  2        5.219   2.775  -0.094  0.00  0.00    -0.680 OA
ATOM     16  O   SER A  2        3.295   2.253   0.602  0.00  0.00    -0.680 OA
ENDBRANCH  13  14
BRANCH  13  17
ATOM     17  CB  SER A  2        3.871   2.934  -2.688  0.00  0.00    +0.200 C 
BRANCH  17  18
ATOM     18  OG  SER A  2        3.065   4.035  -2.263  0.00  0.00    -0.560 OA
ATOM     19  H   SER A  2        3.090   4.795  -2.860  0.00  0.00    +0.380 HD
ENDBRANCH  17  18
ENDBRANCH  13  17
ENDBRANCH   2  13
TORSDOF 7
ENDMDL
MODEL      563
REMARK  Name = ZINC000001567243
REMARK                            x       y       z     vdW  Elec       q    Type
REMARK                         _______ _______ _______ _____ _____    ______ ____
ROOT
ATOM      1  C   LIG    1        0.366  -0.562  -1.269  0.00  0.00    +0.230 C 
ENDROOT
BRANCH   1   2
ATOM      2  C   LIG    1        1.834  -0.293  -1.481  0.00  0.00    +0.490 C 
ATOM      3  N   LIG    1        2.263   0.964  -1.707  0.00  0.00    -0.730 N 
ATOM      4  H   LIG    1        1.640   1.706  -1.659  0.00  0.00    +0.400 HD
ATOM      5  O   LIG    1        2.629  -1.209  -1.450  0.00  0.00    -0.530 OA
BRANCH   3   6
ATOM      6  C   LIG    1        3.672   1.211  -2.025  0.00  0.00    +0.260 C 
BRANCH   6   7
ATOM      7  C   LIG    1        3.892   2.711  -2.234  0.00  0.00    +0.030 C 
BRANCH   7   8
ATOM      8  C   LIG    1        5.363   2.969  -2.566  0.00  0.00    +0.180 C 
BRANCH   8   9
ATOM      9  O   LIG    1        5.569   4.370  -2.760  0.00  0.00    -0.570 OA
ATOM     10  H   LIG    1        6.482   4.607  -2.975  0.00  0.00    +0.380 HD
ENDBRANCH   8   9
ENDBRANCH   7   8
ENDBRANCH   6   7
ENDBRANCH   3   6
ENDBRANCH   1   2
BRANCH   1  12
ATOM     11  C   LIG    1       -1.508  -0.428   0.378  0.00  0.00    +0.060 C 
ATOM     12  C   LIG    1       -0.055  -0.035   0.104  0.00  0.00    -0.090 C 
ATOM     13  C   LIG    1        0.074   1.490   0.127  0.00  0.00    +0.050 C 
BRANCH  12  14
ATOM     14  C   LIG    1        0.849  -0.639   1.181  0.00  0.00    +0.180 C 
BRANCH  14  15
ATOM     15  O   LIG    1        0.455  -0.147   2.464  0.00  0.00    -0.560 OA
ATOM     16  H   LIG    1        0.986  -0.489   3.196  0.00  0.00    +0.380 HD
ENDBRANCH  14  15
ENDBRANCH  12  14
ENDBRANCH   1  12
BRANCH   1  17
ATOM     17  O   LIG    1        0.125  -1.969  -1.334  0.00  0.00    -0.530 OA
ATOM     18  H   LIG    1        0.608  -2.481  -0.671  0.00  0.00    +0.380 HD
ENDBRANCH   1  17
TORSDOF 9
ENDMDL
MODEL      564
REMARK  Name = ZINC000042210824
REMARK                            x       y       z     vdW  Elec       q    Type
REMARK                         _______ _______ _______ _____ _____    ______ ____
ROOT
ATOM      1  N   LIG    1        1.354  -2.503  -2.345  0.00  0.00    -0.710 N 
ATOM      2  H   LIG    1        1.990  -1.899  -2.760  0.00  0.00    +0.410 HD
ATOM      3  C   LIG    1        1.111  -3.709  -2.896  0.00  0.00    +0.510 C 
ATOM      4  O   LIG    1        0.316  -4.463  -2.377  0.00  0.00    -0.500 OA
ENDROOT
BRANCH   1   5
ATOM      5  C   LIG    1        0.657  -2.104  -1.120  0.00  0.00    +0.290 C 
ATOM      6  C   LIG    1        1.412  -2.647   0.096  0.00  0.00    +0.080 C 
BRANCH   5   7
ATOM      7  C   LIG    1        0.598  -0.600  -1.043  0.00  0.00    +0.460 C 
ATOM      8  O   LIG    1        1.088   0.070  -1.921  0.00  0.00    -0.500 OA
BRANCH   7  10
ATOM      9  C   LIG    1       -0.018   1.448   0.010  0.00  0.00    +0.280 C 
ATOM     10  O   LIG    1        0.002  -0.004   0.002  0.00  0.00    -0.350 OA
ENDBRANCH   7  10
ENDBRANCH   5   7
ENDBRANCH   1   5
BRANCH   3  11
ATOM     11  C   LIG    1        1.827  -4.119  -4.157  0.00  0.00    +0.390 C 
BRANCH  11  12
ATOM     12  N   LIG    1        1.393  -5.462  -4.550  0.00  0.00    -0.310 N 
ATOM     13  C   LIG    1        0.887  -5.821  -5.744  0.00  0.00    +0.400 A 
ATOM     14  N   LIG    1        0.631  -7.104  -5.674  0.00  0.00    -0.300 NA
ATOM     15  N   LIG    1        0.963  -7.513  -4.498  0.00  0.00    -0.070 NA
ATOM     16  N   LIG    1        1.429  -6.524  -3.818  0.00  0.00    -0.060 NA
ENDBRANCH  11  12
ENDBRANCH   3  11
TORSDOF 5
ENDMDL
MODEL      565
REMARK  Name = ZINC000065501489
REMARK                            x       y       z     vdW  Elec       q    Type
REMARK                         _______ _______ _______ _____ _____    ______ ____
ROOT
ATOM      1  C   LIG    1       -0.018   1.461   0.010  0.00  0.00    +0.280 C 
ATOM      2  N   LIG    1        0.002  -0.004   0.002  0.00  0.00    -0.610 N 
ATOM      3  C   LIG    1       -1.271  -0.718   0.004  0.00  0.00    +0.280 C 
ATOM      4  C   LIG    1       -1.063  -2.169   0.444  0.00  0.00    +0.190 C 
ATOM      5  N   LIG    1        0.038  -2.747  -0.337  0.00  0.00    -0.530 NA
ATOM      6  C   LIG    1        0.101  -4.206  -0.185  0.00  0.00    +0.190 C 
ATOM      7  C   LIG    1        1.144  -4.767  -1.159  0.00  0.00    +0.290 C 
ATOM      8  N   LIG    1        2.414  -4.056  -0.952  0.00  0.00    -0.620 N 
ATOM      9  C   LIG    1        2.400  -2.585  -0.945  0.00  0.00    +0.330 C 
ATOM     10  C   LIG    1        3.564  -4.736  -0.774  0.00  0.00    +0.520 C 
ATOM     11  O   LIG    1        4.604  -4.136  -0.604  0.00  0.00    -0.530 OA
ATOM     12  C   LIG    1        1.314  -2.121   0.031  0.00  0.00    +0.140 C 
ATOM     13  C   LIG    1        1.187  -0.626  -0.013  0.00  0.00    +0.530 C 
ATOM     14  O   LIG    1        2.196   0.043  -0.057  0.00  0.00    -0.540 OA
ENDROOT
BRANCH  10  15
ATOM     15  C   LIG    1        3.558  -6.243  -0.785  0.00  0.00    +0.060 C 
BRANCH  15  16
ATOM     16  C   LIG    1        4.980  -6.761  -0.562  0.00  0.00    +0.210 C 
BRANCH  16  17
ATOM     17  O   LIG    1        4.974  -8.190  -0.573  0.00  0.00    -0.580 OA
ATOM     18  H   LIG    1        5.845  -8.588  -0.437  0.00  0.00    +0.390 HD
ENDBRANCH  16  17
ENDBRANCH  15  16
ENDBRANCH  10  15
TORSDOF 3
ENDMDL
MODEL      566
REMARK  Name = ZINC000068517730
REMARK                            x       y       z     vdW  Elec       q    Type
REMARK                         _______ _______ _______ _____ _____    ______ ____
ROOT
ATOM      1  C   LIG    1       -2.550  -2.680   0.012  0.00  0.00    +0.510 C 
ATOM      2  N   LIG    1       -2.778  -4.008   0.007  0.00  0.00    -0.610 N 
ATOM      3  C   LIG    1       -1.659  -4.960  -0.003  0.00  0.00    +0.270 C 
ATOM      4  C   LIG    1       -1.847  -5.930  -1.173  0.00  0.00    +0.020 C 
ATOM      5  C   LIG    1       -3.227  -6.584  -1.073  0.00  0.00    +0.060 C 
ATOM      6  C   LIG    1       -4.311  -5.507  -1.159  0.00  0.00    -0.020 C 
ATOM      7  C   LIG    1       -4.151  -4.532   0.017  0.00  0.00    +0.300 C 
ATOM      8  O   LIG    1       -3.482  -1.905   0.025  0.00  0.00    -0.540 OA
ENDROOT
BRANCH   6   9
ATOM      9  C   LIG    1       -5.670  -6.155  -1.093  0.00  0.00    +0.520 C 
ATOM     10  O   LIG    1       -5.763  -7.359  -0.988  0.00  0.00    -0.540 OA
ATOM     11  N   LIG    1       -6.782  -5.395  -1.152  0.00  0.00    -0.850 N 
ATOM     12  H   LIG    1       -7.657  -5.812  -1.110  0.00  0.00    +0.400 HD
ATOM     13  H   LIG    1       -6.707  -4.432  -1.236  0.00  0.00    +0.400 HD
ENDBRANCH   6   9
BRANCH   1  14
ATOM     14  C   LIG    1       -1.136  -2.159   0.001  0.00  0.00    +0.300 C 
BRANCH  14  17
ATOM     15  C   LIG    1       -0.018   1.503   0.010  0.00  0.00    +0.110 C 
ATOM     16  C   LIG    1        0.002  -0.004   0.002  0.00  0.00    +0.510 C 
ATOM     17  N   LIG    1       -1.156  -0.694   0.009  0.00  0.00    -0.720 N 
ATOM     18  H   LIG    1       -2.002  -0.220   0.020  0.00  0.00    +0.410 HD
ATOM     19  O   LIG    1        1.060  -0.596  -0.011  0.00  0.00    -0.550 OA
ENDBRANCH  14  17
ENDBRANCH   1  14
TORSDOF 3
ENDMDL
MODEL      567
REMARK  Name = ZINC000223155296
REMARK                            x       y       z     vdW  Elec       q    Type
REMARK                         _______ _______ _______ _____ _____    ______ ____
ROOT
ATOM      1  C   LIG    1       -2.331  -4.366  -0.643  0.00  0.00    +0.520 C 
ATOM      2  N   LIG    1       -2.668  -5.636  -0.343  0.00  0.00    -0.720 N 
ATOM      3  H   LIG    1       -1.976  -6.306  -0.224  0.00  0.00    +0.400 HD
ATOM      4  O   LIG    1       -3.196  -3.528  -0.792  0.00  0.00    -0.520 OA
ENDROOT
BRANCH   2   5
ATOM      5  C   LIG    1       -4.078  -6.005  -0.197  0.00  0.00    +0.250 C 
ATOM      6  C   LIG    1       -4.540  -5.705   1.233  0.00  0.00    -0.000 C 
ATOM      7  C   LIG    1       -5.991  -6.166   1.399  0.00  0.00    +0.220 C 
ATOM      8  O   LIG    1       -6.083  -7.560   1.097  0.00  0.00    -0.370 OA
ATOM      9  C   LIG    1       -5.709  -7.894  -0.241  0.00  0.00    +0.190 C 
ATOM     10  C   LIG    1       -4.248  -7.502  -0.475  0.00  0.00    +0.130 C 
BRANCH  10  11
ATOM     11  O   LIG    1       -3.889  -7.783  -1.829  0.00  0.00    -0.560 OA
ATOM     12  H   LIG    1       -3.977  -8.714  -2.074  0.00  0.00    +0.380 HD
ENDBRANCH  10  11
ENDBRANCH   2   5
BRANCH   1  13
ATOM     13  C   LIG    1       -0.881  -3.986  -0.794  0.00  0.00    +0.200 C 
BRANCH  13  14
ATOM     14  N   LIG    1       -0.780  -2.557  -1.119  0.00  0.00    -0.520 NA
ATOM     15  C   LIG    1       -1.354  -2.276  -2.442  0.00  0.00    +0.200 C 
BRANCH  14  16
ATOM     16  C   LIG    1        0.613  -2.097  -1.041  0.00  0.00    +0.200 C 
BRANCH  16  17
ATOM     17  C   LIG    1        0.652  -0.570  -1.138  0.00  0.00    +0.160 C 
BRANCH  17  19
ATOM     18  C   LIG    1       -0.017   1.425   0.010  0.00  0.00    +0.200 C 
ATOM     19  O   LIG    1        0.002  -0.004   0.002  0.00  0.00    -0.370 OA
ENDBRANCH  17  19
ENDBRANCH  16  17
ENDBRANCH  14  16
ENDBRANCH  13  14
ENDBRANCH   1  13
TORSDOF 7
ENDMDL
MODEL      568
REMARK  Name = ZINC000004096030
REMARK                            x       y       z     vdW  Elec       q    Type
REMARK                         _______ _______ _______ _____ _____    ______ ____
ROOT
ATOM      1  C   LIG    1       -1.136  -2.159   0.001  0.00  0.00    +0.260 C 
ATOM      2  C   LIG    1       -2.433  -2.692   0.618  0.00  0.00    +0.200 C 
ATOM      3  C   LIG    1       -3.617  -2.249  -0.247  0.00  0.00    +0.120 C 
ATOM      4  C   LIG    1       -3.406  -2.747  -1.679  0.00  0.00    +0.150 C 
ATOM      5  O   LIG    1       -2.169  -2.240  -2.182  0.00  0.00    -0.370 OA
ATOM      6  C   LIG    1       -1.020  -2.661  -1.440  0.00  0.00    +0.370 C 
ENDROOT
BRANCH   1   9
ATOM      7  C   LIG    1       -0.018   1.503   0.010  0.00  0.00    +0.110 C 
ATOM      8  C   LIG    1        0.002  -0.004   0.002  0.00  0.00    +0.510 C 
ATOM      9  N   LIG    1       -1.156  -0.694   0.009  0.00  0.00    -0.710 N 
ATOM     10  H   LIG    1       -2.002  -0.220   0.020  0.00  0.00    +0.400 HD
ATOM     11  O   LIG    1        1.060  -0.596  -0.011  0.00  0.00    -0.540 OA
ENDBRANCH   1   9
BRANCH   3  12
ATOM     12  O   LIG    1       -4.825  -2.800   0.279  0.00  0.00    -0.550 OA
ATOM     13  H   LIG    1       -5.617  -2.559  -0.221  0.00  0.00    +0.380 HD
ENDBRANCH   3  12
BRANCH   2  14
ATOM     14  O   LIG    1       -2.583  -2.170   1.940  0.00  0.00    -0.550 OA
ATOM     15  H   LIG    1       -3.385  -2.467   2.391  0.00  0.00    +0.390 HD
ENDBRANCH   2  14
BRANCH   6  16
ATOM     16  O   LIG    1       -0.947  -4.088  -1.444  0.00  0.00    -0.570 OA
ATOM     17  H   LIG    1       -0.874  -4.476  -2.326  0.00  0.00    +0.390 HD
ENDBRANCH   6  16
BRANCH   4  18
ATOM     18  C   LIG    1       -4.555  -2.258  -2.564  0.00  0.00    +0.200 C 
BRANCH  18  19
ATOM     19  O   LIG    1       -4.422  -2.819  -3.871  0.00  0.00    -0.560 OA
ATOM     20  H   LIG    1       -5.118  -2.551  -4.487  0.00  0.00    +0.380 HD
ENDBRANCH  18  19
ENDBRANCH   4  18
TORSDOF 6
ENDMDL
MODEL      569
REMARK  Name = ZINC000071821470
REMARK                            x       y       z     vdW  Elec       q    Type
REMARK                         _______ _______ _______ _____ _____    ______ ____
ROOT
ATOM      1  C   LIG    1       -4.152  -4.558   0.017  0.00  0.00    +0.320 C 
ENDROOT
BRANCH   1   4
ATOM      2  N   LIG    1       -2.510  -2.708   0.011  0.00  0.00    -0.710 N 
ATOM      3  H   LIG    1       -3.256  -2.087   0.022  0.00  0.00    +0.420 HD
ATOM      4  C   LIG    1       -2.738  -4.036   0.006  0.00  0.00    +0.510 C 
ATOM      5  O   LIG    1       -1.806  -4.811  -0.006  0.00  0.00    -0.530 OA
BRANCH   2   6
ATOM      6  C   LIG    1       -1.135  -2.201   0.001  0.00  0.00    +0.300 C 
BRANCH   6  10
ATOM      7  C   LIG    1       -0.018   1.461   0.010  0.00  0.00    +0.290 C 
ATOM      8  N   LIG    1        0.002  -0.004   0.002  0.00  0.00    -0.730 N 
ATOM      9  H   LIG    1        0.849  -0.478  -0.009  0.00  0.00    +0.410 HD
ATOM     10  C   LIG    1       -1.156  -0.694   0.009  0.00  0.00    +0.510 C 
ATOM     11  O   LIG    1       -2.214  -0.102   0.023  0.00  0.00    -0.530 OA
ENDBRANCH   6  10
ENDBRANCH   2   6
ENDBRANCH   1   4
BRANCH   1  12
ATOM     12  N   LIG    1       -4.132  -6.022   0.009  0.00  0.00    -0.710 N 
ATOM     13  H   LIG    1       -3.285  -6.496  -0.002  0.00  0.00    +0.420 HD
ATOM     14  C   LIG    1       -5.290  -6.712   0.017  0.00  0.00    +0.510 C 
ATOM     15  O   LIG    1       -6.348  -6.120   0.030  0.00  0.00    -0.540 OA
BRANCH  14  16
ATOM     16  C   LIG    1       -5.269  -8.219   0.008  0.00  0.00    +0.300 C 
BRANCH  16  17
ATOM     17  N   LIG    1       -6.644  -8.726   0.019  0.00  0.00    -0.720 N 
ATOM     18  H   LIG    1       -7.390  -8.106   0.029  0.00  0.00    +0.410 HD
ATOM     19  C   LIG    1       -6.872 -10.054   0.014  0.00  0.00    +0.510 C 
ATOM     20  O   LIG    1       -5.940 -10.830   0.001  0.00  0.00    -0.550 OA
ATOM     21  C   LIG    1       -8.286 -10.576   0.024  0.00  0.00    +0.110 C 
ENDBRANCH  16  17
ENDBRANCH  14  16
ENDBRANCH   1  12
TORSDOF 6
ENDMDL
MODEL      570
REMARK  Name = ZINC000047470448
REMARK                            x       y       z     vdW  Elec       q    Type
REMARK                         _______ _______ _______ _____ _____    ______ ____
ROOT
ATOM      1  N   LIG    1        1.291  -2.644  -2.232  0.00  0.00    -0.710 N 
ATOM      2  H   LIG    1        1.645  -2.005  -2.870  0.00  0.00    +0.420 HD
ATOM      3  C   LIG    1        1.430  -3.966  -2.453  0.00  0.00    +0.520 C 
ATOM      4  O   LIG    1        0.988  -4.764  -1.655  0.00  0.00    -0.540 OA
ENDROOT
BRANCH   1   5
ATOM      5  C   LIG    1        0.606  -2.171  -1.026  0.00  0.00    +0.300 C 
BRANCH   5   9
ATOM      6  C   LIG    1       -0.018   1.461   0.010  0.00  0.00    +0.290 C 
ATOM      7  N   LIG    1        0.002  -0.004   0.002  0.00  0.00    -0.730 N 
ATOM      8  H   LIG    1       -0.404  -0.499   0.731  0.00  0.00    +0.410 HD
ATOM      9  C   LIG    1        0.585  -0.664  -1.018  0.00  0.00    +0.510 C 
ATOM     10  O   LIG    1        1.093  -0.046  -1.929  0.00  0.00    -0.530 OA
ENDBRANCH   5   9
ENDBRANCH   1   5
BRANCH   3  11
ATOM     11  C   LIG    1        2.136  -4.452  -3.693  0.00  0.00    +0.300 C 
BRANCH  11  12
ATOM     12  N   LIG    1        2.155  -5.917  -3.701  0.00  0.00    -0.720 N 
ATOM     13  H   LIG    1        1.749  -6.411  -2.973  0.00  0.00    +0.410 HD
ATOM     14  C   LIG    1        2.739  -6.577  -4.721  0.00  0.00    +0.550 C 
ATOM     15  O   LIG    1        3.247  -5.959  -5.632  0.00  0.00    -0.540 OA
BRANCH  14  16
ATOM     16  C   LIG    1        2.759  -8.084  -4.729  0.00  0.00    -0.070 C 
ATOM     17  C   LIG    1        1.911  -8.796  -5.786  0.00  0.00    +0.060 C 
ATOM     18  C   LIG    1        3.436  -8.775  -5.915  0.00  0.00    +0.070 C 
ENDBRANCH  14  16
ENDBRANCH  11  12
ENDBRANCH   3  11
TORSDOF 5
ENDMDL
MODEL      571
REMARK  Name = ZINC000106381248
REMARK                            x       y       z     vdW  Elec       q    Type
REMARK                         _______ _______ _______ _____ _____    ______ ____
ROOT
ATOM      1  C   LIG    1       -0.018   1.503   0.010  0.00  0.00    +0.130 C 
ATOM      2  C   LIG    1        0.002  -0.004   0.002  0.00  0.00    -0.240 A 
ATOM      3  C   LIG    1       -1.147  -0.711   0.004  0.00  0.00    +0.330 A 
ATOM      4  N   LIG    1       -1.100  -2.077  -0.005  0.00  0.00    -0.530 N 
ATOM      5  C   LIG    1        0.084  -2.734  -0.010  0.00  0.00    +0.590 A 
ATOM      6  O   LIG    1       -0.067  -4.076  -0.009  0.00  0.00    -0.240 OA
ATOM      7  C   LIG    1       -1.476  -4.422   0.015  0.00  0.00    +0.220 C 
ATOM      8  C   LIG    1       -1.866  -5.101  -1.319  0.00  0.00    +0.180 C 
ATOM      9  C   LIG    1       -3.159  -4.340  -1.706  0.00  0.00    +0.160 C 
ATOM     10  O   LIG    1       -2.888  -2.984  -1.292  0.00  0.00    -0.350 OA
ATOM     11  N   LIG    1        1.220  -2.050  -0.012  0.00  0.00    -0.580 NA
ATOM     12  C   LIG    1       -2.201  -3.055  -0.013  0.00  0.00    +0.400 C 
ATOM     13  C   LIG    1        1.230  -0.714  -0.013  0.00  0.00    +0.530 A 
ATOM     14  O   LIG    1        2.290  -0.107  -0.018  0.00  0.00    -0.500 OA
ENDROOT
BRANCH   8  15
ATOM     15  O   LIG    1       -0.846  -4.915  -2.303  0.00  0.00    -0.530 OA
ATOM     16  H   LIG    1       -1.045  -5.322  -3.157  0.00  0.00    +0.390 HD
ENDBRANCH   8  15
BRANCH   9  17
ATOM     17  C   LIG    1       -3.393  -4.408  -3.216  0.00  0.00    +0.220 C 
BRANCH  17  18
ATOM     18  O   LIG    1       -4.648  -3.801  -3.532  0.00  0.00    -0.560 OA
ATOM     19  H   LIG    1       -4.862  -3.808  -4.475  0.00  0.00    +0.390 HD
ENDBRANCH  17  18
ENDBRANCH   9  17
TORSDOF 3
ENDMDL
MODEL      572
REMARK  Name = ZINC000020387139
REMARK                            x       y       z     vdW  Elec       q    Type
REMARK                         _______ _______ _______ _____ _____    ______ ____
ROOT
ATOM      1  N   LIG    1       -1.857  -1.094  -1.568  0.00  0.00    -1.130 NA
ATOM      2  H   LIG    1       -2.664  -0.685  -1.916  0.00  0.00    +0.420 HD
ENDROOT
BRANCH   1   3
ATOM      3  S   LIG    1       -1.421  -0.852   0.011  0.00  0.00    +2.790 S 
ATOM      4  O   LIG    1       -2.400   0.014   0.570  0.00  0.00    -0.970 OA
ATOM      5  O   LIG    1       -1.121  -2.133   0.546  0.00  0.00    -0.970 OA
BRANCH   3   7
ATOM      6  C   LIG    1       -0.018   1.461   0.010  0.00  0.00    +0.300 C 
ATOM      7  N   LIG    1        0.002  -0.004   0.002  0.00  0.00    -1.020 NA
ATOM      8  C   LIG    1        1.281  -0.719  -0.014  0.00  0.00    +0.290 C 
ENDBRANCH   3   7
ENDBRANCH   1   3
BRANCH   1   9
ATOM      9  C   LIG    1       -1.023  -1.926  -2.439  0.00  0.00    +0.270 C 
BRANCH   9  10
ATOM     10  C   LIG    1       -1.810  -2.296  -3.697  0.00  0.00    +0.180 C 
BRANCH  10  11
ATOM     11  N   LIG    1       -0.974  -3.130  -4.571  0.00  0.00    -0.530 NA
ATOM     12  C   LIG    1        0.374  -2.561  -4.710  0.00  0.00    +0.150 C 
ATOM     13  C   LIG    1        1.228  -3.491  -5.576  0.00  0.00    +0.220 C 
ATOM     14  O   LIG    1        0.586  -3.677  -6.841  0.00  0.00    -0.380 OA
ATOM     15  C   LIG    1       -0.729  -4.231  -6.743  0.00  0.00    +0.220 C 
ATOM     16  C   LIG    1       -1.602  -3.309  -5.888  0.00  0.00    +0.160 C 
ENDBRANCH  10  11
ENDBRANCH   9  10
ENDBRANCH   1   9
TORSDOF 5
ENDMDL
MODEL      573
REMARK  Name = ZINC000023040211
REMARK                            x       y       z     vdW  Elec       q    Type
REMARK                         _______ _______ _______ _____ _____    ______ ____
ROOT
ATOM      1  N   LIG    1       -2.508  -2.708   0.028  0.00  0.00    -0.710 N 
ATOM      2  H   LIG    1       -3.253  -2.087   0.049  0.00  0.00    +0.430 HD
ATOM      3  C   LIG    1       -2.738  -4.036   0.006  0.00  0.00    +0.580 C 
ATOM      4  O   LIG    1       -1.809  -4.812  -0.114  0.00  0.00    -0.550 OA
ENDROOT
BRANCH   3   5
ATOM      5  C   LIG    1       -4.112  -4.546   0.128  0.00  0.00    -0.280 A 
ATOM      6  C   LIG    1       -4.354  -5.915   0.229  0.00  0.00    +0.220 A 
ATOM      7  C   LIG    1       -5.670  -6.362   0.342  0.00  0.00    -0.080 A 
ATOM      8  C   LIG    1       -6.694  -5.470   0.354  0.00  0.00    +0.340 A 
ATOM      9  N   LIG    1       -6.466  -4.139   0.256  0.00  0.00    -0.600 N 
ATOM     10  H   LIG    1       -7.217  -3.525   0.266  0.00  0.00    +0.420 HD
ATOM     11  C   LIG    1       -5.215  -3.654   0.151  0.00  0.00    +0.530 A 
ATOM     12  O   LIG    1       -5.030  -2.452   0.064  0.00  0.00    -0.530 OA
ENDBRANCH   3   5
BRANCH   1  13
ATOM     13  C   LIG    1       -1.133  -2.203   0.020  0.00  0.00    +0.300 C 
BRANCH  13  17
ATOM     14  C   LIG    1       -0.011   1.457   0.074  0.00  0.00    +0.290 C 
ATOM     15  N   LIG    1        0.007  -0.008   0.047  0.00  0.00    -0.730 N 
ATOM     16  H   LIG    1        0.853  -0.482   0.027  0.00  0.00    +0.410 HD
ATOM     17  C   LIG    1       -1.152  -0.696   0.049  0.00  0.00    +0.500 C 
ATOM     18  O   LIG    1       -2.209  -0.103   0.073  0.00  0.00    -0.530 OA
ENDBRANCH  13  17
ENDBRANCH   1  13
TORSDOF 3
ENDMDL
MODEL      574
REMARK  Name = ZINC000023040202
REMARK                            x       y       z     vdW  Elec       q    Type
REMARK                         _______ _______ _______ _____ _____    ______ ____
ROOT
ATOM      1  N   LIG    1       -2.510  -2.708   0.011  0.00  0.00    -0.700 N 
ATOM      2  H   LIG    1       -3.256  -2.087   0.022  0.00  0.00    +0.420 HD
ATOM      3  C   LIG    1       -2.738  -4.036   0.006  0.00  0.00    +0.590 C 
ATOM      4  O   LIG    1       -1.804  -4.813  -0.007  0.00  0.00    -0.520 OA
ENDROOT
BRANCH   3   5
ATOM      5  C   LIG    1       -4.125  -4.548   0.017  0.00  0.00    +0.020 A 
ATOM      6  N   LIG    1       -5.134  -3.706   0.026  0.00  0.00    -0.170 NA
ATOM      7  N   LIG    1       -6.356  -4.100   0.035  0.00  0.00    -0.430 N 
ATOM      8  H   LIG    1       -7.065  -3.438   0.042  0.00  0.00    +0.450 HD
ATOM      9  C   LIG    1       -6.680  -5.406   0.036  0.00  0.00    +0.480 A 
ATOM     10  C   LIG    1       -5.655  -6.378   0.027  0.00  0.00    -0.010 A 
ATOM     11  O   LIG    1       -7.851  -5.749   0.045  0.00  0.00    -0.520 OA
ATOM     12  C   LIG    1       -4.363  -5.944   0.012  0.00  0.00    +0.140 A 
ENDBRANCH   3   5
BRANCH   1  13
ATOM     13  C   LIG    1       -1.135  -2.201   0.001  0.00  0.00    +0.320 C 
BRANCH  13  17
ATOM     14  C   LIG    1       -0.018   1.461   0.010  0.00  0.00    +0.290 C 
ATOM     15  N   LIG    1        0.002  -0.004   0.002  0.00  0.00    -0.730 N 
ATOM     16  H   LIG    1        0.849  -0.478  -0.009  0.00  0.00    +0.410 HD
ATOM     17  C   LIG    1       -1.156  -0.694   0.009  0.00  0.00    +0.510 C 
ATOM     18  O   LIG    1       -2.214  -0.102   0.023  0.00  0.00    -0.530 OA
ENDBRANCH  13  17
ENDBRANCH   1  13
TORSDOF 3
ENDMDL
MODEL      575
REMARK  Name = ZINC000004336384
REMARK                            x       y       z     vdW  Elec       q    Type
REMARK                         _______ _______ _______ _____ _____    ______ ____
ROOT
ATOM      1  C   LIG    1       -3.477  -0.967   0.030  0.00  0.00    +0.290 C 
ATOM      2  O   LIG    1       -3.856  -1.264  -1.315  0.00  0.00    -0.350 OA
ATOM      3  C   LIG    1       -4.935  -2.195  -1.425  0.00  0.00    +0.220 C 
ATOM      4  C   LIG    1       -6.179  -1.614  -0.748  0.00  0.00    +0.120 C 
ATOM      5  C   LIG    1       -5.854  -1.298   0.715  0.00  0.00    +0.210 C 
ATOM      6  C   LIG    1       -4.662  -0.337   0.766  0.00  0.00    +0.180 C 
ENDROOT
BRANCH   1   7
ATOM      7  N   LIG    1       -2.348  -0.027   0.024  0.00  0.00    -0.450 NA
ATOM      8  H   LIG    1       -2.399   0.605   0.810  0.00  0.00    +0.350 HD
BRANCH   7   9
ATOM      9  N   LIG    1       -1.156  -0.694   0.009  0.00  0.00    -0.520 N 
ATOM     10  H   LIG    1       -1.143  -1.664   0.004  0.00  0.00    +0.430 HD
BRANCH   9  11
ATOM     11  C   LIG    1        0.002  -0.004   0.002  0.00  0.00    +0.590 C 
ATOM     12  S   LIG    1        1.496  -0.840  -0.017  0.00  0.00    -0.620 S 
BRANCH  11  13
ATOM     13  N   LIG    1       -0.016   1.344   0.009  0.00  0.00    -0.790 N 
ATOM     14  H   LIG    1       -0.863   1.817   0.016  0.00  0.00    +0.400 HD
ATOM     15  H   LIG    1        0.817   1.840   0.004  0.00  0.00    +0.430 HD
ENDBRANCH  11  13
ENDBRANCH   9  11
ENDBRANCH   7   9
ENDBRANCH   1   7
BRANCH   5  16
ATOM     16  O   LIG    1       -6.988  -0.689   1.336  0.00  0.00    -0.540 OA
ATOM     17  H   LIG    1       -7.782  -1.241   1.334  0.00  0.00    +0.380 HD
ENDBRANCH   5  16
BRANCH   4  18
ATOM     18  O   LIG    1       -6.574  -0.416  -1.420  0.00  0.00    -0.540 OA
ATOM     19  H   LIG    1       -6.790  -0.542  -2.354  0.00  0.00    +0.380 HD
ENDBRANCH   4  18
BRANCH   6  20
ATOM     20  O   LIG    1       -4.305  -0.090   2.127  0.00  0.00    -0.540 OA
ATOM     21  H   LIG    1       -3.555   0.511   2.235  0.00  0.00    +0.370 HD
ENDBRANCH   6  20
TORSDOF 7
ENDMDL
MODEL      576
REMARK  Name = ZINC000004228290
REMARK                            x       y       z     vdW  Elec       q    Type
REMARK                         _______ _______ _______ _____ _____    ______ ____
ROOT
ATOM      1  C   LIG    1       -1.136  -2.159   0.001  0.00  0.00    +0.260 C 
ATOM      2  C   LIG    1       -1.020  -2.661  -1.440  0.00  0.00    +0.320 C 
ATOM      3  O   LIG    1       -2.166  -2.240  -2.183  0.00  0.00    -0.390 OA
ATOM      4  C   LIG    1       -3.405  -2.747  -1.682  0.00  0.00    +0.150 C 
ATOM      5  C   LIG    1       -3.616  -2.248  -0.250  0.00  0.00    +0.120 C 
ATOM      6  C   LIG    1       -2.433  -2.692   0.618  0.00  0.00    +0.190 C 
ENDROOT
BRANCH   1   9
ATOM      7  C   LIG    1       -0.018   1.503   0.010  0.00  0.00    +0.100 C 
ATOM      8  C   LIG    1        0.002  -0.004   0.002  0.00  0.00    +0.520 C 
ATOM      9  N   LIG    1       -1.156  -0.694   0.009  0.00  0.00    -0.710 N 
ATOM     10  H   LIG    1       -2.002  -0.220   0.020  0.00  0.00    +0.400 HD
ATOM     11  O   LIG    1        1.060  -0.596  -0.011  0.00  0.00    -0.530 OA
ENDBRANCH   1   9
BRANCH   5  12
ATOM     12  O   LIG    1       -4.826  -2.800   0.274  0.00  0.00    -0.550 OA
ATOM     13  H   LIG    1       -5.617  -2.562  -0.230  0.00  0.00    +0.390 HD
ENDBRANCH   5  12
BRANCH   2  14
ATOM     14  O   LIG    1        0.160  -2.122  -2.039  0.00  0.00    -0.520 OA
ATOM     15  H   LIG    1        0.298  -2.399  -2.955  0.00  0.00    +0.390 HD
ENDBRANCH   2  14
BRANCH   6  16
ATOM     16  O   LIG    1       -2.587  -2.170   1.939  0.00  0.00    -0.550 OA
ATOM     17  H   LIG    1       -3.393  -2.462   2.386  0.00  0.00    +0.390 HD
ENDBRANCH   6  16
BRANCH   4  18
ATOM     18  C   LIG    1       -4.552  -2.258  -2.568  0.00  0.00    +0.200 C 
BRANCH  18  19
ATOM     19  O   LIG    1       -4.417  -2.818  -3.875  0.00  0.00    -0.560 OA
ATOM     20  H   LIG    1       -5.112  -2.550  -4.492  0.00  0.00    +0.390 HD
ENDBRANCH  18  19
ENDBRANCH   4  18
TORSDOF 6
ENDMDL
MODEL      577
REMARK  Name = ZINC000032918976
REMARK                            x       y       z     vdW  Elec       q    Type
REMARK                         _______ _______ _______ _____ _____    ______ ____
ROOT
ATOM      1  C   LIG    1       -1.293  -0.775   0.010  0.00  0.00    +0.290 C 
ENDROOT
BRANCH   1   5
ATOM      2  N   LIG    1       -0.016   1.344   0.009  0.00  0.00    -0.840 N 
ATOM      3  H   LIG    1       -0.863   1.817   0.016  0.00  0.00    +0.400 HD
ATOM      4  H   LIG    1        0.817   1.840   0.004  0.00  0.00    +0.420 HD
ATOM      5  C   LIG    1        0.002  -0.004   0.002  0.00  0.00    +0.530 C 
ATOM      6  O   LIG    1        1.060  -0.596  -0.011  0.00  0.00    -0.510 OA
ENDBRANCH   1   5
BRANCH   1   7
ATOM      7  N   LIG    1       -1.005  -2.212  -0.000  0.00  0.00    -0.690 N 
ATOM      8  H   LIG    1       -0.167  -2.536  -0.365  0.00  0.00    +0.420 HD
ATOM      9  C   LIG    1       -1.906  -3.083   0.497  0.00  0.00    +0.580 C 
ATOM     10  O   LIG    1       -2.956  -2.676   0.954  0.00  0.00    -0.520 OA
BRANCH   9  11
ATOM     11  C   LIG    1       -1.615  -4.535   0.486  0.00  0.00    -0.080 A 
ATOM     12  C   LIG    1       -0.411  -5.024  -0.029  0.00  0.00    +0.000 A 
ATOM     13  C   LIG    1       -0.181  -6.386  -0.019  0.00  0.00    +0.260 A 
ATOM     14  N   LIG    1       -1.079  -7.220   0.467  0.00  0.00    -0.470 NA
ATOM     15  C   LIG    1       -2.226  -6.802   0.962  0.00  0.00    +0.270 A 
ATOM     16  C   LIG    1       -2.536  -5.456   0.997  0.00  0.00    +0.040 A 
ENDBRANCH   9  11
ENDBRANCH   1   7
BRANCH   1  17
ATOM     17  C   LIG    1       -2.099  -0.415  -1.211  0.00  0.00    +0.250 C 
ATOM     18  S   LIG    1       -2.400  -1.522  -2.325  0.00  0.00    -0.380 S 
BRANCH  17  19
ATOM     19  N   LIG    1       -2.568   0.839  -1.363  0.00  0.00    -0.780 N 
ATOM     20  H   LIG    1       -3.087   1.071  -2.149  0.00  0.00    +0.430 HD
ATOM     21  H   LIG    1       -2.386   1.510  -0.687  0.00  0.00    +0.390 HD
ENDBRANCH  17  19
ENDBRANCH   1  17
TORSDOF 5
ENDMDL
MODEL      578
REMARK  Name = ZINC000001648299
REMARK                            x       y       z     vdW  Elec       q    Type
REMARK                         _______ _______ _______ _____ _____    ______ ____
ROOT
ATOM      1  C   LIG    1        1.479  -2.361  -2.569  0.00  0.00    +0.250 C 
ENDROOT
BRANCH   1   2
ATOM      2  C   LIG    1        0.786  -1.801  -1.353  0.00  0.00    +0.450 C 
ATOM      3  O   LIG    1        0.325  -2.548  -0.523  0.00  0.00    -0.490 OA
BRANCH   2   4
ATOM      4  O   LIG    1        0.682  -0.472  -1.193  0.00  0.00    -0.350 OA
BRANCH   4   6
ATOM      5  C   LIG    1       -0.019   1.526   0.010  0.00  0.00    +0.070 C 
ATOM      6  C   LIG    1        0.002  -0.004   0.002  0.00  0.00    +0.200 C 
ENDBRANCH   4   6
ENDBRANCH   2   4
ENDBRANCH   1   2
BRANCH   1   7
ATOM      7  O   LIG    1        1.360  -3.785  -2.571  0.00  0.00    -0.520 OA
ATOM      8  H   LIG    1        1.751  -4.213  -1.797  0.00  0.00    +0.390 HD
ENDBRANCH   1   7
BRANCH   1   9
ATOM      9  C   LIG    1        2.958  -1.972  -2.537  0.00  0.00    +0.250 C 
BRANCH   9  10
ATOM     10  C   LIG    1        3.676  -2.634  -3.686  0.00  0.00    +0.450 C 
ATOM     11  O   LIG    1        4.528  -3.462  -3.469  0.00  0.00    -0.490 OA
BRANCH  10  12
ATOM     12  O   LIG    1        3.368  -2.302  -4.949  0.00  0.00    -0.350 OA
BRANCH  12  13
ATOM     13  C   LIG    1        4.100  -2.979  -6.005  0.00  0.00    +0.200 C 
ATOM     14  C   LIG    1        3.615  -2.474  -7.366  0.00  0.00    +0.070 C 
ENDBRANCH  12  13
ENDBRANCH  10  12
ENDBRANCH   9  10
BRANCH   9  15
ATOM     15  O   LIG    1        3.537  -2.402  -1.303  0.00  0.00    -0.520 OA
ATOM     16  H   LIG    1        3.490  -3.357  -1.158  0.00  0.00    +0.390 HD
ENDBRANCH   9  15
ENDBRANCH   1   9
TORSDOF 9
ENDMDL
MODEL      579
REMARK  Name = ZINC000034781452
REMARK                            x       y       z     vdW  Elec       q    Type
REMARK                         _______ _______ _______ _____ _____    ______ ____
ROOT
ATOM      1  N   LIG    1        1.356  -2.504  -2.349  0.00  0.00    -0.660 NA
ATOM      2  H   LIG    1        0.914  -2.103  -3.162  0.00  0.00    +0.360 HD
ENDROOT
BRANCH   1   3
ATOM      3  C   LIG    1        1.433  -3.967  -2.458  0.00  0.00    +0.210 C 
ATOM      4  C   LIG    1        0.153  -4.504  -3.122  0.00  0.00    +0.030 C 
ATOM      5  C   LIG    1        0.438  -5.979  -3.504  0.00  0.00    -0.310 C 
ATOM      6  S   LIG    1        2.138  -5.895  -4.182  0.00  0.00    +2.390 S 
ATOM      7  O   LIG    1        2.076  -5.660  -5.582  0.00  0.00    -0.930 OA
ATOM      8  O   LIG    1        2.900  -6.985  -3.681  0.00  0.00    -0.930 OA
ATOM      9  C   LIG    1        2.642  -4.359  -3.330  0.00  0.00    -0.290 C 
ENDBRANCH   1   3
BRANCH   1  10
ATOM     10  C   LIG    1        0.657  -2.104  -1.120  0.00  0.00    +0.260 C 
BRANCH  10  11
ATOM     11  C   LIG    1        0.598  -0.600  -1.043  0.00  0.00    +0.460 C 
ATOM     12  O   LIG    1        1.088   0.070  -1.921  0.00  0.00    -0.490 OA
BRANCH  11  14
ATOM     13  C   LIG    1       -0.018   1.448   0.010  0.00  0.00    +0.270 C 
ATOM     14  O   LIG    1        0.002  -0.004   0.002  0.00  0.00    -0.360 OA
ENDBRANCH  11  14
ENDBRANCH  10  11
ENDBRANCH   1  10
TORSDOF 4
ENDMDL
MODEL      580
REMARK  Name = ZINC000034924897
REMARK                            x       y       z     vdW  Elec       q    Type
REMARK                         _______ _______ _______ _____ _____    ______ ____
ROOT
ATOM      1  C   LIG    1        0.814  -0.502   1.170  0.00  0.00    +0.180 A 
ATOM      2  N   LIG    1        2.093  -0.735   1.173  0.00  0.00    -0.360 NA
ATOM      3  O   LIG    1        2.449  -1.127   2.264  0.00  0.00    +0.100 OA
ATOM      4  C   LIG    1        1.394  -1.183   3.090  0.00  0.00    +0.140 A 
ATOM      5  N   LIG    1        0.348  -0.779   2.397  0.00  0.00    -0.400 NA
ENDROOT
BRANCH   4   6
ATOM      6  C   LIG    1        1.403  -1.610   4.510  0.00  0.00    +0.630 C 
ATOM      7  N   LIG    1        2.557  -1.995   5.090  0.00  0.00    -0.600 N 
ATOM      8  C   LIG    1        3.873  -2.032   4.438  0.00  0.00    +0.260 C 
ATOM      9  C   LIG    1        4.894  -2.508   5.493  0.00  0.00    +0.070 C 
ATOM     10  C   LIG    1        4.191  -2.169   6.834  0.00  0.00    +0.170 C 
ATOM     11  C   LIG    1        2.708  -2.441   6.487  0.00  0.00    +0.260 C 
ATOM     12  O   LIG    1        0.370  -1.614   5.150  0.00  0.00    -0.470 OA
BRANCH  10  13
ATOM     13  O   LIG    1        4.642  -3.032   7.880  0.00  0.00    -0.550 OA
ATOM     14  H   LIG    1        4.231  -2.858   8.738  0.00  0.00    +0.390 HD
ENDBRANCH  10  13
ENDBRANCH   4   6
BRANCH   1  15
ATOM     15  C   LIG    1        0.002  -0.004   0.002  0.00  0.00    +0.320 C 
BRANCH  15  16
ATOM     16  N   LIG    1       -0.018   1.465   0.010  0.00  0.00    -0.840 NA
ATOM     17  H   LIG    1       -0.556   1.823  -0.764  0.00  0.00    +0.360 HD
ATOM     18  H   LIG    1        0.919   1.839   0.003  0.00  0.00    +0.350 HD
ENDBRANCH  15  16
ENDBRANCH   1  15
TORSDOF 4
ENDMDL
MODEL      581
REMARK  Name = ZINC000000085752
REMARK                            x       y       z     vdW  Elec       q    Type
REMARK                         _______ _______ _______ _____ _____    ______ ____
ROOT
ATOM      1  C   LIG    1       -0.009   1.465   0.010  0.00  0.00    +0.350 C 
ATOM      2  N   LIG    1        0.008   0.000  -0.000  0.00  0.00    -0.640 N 
ATOM      3  C   LIG    1       -0.079  -0.792  -1.086  0.00  0.00    +0.710 C 
ATOM      4  N   LIG    1        0.156  -2.090  -0.821  0.00  0.00    -0.620 N 
ATOM      5  C   LIG    1        0.679  -2.180   0.568  0.00  0.00    +0.370 C 
ATOM      6  N   LIG    1        2.143  -2.130   0.468  0.00  0.00    -0.480 NA
ATOM      7  H   LIG    1        2.513  -3.008   0.135  0.00  0.00    +0.380 HD
ATOM      8  N   LIG    1        2.757  -1.749   1.615  0.00  0.00    -0.500 N 
ATOM      9  H   LIG    1        3.589  -2.177   1.871  0.00  0.00    +0.440 HD
ATOM     10  C   LIG    1        2.244  -0.793   2.405  0.00  0.00    +0.570 C 
ATOM     11  N   LIG    1        1.000  -0.331   2.196  0.00  0.00    -0.560 N 
ATOM     12  C   LIG    1        0.497   0.754   3.043  0.00  0.00    +0.340 C 
ATOM     13  S   LIG    1        3.182  -0.157   3.688  0.00  0.00    -0.600 S 
ATOM     14  C   LIG    1       -0.064  -3.212  -1.736  0.00  0.00    +0.340 C 
ATOM     15  O   LIG    1       -0.343  -0.376  -2.197  0.00  0.00    -0.560 OA
ATOM     16  C   LIG    1        0.130  -0.877   1.171  0.00  0.00    +0.460 C 
ENDROOT
TORSDOF 0
ENDMDL
MODEL      582
REMARK  Name = ZINC000000085756
REMARK                            x       y       z     vdW  Elec       q    Type
REMARK                         _______ _______ _______ _____ _____    ______ ____
ROOT
ATOM      1  C   LIG    1        0.431   1.452  -0.172  0.00  0.00    +0.350 C 
ATOM      2  N   LIG    1        0.410  -0.012  -0.155  0.00  0.00    -0.620 N 
ATOM      3  C   LIG    1        0.537  -0.847  -1.223  0.00  0.00    +0.710 C 
ATOM      4  N   LIG    1        0.757  -2.140  -0.859  0.00  0.00    -0.630 N 
ATOM      5  C   LIG    1        1.090  -2.106   0.554  0.00  0.00    +0.390 C 
ATOM      6  N   LIG    1        0.689  -3.193   1.425  0.00  0.00    -0.570 N 
ATOM      7  C   LIG    1        0.491  -4.569   0.964  0.00  0.00    +0.360 C 
ATOM      8  C   LIG    1        0.495  -2.813   2.736  0.00  0.00    +0.540 C 
ATOM      9  S   LIG    1        0.069  -4.014   3.880  0.00  0.00    -0.580 S 
ATOM     10  N   LIG    1        0.631  -1.543   3.153  0.00  0.00    -0.510 N 
ATOM     11  H   LIG    1        0.628  -1.369   4.107  0.00  0.00    +0.460 HD
ATOM     12  N   LIG    1        0.777  -0.475   2.294  0.00  0.00    -0.420 NA
ATOM     13  H   LIG    1        1.744  -0.197   2.223  0.00  0.00    +0.360 HD
ATOM     14  C   LIG    1        0.676  -3.324  -1.718  0.00  0.00    +0.340 C 
ATOM     15  O   LIG    1        0.462  -0.477  -2.379  0.00  0.00    -0.530 OA
ATOM     16  C   LIG    1        0.256  -0.872   1.003  0.00  0.00    +0.380 C 
ENDROOT
TORSDOF 0
ENDMDL
MODEL      583
REMARK  Name = ZINC000000085749
REMARK                            x       y       z     vdW  Elec       q    Type
REMARK                         _______ _______ _______ _____ _____    ______ ____
ROOT
ATOM      1  C   LIG    1       -0.301   1.468  -0.076  0.00  0.00    +0.340 C 
ATOM      2  N   LIG    1       -0.129   0.014  -0.058  0.00  0.00    -0.620 N 
ATOM      3  C   LIG    1       -0.189  -0.834  -1.121  0.00  0.00    +0.720 C 
ATOM      4  N   LIG    1       -0.267  -2.141  -0.751  0.00  0.00    -0.640 N 
ATOM      5  C   LIG    1       -0.574  -2.136   0.669  0.00  0.00    +0.450 C 
ATOM      6  N   LIG    1       -0.045  -3.173   1.533  0.00  0.00    -0.570 N 
ATOM      7  C   LIG    1        0.277  -4.527   1.075  0.00  0.00    +0.350 C 
ATOM      8  C   LIG    1        0.138  -2.766   2.841  0.00  0.00    +0.560 C 
ATOM      9  S   LIG    1        0.703  -3.914   3.979  0.00  0.00    -0.590 S 
ATOM     10  N   LIG    1       -0.113  -1.513   3.256  0.00  0.00    -0.510 N 
ATOM     11  H   LIG    1       -0.105  -1.334   4.210  0.00  0.00    +0.450 HD
ATOM     12  N   LIG    1       -0.380  -0.469   2.398  0.00  0.00    -0.430 NA
ATOM     13  H   LIG    1        0.029   0.390   2.735  0.00  0.00    +0.370 HD
ATOM     14  C   LIG    1       -0.079  -3.313  -1.609  0.00  0.00    +0.340 C 
ATOM     15  O   LIG    1       -0.175  -0.462  -2.279  0.00  0.00    -0.540 OA
ATOM     16  C   LIG    1        0.149  -0.819   1.097  0.00  0.00    +0.310 C 
ENDROOT
TORSDOF 0
ENDMDL
MODEL      584
REMARK  Name = ZINC000000085754
REMARK                            x       y       z     vdW  Elec       q    Type
REMARK                         _______ _______ _______ _____ _____    ______ ____
ROOT
ATOM      1  C   LIG    1       -0.018   1.461   0.010  0.00  0.00    +0.340 C 
ATOM      2  N   LIG    1        0.002  -0.004   0.002  0.00  0.00    -0.630 N 
ATOM      3  C   LIG    1        0.008  -0.792  -1.088  0.00  0.00    +0.700 C 
ATOM      4  N   LIG    1       -0.189  -2.095  -0.809  0.00  0.00    -0.650 N 
ATOM      5  C   LIG    1       -0.565  -2.185   0.607  0.00  0.00    +0.430 C 
ATOM      6  N   LIG    1       -0.040  -3.362   1.261  0.00  0.00    -0.560 N 
ATOM      7  C   LIG    1       -0.709  -4.638   0.995  0.00  0.00    +0.340 C 
ATOM      8  C   LIG    1        0.977  -3.338   2.112  0.00  0.00    +0.540 C 
ATOM      9  S   LIG    1        1.466  -4.771   2.912  0.00  0.00    -0.600 S 
ATOM     10  N   LIG    1        1.641  -2.193   2.332  0.00  0.00    -0.500 N 
ATOM     11  H   LIG    1        2.289  -2.153   3.053  0.00  0.00    +0.460 HD
ATOM     12  N   LIG    1        1.431  -1.091   1.571  0.00  0.00    -0.470 NA
ATOM     13  H   LIG    1        2.025  -1.095   0.756  0.00  0.00    +0.360 HD
ATOM     14  C   LIG    1       -0.052  -3.214  -1.744  0.00  0.00    +0.330 C 
ATOM     15  O   LIG    1        0.176  -0.369  -2.216  0.00  0.00    -0.550 OA
ATOM     16  C   LIG    1        0.025  -0.887   1.197  0.00  0.00    +0.440 C 
ENDROOT
TORSDOF 0
ENDMDL
MODEL      585
REMARK  Name = ZINC000002310220
REMARK                            x       y       z     vdW  Elec       q    Type
REMARK                         _______ _______ _______ _____ _____    ______ ____
ROOT
ATOM      1  S   LIG    1        2.586   0.246  -1.425  0.00  0.00    +2.620 S 
ATOM      2  O   LIG    1        3.322  -0.523  -0.484  0.00  0.00    -0.910 OA
ATOM      3  O   LIG    1        2.610   1.667  -1.390  0.00  0.00    -0.930 OA
ENDROOT
BRANCH   1   4
ATOM      4  N   LIG    1        3.264  -0.137  -2.886  0.00  0.00    -0.990 NA
ATOM      5  C   LIG    1        3.932  -1.431  -3.095  0.00  0.00    +0.270 C 
ATOM      6  C   LIG    1        3.368  -2.067  -4.370  0.00  0.00    +0.210 C 
ATOM      7  O   LIG    1        3.456  -1.127  -5.444  0.00  0.00    -0.370 OA
ATOM      8  C   LIG    1        2.686   0.061  -5.245  0.00  0.00    +0.210 C 
ATOM      9  C   LIG    1        3.211   0.804  -4.016  0.00  0.00    +0.270 C 
ENDBRANCH   1   4
BRANCH   1  10
ATOM     10  C   LIG    1        0.880  -0.358  -1.545  0.00  0.00    -0.780 C 
BRANCH  10  12
ATOM     11  C   LIG    1       -0.022   1.810   0.012  0.00  0.00    -0.230 C 
ATOM     12  S   LIG    1        0.002  -0.004   0.002  0.00  0.00    +2.430 S 
ATOM     13  O   LIG    1       -1.334  -0.474  -0.117  0.00  0.00    -0.910 OA
ATOM     14  O   LIG    1        0.801  -0.452   1.088  0.00  0.00    -0.910 OA
ENDBRANCH  10  12
ENDBRANCH   1  10
TORSDOF 3
ENDMDL
MODEL      586
REMARK  Name = ZINC000040546430
REMARK                            x       y       z     vdW  Elec       q    Type
REMARK                         _______ _______ _______ _____ _____    ______ ____
ROOT
ATOM      1  N   LIG    1       -2.510  -2.708   0.011  0.00  0.00    -0.550 N 
ATOM      2  C   LIG    1       -3.133  -2.942   1.183  0.00  0.00    +0.710 A 
ATOM      3  N   LIG    1       -4.397  -3.408   1.193  0.00  0.00    -0.560 N 
ATOM      4  C   LIG    1       -5.039  -3.640   0.031  0.00  0.00    +0.700 A 
ATOM      5  N   LIG    1       -4.416  -3.406  -1.141  0.00  0.00    -0.560 N 
ATOM      6  C   LIG    1       -5.114  -3.657  -2.405  0.00  0.00    +0.380 C 
ATOM      7  O   LIG    1       -6.179  -4.060   0.039  0.00  0.00    -0.510 OA
ATOM      8  C   LIG    1       -5.075  -3.662   2.467  0.00  0.00    +0.370 C 
ATOM      9  O   LIG    1       -2.554  -2.733   2.231  0.00  0.00    -0.510 OA
ATOM     10  C   LIG    1       -3.153  -2.935  -1.151  0.00  0.00    +0.710 A 
ATOM     11  O   LIG    1       -2.591  -2.723  -2.208  0.00  0.00    -0.500 OA
ENDROOT
BRANCH   1  12
ATOM     12  C   LIG    1       -1.135  -2.201   0.001  0.00  0.00    +0.380 C 
BRANCH  12  16
ATOM     13  C   LIG    1       -0.018   1.461   0.010  0.00  0.00    +0.290 C 
ATOM     14  N   LIG    1        0.002  -0.004   0.002  0.00  0.00    -0.730 N 
ATOM     15  H   LIG    1        0.849  -0.478  -0.009  0.00  0.00    +0.410 HD
ATOM     16  C   LIG    1       -1.156  -0.694   0.009  0.00  0.00    +0.500 C 
ATOM     17  O   LIG    1       -2.214  -0.102   0.023  0.00  0.00    -0.530 OA
ENDBRANCH  12  16
ENDBRANCH   1  12
TORSDOF 2
ENDMDL
MODEL      587
REMARK  Name = ZINC000000093085
REMARK                            x       y       z     vdW  Elec       q    Type
REMARK                         _______ _______ _______ _____ _____    ______ ____
ROOT
ATOM      1  N   LIG    1       -2.510  -2.708   0.011  0.00  0.00    -0.400 N 
ATOM      2  C   LIG    1       -3.221  -3.074   1.096  0.00  0.00    +0.510 A 
ATOM      3  N   LIG    1       -4.411  -3.476   0.728  0.00  0.00    -0.490 NA
ATOM      4  C   LIG    1       -4.527  -3.391  -0.600  0.00  0.00    +0.320 A 
ATOM      5  N   LIG    1       -5.544  -3.678  -1.495  0.00  0.00    -0.510 N 
ATOM      6  C   LIG    1       -6.822  -4.203  -1.007  0.00  0.00    +0.350 C 
ATOM      7  C   LIG    1       -5.357  -3.485  -2.814  0.00  0.00    +0.710 A 
ATOM      8  O   LIG    1       -6.260  -3.747  -3.586  0.00  0.00    -0.530 OA
ATOM      9  N   LIG    1       -4.199  -3.006  -3.300  0.00  0.00    -0.650 N 
ATOM     10  H   LIG    1       -4.099  -2.876  -4.256  0.00  0.00    +0.440 HD
ATOM     11  C   LIG    1       -3.172  -2.704  -2.478  0.00  0.00    +0.600 A 
ATOM     12  O   LIG    1       -2.128  -2.271  -2.929  0.00  0.00    -0.520 OA
ATOM     13  C   LIG    1       -3.324  -2.895  -1.087  0.00  0.00    -0.140 A 
ENDROOT
BRANCH   1  14
ATOM     14  C   LIG    1       -1.135  -2.201   0.001  0.00  0.00    +0.360 C 
BRANCH  14  18
ATOM     15  C   LIG    1       -0.018   1.461   0.010  0.00  0.00    +0.290 C 
ATOM     16  N   LIG    1        0.002  -0.004   0.002  0.00  0.00    -0.730 N 
ATOM     17  H   LIG    1        0.849  -0.478  -0.009  0.00  0.00    +0.410 HD
ATOM     18  C   LIG    1       -1.156  -0.694   0.009  0.00  0.00    +0.500 C 
ATOM     19  O   LIG    1       -2.214  -0.102   0.023  0.00  0.00    -0.520 OA
ENDBRANCH  14  18
ENDBRANCH   1  14
TORSDOF 2
ENDMDL
MODEL      588
REMARK  Name = ZINC000011151145
REMARK                            x       y       z     vdW  Elec       q    Type
REMARK                         _______ _______ _______ _____ _____    ______ ____
ROOT
ATOM      1  N   LIG    1        1.333  -2.667   2.182  0.00  0.00    -0.530 N 
ATOM      2  C   LIG    1        2.674  -2.869   2.133  0.00  0.00    +0.630 A 
ATOM      3  N   LIG    1        3.365  -3.298   3.149  0.00  0.00    -0.530 NA
ATOM      4  C   LIG    1        2.791  -3.574   4.330  0.00  0.00    +0.330 A 
ATOM      5  C   LIG    1        1.406  -3.395   4.477  0.00  0.00    -0.340 A 
ATOM      6  C   LIG    1        1.076  -3.754   5.797  0.00  0.00    +0.330 A 
ATOM      7  N   LIG    1        2.169  -4.122   6.407  0.00  0.00    -0.270 NA
ATOM      8  N   LIG    1        3.253  -4.022   5.526  0.00  0.00    -0.350 N 
ATOM      9  C   LIG    1        4.647  -4.346   5.841  0.00  0.00    +0.360 C 
ATOM     10  C   LIG    1        0.648  -2.908   3.325  0.00  0.00    +0.580 A 
ATOM     11  O   LIG    1       -0.555  -2.732   3.389  0.00  0.00    -0.510 OA
ENDROOT
BRANCH   1  12
ATOM     12  C   LIG    1        0.625  -2.182   0.995  0.00  0.00    +0.340 C 
BRANCH  12  16
ATOM     13  C   LIG    1       -0.018   1.461   0.010  0.00  0.00    +0.290 C 
ATOM     14  N   LIG    1        0.002  -0.004   0.002  0.00  0.00    -0.730 N 
ATOM     15  H   LIG    1       -0.418  -0.491  -0.724  0.00  0.00    +0.410 HD
ATOM     16  C   LIG    1        0.604  -0.675   1.004  0.00  0.00    +0.500 C 
ATOM     17  O   LIG    1        1.130  -0.067   1.911  0.00  0.00    -0.520 OA
ENDBRANCH  12  16
ENDBRANCH   1  12
TORSDOF 2
ENDMDL
MODEL      589
REMARK  Name = ZINC000012443946
REMARK                            x       y       z     vdW  Elec       q    Type
REMARK                         _______ _______ _______ _____ _____    ______ ____
ROOT
ATOM      1  N   LIG    1       -2.510  -2.708   0.011  0.00  0.00    -0.530 N 
ATOM      2  C   LIG    1       -3.133  -2.942   1.193  0.00  0.00    +0.650 A 
ATOM      3  N   LIG    1       -4.352  -3.392   1.271  0.00  0.00    -0.520 NA
ATOM      4  C   LIG    1       -5.080  -3.657   0.177  0.00  0.00    +0.300 A 
ATOM      5  C   LIG    1       -4.523  -3.446  -1.090  0.00  0.00    -0.150 A 
ATOM      6  N   LIG    1       -5.440  -3.781  -2.009  0.00  0.00    -0.160 NA
ATOM      7  N   LIG    1       -6.519  -4.181  -1.429  0.00  0.00    -0.040 NA
ATOM      8  N   LIG    1       -6.343  -4.122  -0.038  0.00  0.00    -0.350 N 
ATOM      9  C   LIG    1       -7.326  -4.489   0.984  0.00  0.00    +0.380 C 
ATOM     10  C   LIG    1       -3.152  -2.934  -1.157  0.00  0.00    +0.590 A 
ATOM     11  O   LIG    1       -2.607  -2.728  -2.228  0.00  0.00    -0.490 OA
ENDROOT
BRANCH   1  12
ATOM     12  C   LIG    1       -1.135  -2.201   0.001  0.00  0.00    +0.360 C 
BRANCH  12  16
ATOM     13  C   LIG    1       -0.018   1.461   0.010  0.00  0.00    +0.290 C 
ATOM     14  N   LIG    1        0.002  -0.004   0.002  0.00  0.00    -0.730 N 
ATOM     15  H   LIG    1        0.849  -0.478  -0.009  0.00  0.00    +0.410 HD
ATOM     16  C   LIG    1       -1.156  -0.694   0.009  0.00  0.00    +0.500 C 
ATOM     17  O   LIG    1       -2.214  -0.102   0.023  0.00  0.00    -0.520 OA
ENDBRANCH  12  16
ENDBRANCH   1  12
TORSDOF 2
ENDMDL
MODEL      590
REMARK  Name = ZINC000247660907
REMARK                            x       y       z     vdW  Elec       q    Type
REMARK                         _______ _______ _______ _____ _____    ______ ____
ROOT
ATOM      1  C   LIG    1       -1.321  -0.664   0.006  0.00  0.00    +0.040 A 
ATOM      2  C   LIG    1       -1.403  -2.054   0.081  0.00  0.00    +0.300 A 
ATOM      3  N   LIG    1       -2.585  -2.665   0.118  0.00  0.00    -0.040 N 
ATOM      4  C   LIG    1       -3.718  -1.949   0.083  0.00  0.00    +0.060 A 
ATOM      5  C   LIG    1       -4.973  -2.582   0.122  0.00  0.00    +0.090 A 
ATOM      6  C   LIG    1       -6.108  -1.832   0.086  0.00  0.00    +0.080 A 
ATOM      7  C   LIG    1       -6.044  -0.443   0.010  0.00  0.00    +0.060 A 
ATOM      8  C   LIG    1       -4.843   0.201  -0.030  0.00  0.00    +0.100 A 
ATOM      9  C   LIG    1       -3.657  -0.537   0.006  0.00  0.00    +0.080 A 
ATOM     10  O   LIG    1       -2.638  -3.880   0.185  0.00  0.00    -0.390 OA
ATOM     11  N   LIG    1       -2.444   0.083  -0.026  0.00  0.00    -0.070 N 
ATOM     12  O   LIG    1       -2.364   1.494  -0.096  0.00  0.00    -0.470 OA
ENDROOT
BRANCH   1  16
ATOM     13  N   LIG    1        0.561   0.312  -1.218  0.00  0.00    -0.820 N 
ATOM     14  H   LIG    1        0.135   0.039  -2.045  0.00  0.00    +0.410 HD
ATOM     15  H   LIG    1        1.393   0.811  -1.244  0.00  0.00    +0.420 HD
ATOM     16  C   LIG    1        0.002  -0.006  -0.034  0.00  0.00    +0.600 C 
ATOM     17  O   LIG    1        0.586   0.248   1.002  0.00  0.00    -0.500 OA
ENDBRANCH   1  16
BRANCH   2  18
ATOM     18  N   LIG    1       -0.240  -2.809   0.118  0.00  0.00    -0.810 N 
ATOM     19  H   LIG    1       -0.289  -3.778   0.085  0.00  0.00    +0.430 HD
ATOM     20  H   LIG    1        0.622  -2.369   0.177  0.00  0.00    +0.420 HD
ENDBRANCH   2  18
TORSDOF 2
ENDMDL
MODEL      591
REMARK  Name = ZINC000034650928
REMARK                            x       y       z     vdW  Elec       q    Type
REMARK                         _______ _______ _______ _____ _____    ______ ____
ROOT
ATOM      1  O   LIG    1        0.002  -0.004   0.002  0.00  0.00    -0.970 OA
ATOM      2  S   LIG    1       -0.017   1.417   0.010  0.00  0.00    +2.780 S 
ATOM      3  O   LIG    1        1.162   2.210   0.003  0.00  0.00    -0.970 OA
ENDROOT
BRANCH   2   4
ATOM      4  N   LIG    1       -0.900   1.880  -1.312  0.00  0.00    -1.010 NA
ATOM      5  C   LIG    1       -1.893   0.975  -1.912  0.00  0.00    +0.290 C 
ATOM      6  C   LIG    1       -1.621   0.883  -3.417  0.00  0.00    +0.180 C 
ATOM      7  N   LIG    1       -1.589   2.236  -3.989  0.00  0.00    -0.690 NA
ATOM      8  H   LIG    1       -1.529   2.201  -4.996  0.00  0.00    +0.350 HD
ATOM      9  C   LIG    1       -0.488   3.027  -3.424  0.00  0.00    +0.170 C 
ATOM     10  C   LIG    1       -0.717   3.209  -1.915  0.00  0.00    +0.290 C 
ENDBRANCH   2   4
BRANCH   2  11
ATOM     11  N   LIG    1       -0.875   1.865   1.354  0.00  0.00    -1.010 NA
ATOM     12  C   LIG    1       -0.686   3.191   1.965  0.00  0.00    +0.270 C 
ATOM     13  C   LIG    1       -2.064   3.837   2.154  0.00  0.00    +0.220 C 
ATOM     14  O   LIG    1       -2.917   2.929   2.855  0.00  0.00    -0.380 OA
ATOM     15  C   LIG    1       -3.169   1.706   2.159  0.00  0.00    +0.220 C 
ATOM     16  C   LIG    1       -1.852   0.953   1.968  0.00  0.00    +0.270 C 
ENDBRANCH   2  11
TORSDOF 2
ENDMDL
MODEL      592
REMARK  Name = ZINC000035170737
REMARK                            x       y       z     vdW  Elec       q    Type
REMARK                         _______ _______ _______ _____ _____    ______ ____
ROOT
ATOM      1  N   LIG    1        1.398  -2.528   2.296  0.00  0.00    -0.580 N 
ATOM      2  C   LIG    1        2.845  -2.737   2.362  0.00  0.00    +0.330 C 
ATOM      3  C   LIG    1        3.166  -3.157   3.806  0.00  0.00    +0.010 C 
ATOM      4  C   LIG    1        1.821  -3.162   4.502  0.00  0.00    +0.370 C 
ATOM      5  O   LIG    1        1.606  -3.436   5.659  0.00  0.00    -0.340 OA
ATOM      6  C   LIG    1        0.816  -2.756   3.480  0.00  0.00    +0.480 C 
ATOM      7  O   LIG    1       -0.374  -2.652   3.691  0.00  0.00    -0.470 OA
ENDROOT
BRANCH   3   8
ATOM      8  C   LIG    1        4.091  -2.159   4.452  0.00  0.00    +0.480 C 
ATOM      9  O   LIG    1        4.468  -1.194   3.830  0.00  0.00    -0.480 OA
BRANCH   8  10
ATOM     10  O   LIG    1        4.496  -2.341   5.719  0.00  0.00    -0.350 OA
ATOM     11  C   LIG    1        5.386  -1.339   6.277  0.00  0.00    +0.280 C 
ENDBRANCH   8  10
ENDBRANCH   3   8
BRANCH   1  12
ATOM     12  C   LIG    1        0.679  -2.115   1.088  0.00  0.00    +0.420 C 
BRANCH  12  13
ATOM     13  C   LIG    1        0.618  -0.611   1.029  0.00  0.00    +0.440 C 
ATOM     14  O   LIG    1        1.124   0.049   1.905  0.00  0.00    -0.490 OA
BRANCH  13  16
ATOM     15  C   LIG    1       -0.018   1.448   0.010  0.00  0.00    +0.280 C 
ATOM     16  O   LIG    1        0.002  -0.004   0.002  0.00  0.00    -0.360 OA
ENDBRANCH  13  16
ENDBRANCH  12  13
ENDBRANCH   1  12
TORSDOF 5
ENDMDL
MODEL      593
REMARK  Name = ZINC000013531530
REMARK                            x       y       z     vdW  Elec       q    Type
REMARK                         _______ _______ _______ _____ _____    ______ ____
ROOT
ATOM      1  N   LIG    1        0.688  -0.476  -1.203  0.00  0.00    -0.350 N 
ATOM      2  N   LIG    1        0.101  -0.751  -2.448  0.00  0.00    -0.030 NA
ATOM      3  N   LIG    1        1.012  -1.146  -3.268  0.00  0.00    -0.160 NA
ATOM      4  C   LIG    1        2.205  -1.159  -2.655  0.00  0.00    -0.150 A 
ATOM      5  C   LIG    1        3.564  -1.509  -3.076  0.00  0.00    +0.590 A 
ATOM      6  O   LIG    1        3.795  -1.890  -4.210  0.00  0.00    -0.490 OA
ATOM      7  N   LIG    1        4.552  -1.400  -2.158  0.00  0.00    -0.530 N 
ATOM      8  C   LIG    1        4.275  -0.974  -0.901  0.00  0.00    +0.650 A 
ATOM      9  N   LIG    1        3.075  -0.655  -0.511  0.00  0.00    -0.520 NA
ATOM     10  C   LIG    1        2.020  -0.729  -1.335  0.00  0.00    +0.300 A 
ENDROOT
BRANCH   1  12
ATOM     11  C   LIG    1       -0.019   1.526   0.010  0.00  0.00    +0.060 C 
ATOM     12  C   LIG    1        0.002  -0.004   0.002  0.00  0.00    +0.340 C 
ENDBRANCH   1  12
BRANCH   7  13
ATOM     13  C   LIG    1        5.928  -1.741  -2.526  0.00  0.00    +0.360 C 
BRANCH  13  14
ATOM     14  C   LIG    1        6.176  -3.201  -2.245  0.00  0.00    +0.500 C 
ATOM     15  N   LIG    1        7.382  -3.743  -2.507  0.00  0.00    -0.730 N 
ATOM     16  H   LIG    1        8.091  -3.192  -2.876  0.00  0.00    +0.410 HD
ATOM     17  C   LIG    1        7.623  -5.162  -2.235  0.00  0.00    +0.290 C 
ATOM     18  O   LIG    1        5.290  -3.889  -1.784  0.00  0.00    -0.520 OA
ENDBRANCH  13  14
ENDBRANCH   7  13
TORSDOF 3
ENDMDL
MODEL      594
REMARK  Name = ZINC000058311899
REMARK                            x       y       z     vdW  Elec       q    Type
REMARK                         _______ _______ _______ _____ _____    ______ ____
ROOT
ATOM      1  N   LIG    1        0.021  -2.721  -0.772  0.00  0.00    -0.980 NA
ENDROOT
BRANCH   1   2
ATOM      2  S   LIG    1       -1.380  -2.883   0.096  0.00  0.00    +2.790 S 
ATOM      3  O   LIG    1       -2.441  -2.873  -0.849  0.00  0.00    -0.980 OA
ATOM      4  O   LIG    1       -1.292  -1.962   1.175  0.00  0.00    -0.950 OA
BRANCH   2   5
ATOM      5  N   LIG    1       -1.367  -4.396   0.769  0.00  0.00    -1.010 NA
ATOM      6  C   LIG    1       -2.055  -5.502   0.099  0.00  0.00    +0.300 C 
ATOM      7  C   LIG    1       -0.668  -4.628   2.036  0.00  0.00    +0.300 C 
ENDBRANCH   2   5
ENDBRANCH   1   2
BRANCH   1   8
ATOM      8  C   LIG    1        1.187  -2.071  -0.168  0.00  0.00    +0.310 C 
BRANCH   8   9
ATOM      9  C   LIG    1        1.211  -0.594  -0.568  0.00  0.00    +0.150 C 
BRANCH   9  11
ATOM     10  C   LIG    1        0.073   1.486  -0.215  0.00  0.00    +0.200 C 
ATOM     11  O   LIG    1        0.087   0.074   0.008  0.00  0.00    -0.380 OA
ENDBRANCH   9  11
ENDBRANCH   8   9
ENDBRANCH   1   8
BRANCH   1  12
ATOM     12  C   LIG    1        0.095  -3.228  -2.145  0.00  0.00    +0.320 C 
BRANCH  12  13
ATOM     13  C   LIG    1        0.684  -4.615  -2.136  0.00  0.00    +0.490 C 
ATOM     14  O   LIG    1        1.010  -5.130  -1.087  0.00  0.00    -0.520 OA
ATOM     15  N   LIG    1        0.849  -5.284  -3.295  0.00  0.00    -0.850 N 
ATOM     16  H   LIG    1        1.228  -6.177  -3.289  0.00  0.00    +0.400 HD
ATOM     17  H   LIG    1        0.588  -4.873  -4.134  0.00  0.00    +0.400 HD
ENDBRANCH  12  13
ENDBRANCH   1  12
TORSDOF 7
ENDMDL
MODEL      595
REMARK  Name = ZINC000000334796
REMARK                            x       y       z     vdW  Elec       q    Type
REMARK                         _______ _______ _______ _____ _____    ______ ____
ROOT
ATOM      1  C   LIG    1        1.304  -4.137  -2.001  0.00  0.00    -0.330 A 
ATOM      2  C   LIG    1        1.992  -4.825  -2.981  0.00  0.00    +0.470 A 
ATOM      3  N   LIG    1        2.080  -6.178  -2.906  0.00  0.00    -0.520 N 
ATOM      4  C   LIG    1        1.514  -6.864  -1.901  0.00  0.00    +0.700 A 
ATOM      5  N   LIG    1        0.831  -6.255  -0.916  0.00  0.00    -0.650 N 
ATOM      6  H   LIG    1        0.435  -6.784  -0.206  0.00  0.00    +0.440 HD
ATOM      7  O   LIG    1        1.621  -8.074  -1.881  0.00  0.00    -0.520 OA
ATOM      8  C   LIG    1        2.811  -6.907  -3.947  0.00  0.00    +0.360 C 
ATOM      9  C   LIG    1        0.697  -4.912  -0.906  0.00  0.00    +0.570 A 
ATOM     10  O   LIG    1        0.080  -4.355  -0.018  0.00  0.00    -0.510 OA
ENDROOT
BRANCH   1  17
ATOM     11  C   LIG    1       -0.003   1.462   0.016  0.00  0.00    +0.300 C 
ATOM     12  N   LIG    1        0.012  -0.003   0.006  0.00  0.00    -0.740 N 
ATOM     13  H   LIG    1       -0.396  -0.497   0.734  0.00  0.00    +0.400 HD
ATOM     14  C   LIG    1        0.592  -0.664  -1.015  0.00  0.00    +0.690 C 
ATOM     15  N   LIG    1        0.606  -2.011  -1.024  0.00  0.00    -0.680 N 
ATOM     16  H   LIG    1        0.198  -2.506  -0.296  0.00  0.00    +0.420 HD
ATOM     17  C   LIG    1        1.186  -2.673  -2.045  0.00  0.00    +0.600 C 
ATOM     18  O   LIG    1        1.613  -2.057  -3.004  0.00  0.00    -0.480 OA
ATOM     19  O   LIG    1        1.104  -0.045  -1.928  0.00  0.00    -0.530 OA
ENDBRANCH   1  17
TORSDOF 1
ENDMDL
MODEL      596
REMARK  Name = ZINC000003123164
REMARK                            x       y       z     vdW  Elec       q    Type
REMARK                         _______ _______ _______ _____ _____    ______ ____
ROOT
ATOM      1  O   LIG    1        0.002  -0.004   0.002  0.00  0.00    -0.460 OA
ATOM      2  C   LIG    1       -0.014   1.211   0.009  0.00  0.00    +0.570 C 
ATOM      3  C   LIG    1       -1.219   2.047   0.031  0.00  0.00    -0.140 C 
ATOM      4  C   LIG    1       -0.801   3.338   0.032  0.00  0.00    +0.170 C 
ATOM      5  C   LIG    1        0.687   3.298   0.009  0.00  0.00    +0.560 C 
ATOM      6  O   LIG    1        1.426   4.260   0.004  0.00  0.00    -0.460 OA
ATOM      7  N   LIG    1        1.069   2.008   0.003  0.00  0.00    -0.580 N 
ENDROOT
BRANCH   4   8
ATOM      8  N   LIG    1       -1.596   4.463   0.050  0.00  0.00    -0.680 N 
ATOM      9  H   LIG    1       -1.190   5.344   0.049  0.00  0.00    +0.420 HD
BRANCH   8  10
ATOM     10  C   LIG    1       -3.055   4.329   0.071  0.00  0.00    +0.290 C 
BRANCH  10  11
ATOM     11  C   LIG    1       -3.695   5.718   0.089  0.00  0.00    +0.190 C 
BRANCH  11  12
ATOM     12  O   LIG    1       -3.396   6.396  -1.133  0.00  0.00    -0.570 OA
ATOM     13  H   LIG    1       -3.771   7.286  -1.191  0.00  0.00    +0.390 HD
ENDBRANCH  11  12
ENDBRANCH  10  11
ENDBRANCH   8  10
ENDBRANCH   4   8
BRANCH   7  14
ATOM     14  C   LIG    1        2.457   1.541  -0.018  0.00  0.00    +0.330 C 
BRANCH  14  15
ATOM     15  C   LIG    1        2.962   1.377   1.417  0.00  0.00    +0.180 C 
BRANCH  15  16
ATOM     16  O   LIG    1        2.223   0.340   2.066  0.00  0.00    -0.560 OA
ATOM     17  H   LIG    1        2.490   0.180   2.982  0.00  0.00    +0.380 HD
ENDBRANCH  15  16
ENDBRANCH  14  15
ENDBRANCH   7  14
TORSDOF 7
ENDMDL
MODEL      597
REMARK  Name = ZINC000006524424
REMARK                            x       y       z     vdW  Elec       q    Type
REMARK                         _______ _______ _______ _____ _____    ______ ____
ROOT
ATOM      1  C   LIG    1       -1.268  -0.761   0.010  0.00  0.00    -0.150 A 
ATOM      2  C   LIG    1       -2.485  -0.080   0.020  0.00  0.00    +0.150 A 
ATOM      3  C   LIG    1       -3.683  -0.794   0.027  0.00  0.00    -0.150 A 
ATOM      4  C   LIG    1       -3.664  -2.188   0.024  0.00  0.00    +0.150 A 
ATOM      5  C   LIG    1       -2.447  -2.868   0.014  0.00  0.00    -0.150 A 
ATOM      6  C   LIG    1       -1.249  -2.155   0.002  0.00  0.00    +0.150 A 
ENDROOT
BRANCH   1  10
ATOM      7  N   LIG    1       -0.016   1.344   0.009  0.00  0.00    -0.850 N 
ATOM      8  H   LIG    1       -0.863   1.817   0.016  0.00  0.00    +0.400 HD
ATOM      9  H   LIG    1        0.817   1.840   0.004  0.00  0.00    +0.410 HD
ATOM     10  C   LIG    1        0.002  -0.004   0.002  0.00  0.00    +0.570 C 
ATOM     11  O   LIG    1        1.063  -0.597  -0.011  0.00  0.00    -0.530 OA
ENDBRANCH   1  10
BRANCH   5  12
ATOM     12  C   LIG    1       -2.427  -4.347   0.012  0.00  0.00    +0.570 C 
ATOM     13  O   LIG    1       -3.471  -4.969   0.019  0.00  0.00    -0.530 OA
ATOM     14  N   LIG    1       -1.251  -5.005   0.002  0.00  0.00    -0.850 N 
ATOM     15  H   LIG    1       -1.238  -5.975   0.001  0.00  0.00    +0.410 HD
ATOM     16  H   LIG    1       -0.417  -4.508  -0.003  0.00  0.00    +0.400 HD
ENDBRANCH   5  12
BRANCH   3  17
ATOM     17  C   LIG    1       -4.973  -0.072   0.038  0.00  0.00    +0.570 C 
ATOM     18  O   LIG    1       -4.990   1.144   0.040  0.00  0.00    -0.530 OA
ATOM     19  N   LIG    1       -6.131  -0.761   0.045  0.00  0.00    -0.850 N 
ATOM     20  H   LIG    1       -6.978  -0.288   0.052  0.00  0.00    +0.410 HD
ATOM     21  H   LIG    1       -6.118  -1.731   0.043  0.00  0.00    +0.400 HD
ENDBRANCH   3  17
TORSDOF 3
ENDMDL
MODEL      598
REMARK  Name = ZINC000213418138
REMARK                            x       y       z     vdW  Elec       q    Type
REMARK                         _______ _______ _______ _____ _____    ______ ____
ROOT
ATOM      1  C   LIG    1       -2.396  -2.791   0.010  0.00  0.00    +0.320 C 
ENDROOT
BRANCH   1   2
ATOM      2  C   LIG    1       -2.101  -4.269  -0.001  0.00  0.00    +0.510 C 
ATOM      3  N   LIG    1       -3.113  -5.159   0.004  0.00  0.00    -0.610 N 
ATOM      4  C   LIG    1       -4.515  -4.711   0.014  0.00  0.00    +0.260 C 
ATOM      5  C   LIG    1       -5.264  -5.442  -1.106  0.00  0.00    +0.220 C 
ATOM      6  O   LIG    1       -5.046  -6.849  -0.978  0.00  0.00    -0.380 OA
ATOM      7  C   LIG    1       -3.679  -7.245  -1.120  0.00  0.00    +0.220 C 
ATOM      8  C   LIG    1       -2.849  -6.606  -0.006  0.00  0.00    +0.260 C 
ATOM      9  O   LIG    1       -0.952  -4.657  -0.014  0.00  0.00    -0.530 OA
ENDBRANCH   1   2
BRANCH   1  14
ATOM     10  C   LIG    1       -0.018   1.461   0.010  0.00  0.00    +0.310 C 
ATOM     11  N   LIG    1        0.002  -0.004   0.002  0.00  0.00    -0.750 N 
ATOM     12  H   LIG    1        0.849  -0.478  -0.009  0.00  0.00    +0.400 HD
ATOM     13  C   LIG    1       -1.156  -0.694   0.009  0.00  0.00    +0.710 C 
ATOM     14  N   LIG    1       -1.137  -2.041   0.002  0.00  0.00    -0.740 N 
ATOM     15  H   LIG    1       -0.291  -2.515  -0.009  0.00  0.00    +0.410 HD
ATOM     16  O   LIG    1       -2.217  -0.100   0.023  0.00  0.00    -0.590 OA
ENDBRANCH   1  14
TORSDOF 2
ENDMDL
MODEL      599
REMARK  Name = ZINC000046258996
REMARK                            x       y       z     vdW  Elec       q    Type
REMARK                         _______ _______ _______ _____ _____    ______ ____
ROOT
ATOM      1  C   LIG    1        0.001   1.528  -0.001  0.00  0.00    +0.070 C 
ATOM      2  C   LIG    1        0.012  -0.002  -0.004  0.00  0.00    +0.200 C 
ATOM      3  C   LIG    1        0.632  -0.511  -1.310  0.00  0.00    +0.220 C 
ATOM      4  O   LIG    1        0.808  -1.927  -1.227  0.00  0.00    -0.370 OA
ATOM      5  C   LIG    1        1.708  -2.346  -0.198  0.00  0.00    +0.210 C 
ATOM      6  C   LIG    1        1.142  -1.931   1.165  0.00  0.00    +0.250 C 
ATOM      7  N   LIG    1        0.824  -0.495   1.119  0.00  0.00    -0.610 N 
ATOM      8  C   LIG    1        1.266   0.345   2.077  0.00  0.00    +0.510 C 
ATOM      9  O   LIG    1        0.911   1.504   2.077  0.00  0.00    -0.490 OA
ENDROOT
BRANCH   8  10
ATOM     10  C   LIG    1        2.200  -0.158   3.148  0.00  0.00    +0.370 C 
BRANCH  10  11
ATOM     11  N   LIG    1        2.530   0.938   4.061  0.00  0.00    -0.300 N 
ATOM     12  C   LIG    1        2.378   0.938   5.399  0.00  0.00    +0.400 A 
ATOM     13  N   LIG    1        2.793   2.106   5.825  0.00  0.00    -0.300 NA
ATOM     14  N   LIG    1        3.179   2.788   4.803  0.00  0.00    -0.070 NA
ATOM     15  N   LIG    1        3.027   2.084   3.736  0.00  0.00    -0.060 NA
ENDBRANCH  10  11
ENDBRANCH   8  10
TORSDOF 2
ENDMDL
MODEL      600
REMARK  Name = ZINC000005630581
REMARK                            x       y       z     vdW  Elec       q    Type
REMARK                         _______ _______ _______ _____ _____    ______ ____
ROOT
ATOM      1  N   LIG    1        0.002  -0.004   0.002  0.00  0.00    -0.160 NA
ATOM      2  C   LIG    1       -1.119  -0.672   0.009  0.00  0.00    +0.340 A 
ATOM      3  N   LIG    1       -2.373  -0.013   0.019  0.00  0.00    -0.640 N 
ATOM      4  H   LIG    1       -2.490   0.865  -0.377  0.00  0.00    +0.440 HD
ATOM      5  C   LIG    1       -3.433  -0.690   0.627  0.00  0.00    +0.330 A 
ATOM      6  N   LIG    1       -4.554  -0.251   1.092  0.00  0.00    -0.290 NA
ATOM      7  O   LIG    1       -5.285  -1.362   1.592  0.00  0.00    +0.050 OA
ATOM      8  N   LIG    1       -4.493  -2.524   1.391  0.00  0.00    -0.260 NA
ATOM      9  C   LIG    1       -3.395  -2.162   0.830  0.00  0.00    +0.300 A 
ATOM     10  N   LIG    1       -2.262  -2.863   0.425  0.00  0.00    -0.440 N 
ATOM     11  C   LIG    1       -1.938  -4.163   0.316  0.00  0.00    +0.510 A 
ATOM     12  N   LIG    1       -0.704  -4.215  -0.149  0.00  0.00    -0.330 NA
ATOM     13  N   LIG    1       -0.241  -3.023  -0.330  0.00  0.00    -0.170 NA
ATOM     14  C   LIG    1       -1.137  -2.146   0.001  0.00  0.00    +0.220 A 
ENDROOT
BRANCH   1  15
ATOM     15  N   LIG    1       -0.017   1.397   0.010  0.00  0.00    -0.760 N 
ATOM     16  H   LIG    1       -0.864   1.870   0.016  0.00  0.00    +0.380 HD
ATOM     17  H   LIG    1        0.816   1.893   0.004  0.00  0.00    +0.430 HD
ENDBRANCH   1  15
BRANCH  11  18
ATOM     18  N   LIG    1       -2.746  -5.242   0.630  0.00  0.00    -0.810 N 
ATOM     19  H   LIG    1       -2.415  -6.146   0.514  0.00  0.00    +0.440 HD
ATOM     20  H   LIG    1       -3.644  -5.094   0.967  0.00  0.00    +0.420 HD
ENDBRANCH  11  18
TORSDOF 2
ENDMDL
MODEL      601
REMARK  Name = ZINC000253495437
REMARK                            x       y       z     vdW  Elec       q    Type
REMARK                         _______ _______ _______ _____ _____    ______ ____
ROOT
ATOM      1  O   LIG    1        0.002  -0.004   0.002  0.00  0.00    -0.530 OA
ATOM      2  C   LIG    1       -0.014   1.209   0.009  0.00  0.00    +0.550 C 
ATOM      3  N   LIG    1       -1.191   1.867   0.018  0.00  0.00    -0.600 N 
ATOM      4  C   LIG    1       -1.226   3.337   0.020  0.00  0.00    +0.280 C 
ATOM      5  C   LIG    1       -2.148   3.791   1.157  0.00  0.00    +0.190 C 
ATOM      6  N   LIG    1       -3.461   3.156   0.994  0.00  0.00    -0.690 NA
ATOM      7  H   LIG    1       -4.131   3.537   1.644  0.00  0.00    +0.360 HD
ATOM      8  C   LIG    1       -3.378   1.695   1.119  0.00  0.00    +0.170 C 
ATOM      9  C   LIG    1       -4.789   1.106   0.856  0.00  0.00    -0.290 C 
ATOM     10  S   LIG    1       -4.943   1.237  -0.966  0.00  0.00    +2.410 S 
ATOM     11  C   LIG    1       -3.152   1.275  -1.339  0.00  0.00    -0.320 C 
ATOM     12  O   LIG    1       -5.524   2.490  -1.301  0.00  0.00    -0.920 OA
ATOM     13  O   LIG    1       -5.505   0.036  -1.478  0.00  0.00    -0.940 OA
ATOM     14  C   LIG    1       -2.457   1.129   0.020  0.00  0.00    +0.280 C 
ENDROOT
BRANCH   2  15
ATOM     15  C   LIG    1        1.280   1.980   0.001  0.00  0.00    -0.070 C 
ATOM     16  C   LIG    1        2.152   1.909   1.256  0.00  0.00    +0.060 C 
ATOM     17  C   LIG    1        2.582   1.175  -0.016  0.00  0.00    +0.080 C 
ENDBRANCH   2  15
TORSDOF 1
ENDMDL
MODEL      602
REMARK  Name = ZINC000009836474
REMARK                            x       y       z     vdW  Elec       q    Type
REMARK                         _______ _______ _______ _____ _____    ______ ____
ROOT
ATOM      1  C   LIG    1       -1.417  -1.208   4.580  0.00  0.00    +0.120 C 
ENDROOT
BRANCH   1   2
ATOM      2  C   LIG    1       -2.792  -1.179   5.196  0.00  0.00    +0.540 C 
ATOM      3  N   LIG    1       -2.965  -1.558   6.478  0.00  0.00    -0.680 N 
ATOM      4  H   LIG    1       -2.204  -1.850   7.004  0.00  0.00    +0.420 HD
ATOM      5  C   LIG    1       -4.194  -1.532   7.029  0.00  0.00    +0.700 C 
ATOM      6  O   LIG    1       -5.148  -1.166   6.370  0.00  0.00    -0.530 OA
ATOM      7  N   LIG    1       -4.367  -1.911   8.311  0.00  0.00    -0.850 N 
ATOM      8  H   LIG    1       -5.252  -1.892   8.707  0.00  0.00    +0.420 HD
ATOM      9  H   LIG    1       -3.606  -2.203   8.836  0.00  0.00    +0.400 HD
ATOM     10  O   LIG    1       -3.744  -0.814   4.539  0.00  0.00    -0.450 OA
ENDBRANCH   1   2
BRANCH   1  11
ATOM     11  S   LIG    1       -1.514  -0.646   2.862  0.00  0.00    +0.120 S 
BRANCH  11  16
ATOM     12  N   LIG    1        0.711  -0.489   1.189  0.00  0.00    -0.360 N 
ATOM     13  N   LIG    1        2.086  -0.750   1.315  0.00  0.00    -0.070 NA
ATOM     14  N   LIG    1        2.280  -1.159   2.522  0.00  0.00    -0.030 NA
ATOM     15  N   LIG    1        1.171  -1.183   3.168  0.00  0.00    -0.340 NA
ATOM     16  C   LIG    1        0.182  -0.777   2.402  0.00  0.00    +0.190 A 
BRANCH  12  18
ATOM     17  C   LIG    1       -0.019   1.526   0.010  0.00  0.00    +0.060 C 
ATOM     18  C   LIG    1        0.002  -0.004   0.002  0.00  0.00    +0.330 C 
ENDBRANCH  12  18
ENDBRANCH  11  16
ENDBRANCH   1  11
TORSDOF 4
ENDMDL
MODEL      603
REMARK  Name = ZINC000000132160
REMARK                            x       y       z     vdW  Elec       q    Type
REMARK                         _______ _______ _______ _____ _____    ______ ____
ROOT
ATOM      1  C   LIG    1       -0.021   1.461   0.020  0.00  0.00    +0.330 C 
ATOM      2  N   LIG    1        0.001  -0.004   0.007  0.00  0.00    -0.560 N 
ATOM      3  C   LIG    1       -0.159  -0.664  -1.157  0.00  0.00    +0.550 A 
ATOM      4  C   LIG    1       -0.138  -2.067  -1.167  0.00  0.00    -0.130 A 
ATOM      5  C   LIG    1        0.046  -2.737   0.011  0.00  0.00    +0.450 A 
ATOM      6  N   LIG    1        0.204  -2.024   1.174  0.00  0.00    -0.540 N 
ATOM      7  C   LIG    1        0.402  -2.733   2.441  0.00  0.00    +0.330 C 
ATOM      8  O   LIG    1       -0.321  -0.046  -2.196  0.00  0.00    -0.520 OA
ATOM      9  C   LIG    1        0.186  -0.679   1.156  0.00  0.00    +0.700 A 
ATOM     10  O   LIG    1        0.328  -0.064   2.195  0.00  0.00    -0.540 OA
ENDROOT
BRANCH   5  11
ATOM     11  N   LIG    1        0.071  -4.108   0.030  0.00  0.00    -0.670 N 
ATOM     12  C   LIG    1       -1.172  -4.887   0.147  0.00  0.00    +0.260 C 
ATOM     13  C   LIG    1       -1.185  -5.945  -0.963  0.00  0.00    +0.220 C 
ATOM     14  O   LIG    1        0.036  -6.687  -0.920  0.00  0.00    -0.380 OA
ATOM     15  C   LIG    1        1.206  -5.903  -1.164  0.00  0.00    +0.220 C 
ATOM     16  C   LIG    1        1.342  -4.844  -0.071  0.00  0.00    +0.260 C 
ENDBRANCH   5  11
TORSDOF 1
ENDMDL
MODEL      604
REMARK  Name = ZINC000025721497
REMARK                            x       y       z     vdW  Elec       q    Type
REMARK                         _______ _______ _______ _____ _____    ______ ____
ROOT
ATOM      1  C   LIG    1        1.237  -2.730  -2.134  0.00  0.00    +0.270 C 
ATOM      2  C   LIG    1        2.739  -2.861  -1.867  0.00  0.00    +0.320 C 
ATOM      3  O   LIG    1        3.345  -3.611  -2.921  0.00  0.00    -0.390 OA
ATOM      4  C   LIG    1        2.845  -4.944  -3.051  0.00  0.00    +0.150 C 
ATOM      5  C   LIG    1        1.347  -4.897  -3.366  0.00  0.00    +0.130 C 
ATOM      6  C   LIG    1        0.623  -4.128  -2.256  0.00  0.00    +0.180 C 
ENDROOT
BRANCH   1  11
ATOM      7  C   LIG    1       -0.018   1.461   0.010  0.00  0.00    +0.300 C 
ATOM      8  N   LIG    1        0.002  -0.004   0.002  0.00  0.00    -0.750 N 
ATOM      9  H   LIG    1       -0.404  -0.499   0.731  0.00  0.00    +0.400 HD
ATOM     10  C   LIG    1        0.585  -0.664  -1.018  0.00  0.00    +0.710 C 
ATOM     11  N   LIG    1        0.603  -2.012  -1.025  0.00  0.00    -0.730 N 
ATOM     12  H   LIG    1        0.197  -2.507  -0.297  0.00  0.00    +0.400 HD
ATOM     13  O   LIG    1        1.095  -0.045  -1.931  0.00  0.00    -0.570 OA
ENDBRANCH   1  11
BRANCH   5  14
ATOM     14  O   LIG    1        0.833  -6.228  -3.441  0.00  0.00    -0.560 OA
ATOM     15  H   LIG    1        1.250  -6.773  -4.122  0.00  0.00    +0.390 HD
ENDBRANCH   5  14
BRANCH   2  16
ATOM     16  O   LIG    1        3.328  -1.560  -1.808  0.00  0.00    -0.510 OA
ATOM     17  H   LIG    1        4.280  -1.566  -1.642  0.00  0.00    +0.380 HD
ENDBRANCH   2  16
BRANCH   6  18
ATOM     18  O   LIG    1       -0.765  -4.018  -2.578  0.00  0.00    -0.550 OA
ATOM     19  H   LIG    1       -1.214  -4.869  -2.676  0.00  0.00    +0.390 HD
ENDBRANCH   6  18
BRANCH   4  20
ATOM     20  C   LIG    1        3.583  -5.657  -4.186  0.00  0.00    +0.200 C 
BRANCH  20  21
ATOM     21  O   LIG    1        4.962  -5.803  -3.840  0.00  0.00    -0.560 OA
ATOM     22  H   LIG    1        5.492  -6.248  -4.515  0.00  0.00    +0.390 HD
ENDBRANCH  20  21
ENDBRANCH   4  20
TORSDOF 6
ENDMDL
MODEL      605
REMARK  Name = ZINC000025721491
REMARK                            x       y       z     vdW  Elec       q    Type
REMARK                         _______ _______ _______ _____ _____    ______ ____
ROOT
ATOM      1  C   LIG    1        1.237  -2.730  -2.134  0.00  0.00    +0.280 C 
ATOM      2  C   LIG    1        0.623  -4.128  -2.256  0.00  0.00    +0.190 C 
ATOM      3  C   LIG    1        1.346  -4.896  -3.367  0.00  0.00    +0.130 C 
ATOM      4  C   LIG    1        2.844  -4.944  -3.051  0.00  0.00    +0.150 C 
ATOM      5  O   LIG    1        3.345  -3.613  -2.921  0.00  0.00    -0.370 OA
ATOM      6  C   LIG    1        2.739  -2.861  -1.867  0.00  0.00    +0.370 C 
ENDROOT
BRANCH   1  11
ATOM      7  C   LIG    1       -0.018   1.461   0.010  0.00  0.00    +0.310 C 
ATOM      8  N   LIG    1        0.002  -0.004   0.002  0.00  0.00    -0.750 N 
ATOM      9  H   LIG    1       -0.404  -0.499   0.731  0.00  0.00    +0.400 HD
ATOM     10  C   LIG    1        0.585  -0.664  -1.018  0.00  0.00    +0.710 C 
ATOM     11  N   LIG    1        0.603  -2.012  -1.025  0.00  0.00    -0.720 N 
ATOM     12  H   LIG    1        0.197  -2.507  -0.297  0.00  0.00    +0.400 HD
ATOM     13  O   LIG    1        1.095  -0.045  -1.931  0.00  0.00    -0.590 OA
ENDBRANCH   1  11
BRANCH   3  14
ATOM     14  O   LIG    1        0.830  -6.226  -3.442  0.00  0.00    -0.560 OA
ATOM     15  H   LIG    1        1.243  -6.771  -4.126  0.00  0.00    +0.390 HD
ENDBRANCH   3  14
BRANCH   2  16
ATOM     16  O   LIG    1       -0.765  -4.014  -2.577  0.00  0.00    -0.550 OA
ATOM     17  H   LIG    1       -1.218  -4.864  -2.670  0.00  0.00    +0.390 HD
ENDBRANCH   2  16
BRANCH   6  18
ATOM     18  O   LIG    1        2.943  -3.533  -0.623  0.00  0.00    -0.570 OA
ATOM     19  H   LIG    1        3.874  -3.653  -0.389  0.00  0.00    +0.390 HD
ENDBRANCH   6  18
BRANCH   4  20
ATOM     20  C   LIG    1        3.581  -5.658  -4.186  0.00  0.00    +0.200 C 
BRANCH  20  21
ATOM     21  O   LIG    1        4.960  -5.807  -3.839  0.00  0.00    -0.560 OA
ATOM     22  H   LIG    1        5.489  -6.252  -4.514  0.00  0.00    +0.380 HD
ENDBRANCH  20  21
ENDBRANCH   4  20
TORSDOF 6
ENDMDL
MODEL      606
REMARK  Name = ZINC000019912530
REMARK                            x       y       z     vdW  Elec       q    Type
REMARK                         _______ _______ _______ _____ _____    ______ ____
ROOT
ATOM      1  N   LIG    1        2.251   4.009  -0.009  0.00  0.00    -0.600 N 
ATOM      2  C   LIG    1        3.568   3.360   0.073  0.00  0.00    +0.320 C 
ATOM      3  C   LIG    1        4.443   3.887  -1.070  0.00  0.00    +0.180 C 
ATOM      4  N   LIG    1        4.471   5.355  -1.023  0.00  0.00    -0.530 NA
ATOM      5  C   LIG    1        3.132   5.921  -1.240  0.00  0.00    +0.170 C 
ATOM      6  C   LIG    1        2.204   5.476  -0.111  0.00  0.00    +0.290 C 
ENDROOT
BRANCH   1  12
ATOM      7  O   LIG    1       -2.116   3.265  -1.250  0.00  0.00    -0.520 OA
ATOM      8  C   LIG    1       -1.117   2.917  -0.643  0.00  0.00    +0.590 A 
ATOM      9  N   LIG    1       -1.128   1.781   0.061  0.00  0.00    -0.330 NA
ATOM     10  N   LIG    1       -0.096   1.380   0.714  0.00  0.00    -0.080 NA
ATOM     11  C   LIG    1        1.027   2.076   0.718  0.00  0.00    +0.040 A 
ATOM     12  C   LIG    1        1.099   3.268   0.004  0.00  0.00    +0.480 A 
ATOM     13  N   LIG    1       -0.004   3.678  -0.689  0.00  0.00    -0.620 N 
ATOM     14  H   LIG    1        0.011   4.504  -1.199  0.00  0.00    +0.420 HD
ENDBRANCH   1  12
BRANCH   4  15
ATOM     15  C   LIG    1        5.433   5.895  -1.993  0.00  0.00    +0.190 C 
BRANCH  15  16
ATOM     16  C   LIG    1        5.619   7.394  -1.747  0.00  0.00    +0.180 C 
BRANCH  16  17
ATOM     17  O   LIG    1        6.219   7.596  -0.466  0.00  0.00    -0.560 OA
ATOM     18  H   LIG    1        6.367   8.525  -0.243  0.00  0.00    +0.380 HD
ENDBRANCH  16  17
ENDBRANCH  15  16
ENDBRANCH   4  15
TORSDOF 4
ENDMDL
MODEL      607
REMARK  Name = ZINC000011592975
REMARK                            x       y       z     vdW  Elec       q    Type
REMARK                         _______ _______ _______ _____ _____    ______ ____
ROOT
ATOM      1  C1* LIG    1        0.085  -4.133  -0.021  0.00  0.00    +0.440 C 
ATOM      2  O4* LIG    1        0.943  -4.629   1.028  0.00  0.00    -0.360 OA
ATOM      3  C4* LIG    1        1.327  -5.965   0.660  0.00  0.00    +0.150 C 
ATOM      4  C3* LIG    1        1.263  -6.052  -0.877  0.00  0.00    +0.140 C 
ATOM      5  C2* LIG    1        0.753  -4.657  -1.318  0.00  0.00    +0.180 C 
ENDROOT
BRANCH   1   9
ATOM      6  C   LIG    1        0.002  -0.004   0.002  0.00  0.00    +0.630 A 
ATOM      7  N   LIG    1       -1.139  -0.678   0.004  0.00  0.00    -0.640 NA
ATOM      8  C   LIG    1       -1.126  -2.014  -0.004  0.00  0.00    +0.660 A 
ATOM      9  N   LIG    1        0.054  -2.668  -0.013  0.00  0.00    -0.550 N 
ATOM     10  C   LIG    1        1.207  -1.963  -0.014  0.00  0.00    +0.700 A 
ATOM     11  O   LIG    1       -2.173  -2.638  -0.002  0.00  0.00    -0.530 OA
ATOM     12  N   LIG    1        1.174  -0.654  -0.013  0.00  0.00    -0.610 NA
BRANCH   6  13
ATOM     13  N   LIG    1       -0.017   1.368   0.010  0.00  0.00    -0.790 N 
ATOM     14  H   LIG    1       -0.863   1.842   0.016  0.00  0.00    +0.420 HD
ATOM     15  H   LIG    1        0.817   1.865   0.004  0.00  0.00    +0.420 HD
ENDBRANCH   6  13
ENDBRANCH   1   9
BRANCH   4  16
ATOM     16  O3* LIG    1        0.344  -7.070  -1.282  0.00  0.00    -0.550 OA
ATOM     17  H3* LIG    1        0.584  -7.958  -0.983  0.00  0.00    +0.390 HD
ENDBRANCH   4  16
BRANCH   5  18
ATOM     18  O2* LIG    1        1.842  -3.815  -1.704  0.00  0.00    -0.550 OA
ATOM     19  H2* LIG    1        2.350  -4.149  -2.455  0.00  0.00    +0.400 HD
ENDBRANCH   5  18
BRANCH   3  20
ATOM     20  C5* LIG    1        2.752  -6.248   1.141  0.00  0.00    +0.200 C 
BRANCH  20  21
ATOM     21  O5* LIG    1        2.777  -6.264   2.570  0.00  0.00    -0.560 OA
ATOM     22  H5* LIG    1        3.651  -6.438   2.946  0.00  0.00    +0.390 HD
ENDBRANCH  20  21
ENDBRANCH   3  20
TORSDOF 6
ENDMDL
MODEL      608
REMARK  Name = ZINC000055962233
REMARK                            x       y       z     vdW  Elec       q    Type
REMARK                         _______ _______ _______ _____ _____    ______ ____
ROOT
ATOM      1  N   LIG    1        1.333  -2.667   2.182  0.00  0.00    -0.710 N 
ATOM      2  H   LIG    1        1.993  -2.105   2.617  0.00  0.00    +0.410 HD
ATOM      3  C   LIG    1        1.069  -3.896   2.670  0.00  0.00    +0.500 C 
ATOM      4  O   LIG    1        0.244  -4.599   2.126  0.00  0.00    -0.530 OA
ENDROOT
BRANCH   1   5
ATOM      5  C   LIG    1        0.625  -2.182   0.995  0.00  0.00    +0.250 C 
ATOM      6  C   LIG    1        1.341  -2.676  -0.264  0.00  0.00    +0.060 C 
BRANCH   5  10
ATOM      7  C   LIG    1       -0.018   1.461   0.010  0.00  0.00    +0.290 C 
ATOM      8  N   LIG    1        0.002  -0.004   0.002  0.00  0.00    -0.730 N 
ATOM      9  H   LIG    1       -0.418  -0.491  -0.724  0.00  0.00    +0.410 HD
ATOM     10  C   LIG    1        0.604  -0.675   1.004  0.00  0.00    +0.510 C 
ATOM     11  O   LIG    1        1.130  -0.067   1.911  0.00  0.00    -0.530 OA
ENDBRANCH   5  10
ENDBRANCH   1   5
BRANCH   3  12
ATOM     12  C   LIG    1        1.798  -4.395   3.890  0.00  0.00    +0.350 C 
BRANCH  12  13
ATOM     13  N   LIG    1        1.335  -5.746   4.217  0.00  0.00    -0.580 N 
ATOM     14  C   LIG    1        0.289  -5.918   5.049  0.00  0.00    +0.660 C 
ATOM     15  O   LIG    1       -0.271  -4.952   5.528  0.00  0.00    -0.570 OA
ATOM     16  C   LIG    1        2.010  -6.911   3.639  0.00  0.00    +0.300 C 
BRANCH  14  17
ATOM     17  O   LIG    1       -0.136  -7.160   5.349  0.00  0.00    -0.370 OA
ATOM     18  C   LIG    1       -1.268  -7.269   6.251  0.00  0.00    +0.280 C 
ENDBRANCH  14  17
ENDBRANCH  12  13
ENDBRANCH   3  12
TORSDOF 5
ENDMDL
MODEL      609
REMARK  Name = ZINC000055957921
REMARK                            x       y       z     vdW  Elec       q    Type
REMARK                         _______ _______ _______ _____ _____    ______ ____
ROOT
ATOM      1  N   LIG    1        1.333  -2.667   2.182  0.00  0.00    -0.710 N 
ATOM      2  H   LIG    1        1.993  -2.105   2.617  0.00  0.00    +0.410 HD
ATOM      3  C   LIG    1        1.069  -3.896   2.670  0.00  0.00    +0.510 C 
ATOM      4  O   LIG    1        0.244  -4.599   2.126  0.00  0.00    -0.510 OA
ENDROOT
BRANCH   1   5
ATOM      5  C   LIG    1        0.625  -2.182   0.995  0.00  0.00    +0.250 C 
ATOM      6  C   LIG    1        1.341  -2.676  -0.264  0.00  0.00    +0.060 C 
BRANCH   5  10
ATOM      7  C   LIG    1       -0.018   1.461   0.010  0.00  0.00    +0.290 C 
ATOM      8  N   LIG    1        0.002  -0.004   0.002  0.00  0.00    -0.730 N 
ATOM      9  H   LIG    1       -0.418  -0.491  -0.724  0.00  0.00    +0.410 HD
ATOM     10  C   LIG    1        0.604  -0.675   1.004  0.00  0.00    +0.510 C 
ATOM     11  O   LIG    1        1.130  -0.067   1.911  0.00  0.00    -0.530 OA
ENDBRANCH   5  10
ENDBRANCH   1   5
BRANCH   3  12
ATOM     12  C   LIG    1        1.798  -4.395   3.890  0.00  0.00    +0.360 C 
BRANCH  12  13
ATOM     13  N   LIG    1        1.335  -5.746   4.217  0.00  0.00    -0.370 N 
ATOM     14  C   LIG    1        2.096  -6.844   4.369  0.00  0.00    +0.480 A 
ATOM     15  N   LIG    1        1.309  -7.848   4.656  0.00  0.00    -0.540 NA
ATOM     16  C   LIG    1        0.043  -7.432   4.697  0.00  0.00    +0.420 A 
ATOM     17  N   LIG    1        0.009  -6.151   4.439  0.00  0.00    -0.290 NA
ENDBRANCH  12  13
ENDBRANCH   3  12
TORSDOF 4
ENDMDL
MODEL      610
REMARK  Name = ZINC000048748328
REMARK                            x       y       z     vdW  Elec       q    Type
REMARK                         _______ _______ _______ _____ _____    ______ ____
ROOT
ATOM      1  N   LIG    1       -2.510  -2.708   0.011  0.00  0.00    -0.710 N 
ATOM      2  H   LIG    1       -3.225  -2.163   0.376  0.00  0.00    +0.410 HD
ATOM      3  C   LIG    1       -2.781  -3.931  -0.486  0.00  0.00    +0.520 C 
ATOM      4  O   LIG    1       -1.887  -4.612  -0.942  0.00  0.00    -0.540 OA
ENDROOT
BRANCH   1   5
ATOM      5  C   LIG    1       -1.135  -2.201   0.001  0.00  0.00    +0.250 C 
ATOM      6  C   LIG    1       -0.395  -2.707   1.241  0.00  0.00    +0.060 C 
BRANCH   5  10
ATOM      7  C   LIG    1       -0.018   1.461   0.010  0.00  0.00    +0.290 C 
ATOM      8  N   LIG    1        0.002  -0.004   0.002  0.00  0.00    -0.730 N 
ATOM      9  H   LIG    1        0.849  -0.478  -0.009  0.00  0.00    +0.410 HD
ATOM     10  C   LIG    1       -1.156  -0.694   0.009  0.00  0.00    +0.510 C 
ATOM     11  O   LIG    1       -2.214  -0.102   0.023  0.00  0.00    -0.530 OA
ENDBRANCH   5  10
ENDBRANCH   1   5
BRANCH   3  12
ATOM     12  C   LIG    1       -4.194  -4.452  -0.475  0.00  0.00    +0.300 C 
BRANCH  12  13
ATOM     13  N   LIG    1       -4.225  -5.793  -1.066  0.00  0.00    -0.720 N 
ATOM     14  H   LIG    1       -3.405  -6.200  -1.387  0.00  0.00    +0.410 HD
ATOM     15  C   LIG    1       -5.392  -6.460  -1.162  0.00  0.00    +0.550 C 
ATOM     16  O   LIG    1       -6.417  -5.951  -0.760  0.00  0.00    -0.540 OA
BRANCH  15  17
ATOM     17  C   LIG    1       -5.423  -7.839  -1.770  0.00  0.00    -0.070 C 
ATOM     18  C   LIG    1       -5.731  -9.014  -0.840  0.00  0.00    +0.060 C 
ATOM     19  C   LIG    1       -6.778  -8.544  -1.851  0.00  0.00    +0.070 C 
ENDBRANCH  15  17
ENDBRANCH  12  13
ENDBRANCH   3  12
TORSDOF 5
ENDMDL
MODEL      611
REMARK  Name = ZINC000055958434
REMARK                            x       y       z     vdW  Elec       q    Type
REMARK                         _______ _______ _______ _____ _____    ______ ____
ROOT
ATOM      1  N   LIG    1        1.291  -2.644  -2.232  0.00  0.00    -0.710 N 
ATOM      2  H   LIG    1        1.324  -2.083  -3.022  0.00  0.00    +0.410 HD
ATOM      3  C   LIG    1        1.876  -3.858  -2.242  0.00  0.00    +0.510 C 
ATOM      4  O   LIG    1        1.835  -4.559  -1.253  0.00  0.00    -0.510 OA
ENDROOT
BRANCH   1   5
ATOM      5  C   LIG    1        0.606  -2.171  -1.026  0.00  0.00    +0.250 C 
ATOM      6  C   LIG    1       -0.830  -2.701  -1.015  0.00  0.00    +0.070 C 
BRANCH   5  10
ATOM      7  C   LIG    1       -0.018   1.461   0.010  0.00  0.00    +0.280 C 
ATOM      8  N   LIG    1        0.002  -0.004   0.002  0.00  0.00    -0.730 N 
ATOM      9  H   LIG    1       -0.404  -0.499   0.731  0.00  0.00    +0.410 HD
ATOM     10  C   LIG    1        0.585  -0.664  -1.018  0.00  0.00    +0.510 C 
ATOM     11  O   LIG    1        1.093  -0.046  -1.929  0.00  0.00    -0.530 OA
ENDBRANCH   5  10
ENDBRANCH   1   5
BRANCH   3  12
ATOM     12  C   LIG    1        2.582  -4.344  -3.482  0.00  0.00    +0.390 C 
BRANCH  12  13
ATOM     13  N   LIG    1        3.129  -5.681  -3.240  0.00  0.00    -0.300 N 
ATOM     14  C   LIG    1        2.902  -6.784  -3.977  0.00  0.00    +0.400 A 
ATOM     15  N   LIG    1        3.579  -7.757  -3.418  0.00  0.00    -0.300 NA
ATOM     16  N   LIG    1        4.189  -7.277  -2.390  0.00  0.00    -0.070 NA
ATOM     17  N   LIG    1        3.925  -6.022  -2.283  0.00  0.00    -0.060 NA
ENDBRANCH  12  13
ENDBRANCH   3  12
TORSDOF 4
ENDMDL
MODEL      612
REMARK  Name = ZINC000000488340
REMARK                            x       y       z     vdW  Elec       q    Type
REMARK                         _______ _______ _______ _____ _____    ______ ____
ROOT
ATOM      1  C   LIG    1        0.002  -0.004   0.002  0.00  0.00    +0.500 A 
ATOM      2  N   LIG    1       -1.135  -0.686   0.004  0.00  0.00    -0.600 NA
ATOM      3  C   LIG    1       -1.130  -2.018  -0.004  0.00  0.00    +0.650 A 
ATOM      4  N   LIG    1        0.025  -2.709  -0.013  0.00  0.00    -0.520 N 
ATOM      5  C   LIG    1        1.221  -2.052  -0.015  0.00  0.00    +0.360 A 
ATOM      6  O   LIG    1       -2.190  -2.622  -0.002  0.00  0.00    -0.530 OA
ATOM      7  C   LIG    1        1.232  -0.697  -0.013  0.00  0.00    -0.090 A 
ATOM      8  F   LIG    1        2.401  -0.020  -0.015  0.00  0.00    -0.120 F 
ENDROOT
BRANCH   1   9
ATOM      9  N   LIG    1       -0.017   1.372   0.010  0.00  0.00    -0.810 N 
ATOM     10  H   LIG    1       -0.863   1.846   0.016  0.00  0.00    +0.420 HD
ATOM     11  H   LIG    1        0.817   1.868   0.004  0.00  0.00    +0.420 HD
ENDBRANCH   1   9
BRANCH   4  12
ATOM     12  C   LIG    1       -0.002  -4.174  -0.021  0.00  0.00    +0.290 C 
BRANCH  12  13
ATOM     13  C   LIG    1       -0.018  -4.675  -1.466  0.00  0.00    +0.210 C 
BRANCH  13  14
ATOM     14  O   LIG    1        1.206  -4.316  -2.109  0.00  0.00    -0.550 OA
ATOM     15  H   LIG    1        1.995  -4.685  -1.687  0.00  0.00    +0.370 HD
ENDBRANCH  13  14
BRANCH  13  16
ATOM     16  C   LIG    1       -0.172  -6.198  -1.476  0.00  0.00    +0.160 C 
BRANCH  16  17
ATOM     17  O   LIG    1       -0.304  -6.654  -2.824  0.00  0.00    -0.560 OA
ATOM     18  H   LIG    1       -0.406  -7.612  -2.906  0.00  0.00    +0.380 HD
ENDBRANCH  16  17
ENDBRANCH  13  16
ENDBRANCH  12  13
ENDBRANCH   4  12
TORSDOF 6
ENDMDL
MODEL      613
REMARK  Name = ZINC000000488339
REMARK                            x       y       z     vdW  Elec       q    Type
REMARK                         _______ _______ _______ _____ _____    ______ ____
ROOT
ATOM      1  C   LIG    1        0.002  -0.004   0.002  0.00  0.00    +0.490 A 
ATOM      2  N   LIG    1       -1.135  -0.686   0.004  0.00  0.00    -0.590 NA
ATOM      3  C   LIG    1       -1.130  -2.018  -0.004  0.00  0.00    +0.660 A 
ATOM      4  N   LIG    1        0.025  -2.709  -0.013  0.00  0.00    -0.520 N 
ATOM      5  C   LIG    1        1.221  -2.052  -0.015  0.00  0.00    +0.360 A 
ATOM      6  O   LIG    1       -2.190  -2.622  -0.002  0.00  0.00    -0.530 OA
ATOM      7  C   LIG    1        1.232  -0.697  -0.013  0.00  0.00    -0.090 A 
ATOM      8  F   LIG    1        2.401  -0.020  -0.015  0.00  0.00    -0.120 F 
ENDROOT
BRANCH   1   9
ATOM      9  N   LIG    1       -0.017   1.372   0.010  0.00  0.00    -0.810 N 
ATOM     10  H   LIG    1       -0.863   1.846   0.016  0.00  0.00    +0.420 HD
ATOM     11  H   LIG    1        0.817   1.868   0.004  0.00  0.00    +0.420 HD
ENDBRANCH   1   9
BRANCH   4  12
ATOM     12  C   LIG    1       -0.002  -4.174  -0.021  0.00  0.00    +0.290 C 
BRANCH  12  13
ATOM     13  C   LIG    1       -0.018  -4.675  -1.466  0.00  0.00    +0.200 C 
BRANCH  13  14
ATOM     14  O   LIG    1       -1.179  -4.174  -2.132  0.00  0.00    -0.540 OA
ATOM     15  H   LIG    1       -2.014  -4.446  -1.726  0.00  0.00    +0.380 HD
ENDBRANCH  13  14
BRANCH  13  16
ATOM     16  C   LIG    1       -0.047  -6.205  -1.475  0.00  0.00    +0.170 C 
BRANCH  16  17
ATOM     17  O   LIG    1        0.056  -6.676  -2.820  0.00  0.00    -0.560 OA
ATOM     18  H   LIG    1        0.044  -7.639  -2.902  0.00  0.00    +0.380 HD
ENDBRANCH  16  17
ENDBRANCH  13  16
ENDBRANCH  12  13
ENDBRANCH   4  12
TORSDOF 6
ENDMDL
MODEL      614
REMARK  Name = ZINC000255972819
REMARK                            x       y       z     vdW  Elec       q    Type
REMARK                         _______ _______ _______ _____ _____    ______ ____
ROOT
ATOM      1  C   LIG    1        2.422   1.183  -0.015  0.00  0.00    +0.250 C 
ATOM      2  C   LIG    1        2.822   0.819   1.417  0.00  0.00    +0.330 C 
ATOM      3  O   LIG    1        3.006   2.014   2.178  0.00  0.00    -0.390 OA
ATOM      4  C   LIG    1        4.037   2.870   1.681  0.00  0.00    +0.150 C 
ATOM      5  C   LIG    1        3.685   3.317   0.259  0.00  0.00    +0.120 C 
ATOM      6  C   LIG    1        3.502   2.080  -0.627  0.00  0.00    +0.190 C 
ENDROOT
BRANCH   1   9
ATOM      7  O   LIG    1        0.002  -0.004   0.002  0.00  0.00    -0.530 OA
ATOM      8  C   LIG    1       -0.014   1.209   0.009  0.00  0.00    +0.630 C 
ATOM      9  N   LIG    1        1.143   1.898   0.001  0.00  0.00    -0.730 N 
ATOM     10  H   LIG    1        1.130   2.868   0.007  0.00  0.00    +0.400 HD
ENDBRANCH   1   9
BRANCH   5  11
ATOM     11  O   LIG    1        4.741   4.127  -0.262  0.00  0.00    -0.550 OA
ATOM     12  H   LIG    1        4.914   4.927   0.254  0.00  0.00    +0.390 HD
ENDBRANCH   5  11
BRANCH   2  13
ATOM     13  O   LIG    1        1.792   0.028   2.013  0.00  0.00    -0.520 OA
ATOM     14  H   LIG    1        1.979  -0.240   2.924  0.00  0.00    +0.380 HD
ENDBRANCH   2  13
BRANCH   6  15
ATOM     15  O   LIG    1        4.735   1.361  -0.705  0.00  0.00    -0.550 OA
ATOM     16  H   LIG    1        5.466   1.873  -1.078  0.00  0.00    +0.400 HD
ENDBRANCH   6  15
BRANCH   4  17
ATOM     17  C   LIG    1        4.162   4.098   2.585  0.00  0.00    +0.200 C 
BRANCH  17  18
ATOM     18  O   LIG    1        4.602   3.690   3.882  0.00  0.00    -0.560 OA
ATOM     19  H   LIG    1        4.704   4.419   4.510  0.00  0.00    +0.380 HD
ENDBRANCH  17  18
ENDBRANCH   4  17
TORSDOF 6
ENDMDL
MODEL      615
REMARK  Name = ZINC000049093446
REMARK                            x       y       z     vdW  Elec       q    Type
REMARK                         _______ _______ _______ _____ _____    ______ ____
ROOT
ATOM      1  C   LIG    1       -2.994  -3.868   0.010  0.00  0.00    +0.520 C 
ATOM      2  N   LIG    1       -4.152  -4.558   0.017  0.00  0.00    -0.710 N 
ATOM      3  H   LIG    1       -4.998  -4.084   0.028  0.00  0.00    +0.410 HD
ATOM      4  O   LIG    1       -1.936  -4.460  -0.003  0.00  0.00    -0.540 OA
ENDROOT
BRANCH   2   5
ATOM      5  C   LIG    1       -4.132  -6.022   0.009  0.00  0.00    +0.250 C 
ATOM      6  C   LIG    1       -4.013  -6.523  -1.432  0.00  0.00    +0.060 C 
BRANCH   5   7
ATOM      7  C   LIG    1       -5.407  -6.545   0.619  0.00  0.00    +0.510 C 
ATOM      8  N   LIG    1       -5.611  -7.874   0.718  0.00  0.00    -0.730 N 
ATOM      9  H   LIG    1       -4.938  -8.493   0.397  0.00  0.00    +0.410 HD
ATOM     10  C   LIG    1       -6.851  -8.382   1.311  0.00  0.00    +0.290 C 
ATOM     11  O   LIG    1       -6.249  -5.771   1.021  0.00  0.00    -0.530 OA
ENDBRANCH   5   7
ENDBRANCH   2   5
BRANCH   1  12
ATOM     12  C   LIG    1       -3.014  -2.361   0.018  0.00  0.00    +0.300 C 
BRANCH  12  14
ATOM     13  C   LIG    1       -1.412  -0.526   0.013  0.00  0.00    +0.510 C 
ATOM     14  N   LIG    1       -1.640  -1.854   0.008  0.00  0.00    -0.720 N 
ATOM     15  H   LIG    1       -0.894  -2.474  -0.003  0.00  0.00    +0.410 HD
ATOM     16  O   LIG    1       -2.344   0.250   0.026  0.00  0.00    -0.540 OA
BRANCH  13  18
ATOM     17  C   LIG    1       -0.019   1.526   0.010  0.00  0.00    +0.040 C 
ATOM     18  C   LIG    1        0.002  -0.004   0.002  0.00  0.00    +0.060 C 
ENDBRANCH  13  18
ENDBRANCH  12  14
ENDBRANCH   1  12
TORSDOF 5
ENDMDL
MODEL      616
REMARK  Name = ZINC000000039936
REMARK                            x       y       z     vdW  Elec       q    Type
REMARK                         _______ _______ _______ _____ _____    ______ ____
ROOT
ATOM      1  C   LIG    1       -0.019   1.526   0.010  0.00  0.00    +0.050 C 
ATOM      2  C   LIG    1        0.002  -0.004   0.002  0.00  0.00    +0.240 C 
ATOM      3  O   LIG    1        0.688  -0.471  -1.168  0.00  0.00    -0.360 OA
ATOM      4  C   LIG    1        1.835  -1.223  -0.727  0.00  0.00    +0.360 C 
ATOM      5  O   LIG    1        1.471  -2.602  -0.599  0.00  0.00    -0.370 OA
ATOM      6  C   LIG    1        1.891  -3.120   0.666  0.00  0.00    +0.120 C 
ATOM      7  C   LIG    1        2.596  -1.980   1.427  0.00  0.00    +0.180 C 
ATOM      8  C   LIG    1        2.058  -0.697   0.726  0.00  0.00    +0.160 C 
ATOM      9  C   LIG    1       -1.432  -0.538   0.002  0.00  0.00    +0.080 C 
ATOM     10  O   LIG    1        0.697  -0.484   1.165  0.00  0.00    -0.340 OA
ENDROOT
BRANCH   7  11
ATOM     11  O   LIG    1        2.238  -1.998   2.811  0.00  0.00    -0.540 OA
ATOM     12  H   LIG    1        2.493  -2.809   3.272  0.00  0.00    +0.380 HD
ENDBRANCH   7  11
BRANCH   6  13
ATOM     13  C   LIG    1        2.863  -4.283   0.454  0.00  0.00    +0.220 C 
BRANCH  13  14
ATOM     14  O   LIG    1        4.042  -3.805  -0.197  0.00  0.00    -0.550 OA
ATOM     15  H   LIG    1        3.879  -3.408  -1.064  0.00  0.00    +0.380 HD
ENDBRANCH  13  14
BRANCH  13  16
ATOM     16  C   LIG    1        2.198  -5.352  -0.415  0.00  0.00    +0.170 C 
BRANCH  16  17
ATOM     17  O   LIG    1        3.060  -6.487  -0.516  0.00  0.00    -0.570 OA
ATOM     18  H   LIG    1        2.701  -7.206  -1.054  0.00  0.00    +0.380 HD
ENDBRANCH  16  17
ENDBRANCH  13  16
ENDBRANCH   6  13
TORSDOF 5
ENDMDL
MODEL      617
REMARK  Name = ZINC000013142804
REMARK                            x       y       z     vdW  Elec       q    Type
REMARK                         _______ _______ _______ _____ _____    ______ ____
ROOT
ATOM      1  C   LIG    1       -1.135  -2.201   0.001  0.00  0.00    +0.230 C 
ATOM      2  N   LIG    1       -2.473  -2.724   0.224  0.00  0.00    -0.430 NA
ATOM      3  C   LIG    1       -3.265  -2.564  -0.816  0.00  0.00    +0.490 C 
ATOM      4  N   LIG    1       -2.827  -1.947  -1.956  0.00  0.00    -0.160 NA
ATOM      5  N   LIG    1       -1.619  -1.992  -2.324  0.00  0.00    -0.080 NA
ATOM      6  N   LIG    1        0.003  -2.693   0.754  0.00  0.00    -0.600 N 
ATOM      7  C   LIG    1        0.005  -3.122   2.154  0.00  0.00    +0.350 C 
ATOM      8  C   LIG    1        1.050  -2.696  -0.103  0.00  0.00    +0.700 C 
ATOM      9  O   LIG    1        2.207  -2.827   0.249  0.00  0.00    -0.530 OA
ATOM     10  N   LIG    1        0.672  -2.523  -1.400  0.00  0.00    -0.610 N 
ATOM     11  C   LIG    1        1.534  -2.190  -2.536  0.00  0.00    +0.360 C 
ATOM     12  C   LIG    1       -0.762  -2.737  -1.423  0.00  0.00    +0.290 C 
ENDROOT
BRANCH   1  16
ATOM     13  C   LIG    1       -0.018   1.461   0.010  0.00  0.00    +0.310 C 
ATOM     14  N   LIG    1        0.002  -0.004   0.002  0.00  0.00    -0.710 N 
ATOM     15  H   LIG    1        0.849  -0.478  -0.009  0.00  0.00    +0.400 HD
ATOM     16  C   LIG    1       -1.156  -0.694   0.009  0.00  0.00    +0.500 C 
ATOM     17  O   LIG    1       -2.214  -0.102   0.023  0.00  0.00    -0.500 OA
ENDBRANCH   1  16
TORSDOF 1
ENDMDL
MODEL      618
REMARK  Name = ZINC000001591037
REMARK                            x       y       z     vdW  Elec       q    Type
REMARK                         _______ _______ _______ _____ _____    ______ ____
ROOT
ATOM      1  N   LEU A  3       -2.173   1.101  -1.559  0.00  0.00    -0.680 N 
ATOM      2  H   LEU A  3       -2.206   1.684  -0.784  0.00  0.00    +0.400 HD
ATOM      3  C   GLY A  2       -2.240   1.624  -2.799  0.00  0.00    +0.500 C 
ATOM      4  O   GLY A  2       -2.199   0.895  -3.768  0.00  0.00    -0.550 OA
ENDROOT
BRANCH   1   5
ATOM      5  CA  LEU A  3       -2.050  -0.348  -1.381  0.00  0.00    +0.160 C 
BRANCH   5   6
ATOM      6  C   LEU A  3       -3.420  -0.977  -1.415  0.00  0.00    +0.490 C 
ATOM      7  OXT LEU A  3       -3.558  -2.116  -1.826  0.00  0.00    -0.690 OA
ATOM      8  O   LEU A  3       -4.390  -0.345  -1.031  0.00  0.00    -0.690 OA
ENDBRANCH   5   6
BRANCH   5   9
ATOM      9  CB  LEU A  3       -1.388  -0.642  -0.033  0.00  0.00    +0.040 C 
BRANCH   9  11
ATOM     10  CD1 LEU A  3        0.653  -0.260   1.356  0.00  0.00    +0.010 C 
ATOM     11  CG  LEU A  3        0.039  -0.090  -0.035  0.00  0.00    -0.030 C 
ATOM     12  CD2 LEU A  3        0.879  -0.854  -1.060  0.00  0.00    +0.020 C 
ENDBRANCH   9  11
ENDBRANCH   5   9
ENDBRANCH   1   5
BRANCH   3  13
ATOM     13  CA  GLY A  2       -2.367   3.114  -2.983  0.00  0.00    +0.320 C 
BRANCH  13  14
ATOM     14  N   GLY A  2       -2.420   3.427  -4.413  0.00  0.00    -0.680 N 
ATOM     15  H   GLY A  2       -2.374   2.713  -5.068  0.00  0.00    +0.420 HD
ATOM     16  C   GLY A  1       -2.534   4.707  -4.819  0.00  0.00    +0.490 C 
ATOM     17  O   GLY A  1       -2.591   5.600  -4.000  0.00  0.00    -0.540 OA
BRANCH  16  18
ATOM     18  CA  GLY A  1       -2.589   5.029  -6.290  0.00  0.00    +0.310 C 
BRANCH  18  19
ATOM     19  N   GLY A  1       -2.712   6.482  -6.469  0.00  0.00    -0.620 N 
ATOM     20  H1  GLY A  1       -1.915   6.941  -6.054  0.00  0.00    +0.440 HD
ATOM     21  H2  GLY A  1       -3.557   6.806  -6.022  0.00  0.00    +0.440 HD
ATOM     22  H3  GLY A  1       -2.749   6.698  -7.454  0.00  0.00    +0.440 HD
ENDBRANCH  18  19
ENDBRANCH  16  18
ENDBRANCH  13  14
ENDBRANCH   3  13
TORSDOF 8
ENDMDL
MODEL      619
REMARK  Name = ZINC000001590504
REMARK                            x       y       z     vdW  Elec       q    Type
REMARK                         _______ _______ _______ _____ _____    ______ ____
ROOT
ATOM      1  N   LIG    1        0.690  -0.478  -1.207  0.00  0.00    -0.500 N 
ATOM      2  H   LIG    1        0.202  -0.144  -2.024  0.00  0.00    +0.430 HD
ATOM      3  H   LIG    1        0.703  -1.487  -1.212  0.00  0.00    +0.430 HD
ENDROOT
BRANCH   1   5
ATOM      4  C   LIG    1       -0.019   1.526   0.010  0.00  0.00    +0.100 C 
ATOM      5  C   LIG    1        0.002  -0.004   0.002  0.00  0.00    +0.050 C 
ATOM      6  C   LIG    1        0.742  -0.511   1.242  0.00  0.00    +0.100 C 
BRANCH   5   7
ATOM      7  C   LIG    1       -1.433  -0.534   0.013  0.00  0.00    +0.210 C 
BRANCH   7   8
ATOM      8  O   LIG    1       -2.102  -0.073   1.189  0.00  0.00    -0.550 OA
ATOM      9  H   LIG    1       -3.019  -0.371   1.262  0.00  0.00    +0.400 HD
ENDBRANCH   7   8
ENDBRANCH   5   7
ENDBRANCH   1   5
BRANCH   1  10
ATOM     10  C   LIG    1        2.068   0.031  -1.217  0.00  0.00    +0.230 C 
BRANCH  10  11
ATOM     11  C   LIG    1        2.784  -0.463  -2.476  0.00  0.00    +0.240 C 
BRANCH  11  12
ATOM     12  O   LIG    1        2.163   0.105  -3.631  0.00  0.00    -0.540 OA
ATOM     13  H   LIG    1        2.181   1.072  -3.652  0.00  0.00    +0.390 HD
ENDBRANCH  11  12
BRANCH  11  14
ATOM     14  C   LIG    1        4.253  -0.038  -2.426  0.00  0.00    -0.480 C 
BRANCH  14  15
ATOM     15  S   LIG    1        5.102  -0.623  -3.919  0.00  0.00    +2.640 S 
ATOM     16  O   LIG    1        4.459  -0.037  -5.085  0.00  0.00    -1.040 OA
ATOM     17  O   LIG    1        5.010  -2.074  -3.973  0.00  0.00    -1.060 OA
ATOM     18  O   LIG    1        6.496  -0.212  -3.857  0.00  0.00    -1.050 OA
ENDBRANCH  14  15
ENDBRANCH  11  14
ENDBRANCH  10  11
ENDBRANCH   1  10
TORSDOF 8
ENDMDL
MODEL      620
REMARK  Name = ZINC000055958433
REMARK                            x       y       z     vdW  Elec       q    Type
REMARK                         _______ _______ _______ _____ _____    ______ ____
ROOT
ATOM      1  N   LIG    1        1.291  -2.644  -2.232  0.00  0.00    -0.710 N 
ATOM      2  H   LIG    1        1.942  -2.076  -2.673  0.00  0.00    +0.410 HD
ATOM      3  C   LIG    1        1.017  -3.867  -2.727  0.00  0.00    +0.510 C 
ATOM      4  O   LIG    1        0.203  -4.576  -2.175  0.00  0.00    -0.510 OA
ENDROOT
BRANCH   1   5
ATOM      5  C   LIG    1        0.606  -2.171  -1.026  0.00  0.00    +0.250 C 
ATOM      6  C   LIG    1        1.345  -2.678   0.213  0.00  0.00    +0.070 C 
BRANCH   5  10
ATOM      7  C   LIG    1       -0.018   1.461   0.010  0.00  0.00    +0.280 C 
ATOM      8  N   LIG    1        0.002  -0.004   0.002  0.00  0.00    -0.730 N 
ATOM      9  H   LIG    1       -0.404  -0.499   0.731  0.00  0.00    +0.410 HD
ATOM     10  C   LIG    1        0.585  -0.664  -1.018  0.00  0.00    +0.510 C 
ATOM     11  O   LIG    1        1.093  -0.046  -1.929  0.00  0.00    -0.530 OA
ENDBRANCH   5  10
ENDBRANCH   1   5
BRANCH   3  12
ATOM     12  C   LIG    1        1.723  -4.353  -3.967  0.00  0.00    +0.390 C 
BRANCH  12  13
ATOM     13  N   LIG    1        1.254  -5.701  -4.299  0.00  0.00    -0.310 N 
ATOM     14  C   LIG    1        0.738  -6.100  -5.476  0.00  0.00    +0.400 A 
ATOM     15  N   LIG    1        0.450  -7.372  -5.348  0.00  0.00    -0.300 NA
ATOM     16  N   LIG    1        0.771  -7.735  -4.154  0.00  0.00    -0.070 NA
ATOM     17  N   LIG    1        1.263  -6.729  -3.520  0.00  0.00    -0.060 NA
ENDBRANCH  12  13
ENDBRANCH   3  12
TORSDOF 4
ENDMDL
MODEL      621
REMARK  Name = ZINC000048748325
REMARK                            x       y       z     vdW  Elec       q    Type
REMARK                         _______ _______ _______ _____ _____    ______ ____
ROOT
ATOM      1  N   LIG    1       -2.510  -2.708   0.011  0.00  0.00    -0.710 N 
ATOM      2  H   LIG    1       -3.232  -2.159  -0.334  0.00  0.00    +0.410 HD
ATOM      3  C   LIG    1       -2.771  -3.936   0.501  0.00  0.00    +0.520 C 
ATOM      4  O   LIG    1       -1.869  -4.622   0.932  0.00  0.00    -0.540 OA
ENDROOT
BRANCH   1   5
ATOM      5  C   LIG    1       -1.135  -2.201   0.001  0.00  0.00    +0.250 C 
ATOM      6  C   LIG    1       -0.419  -2.694  -1.258  0.00  0.00    +0.060 C 
BRANCH   5  10
ATOM      7  C   LIG    1       -0.018   1.461   0.010  0.00  0.00    +0.290 C 
ATOM      8  N   LIG    1        0.002  -0.004   0.002  0.00  0.00    -0.730 N 
ATOM      9  H   LIG    1        0.849  -0.478  -0.009  0.00  0.00    +0.410 HD
ATOM     10  C   LIG    1       -1.156  -0.694   0.009  0.00  0.00    +0.510 C 
ATOM     11  O   LIG    1       -2.214  -0.102   0.023  0.00  0.00    -0.530 OA
ENDBRANCH   5  10
ENDBRANCH   1   5
BRANCH   3  12
ATOM     12  C   LIG    1       -4.185  -4.458   0.511  0.00  0.00    +0.300 C 
BRANCH  12  13
ATOM     13  N   LIG    1       -4.204  -5.804   1.088  0.00  0.00    -0.720 N 
ATOM     14  H   LIG    1       -3.379  -6.215   1.390  0.00  0.00    +0.410 HD
ATOM     15  C   LIG    1       -5.369  -6.473   1.200  0.00  0.00    +0.550 C 
ATOM     16  O   LIG    1       -6.402  -5.960   0.823  0.00  0.00    -0.540 OA
BRANCH  15  17
ATOM     17  C   LIG    1       -5.389  -7.858   1.793  0.00  0.00    -0.070 C 
ATOM     18  C   LIG    1       -6.062  -8.033   3.156  0.00  0.00    +0.060 C 
ATOM     19  C   LIG    1       -6.743  -8.565   1.892  0.00  0.00    +0.070 C 
ENDBRANCH  15  17
ENDBRANCH  12  13
ENDBRANCH   3  12
TORSDOF 5
ENDMDL
MODEL      622
REMARK  Name = ZINC000055957920
REMARK                            x       y       z     vdW  Elec       q    Type
REMARK                         _______ _______ _______ _____ _____    ______ ____
ROOT
ATOM      1  N   LIG    1        1.333  -2.667   2.182  0.00  0.00    -0.710 N 
ATOM      2  H   LIG    1        1.381  -2.115   2.978  0.00  0.00    +0.410 HD
ATOM      3  C   LIG    1        1.918  -3.882   2.168  0.00  0.00    +0.510 C 
ATOM      4  O   LIG    1        1.858  -4.572   1.173  0.00  0.00    -0.510 OA
ENDROOT
BRANCH   1   5
ATOM      5  C   LIG    1        0.625  -2.182   0.995  0.00  0.00    +0.250 C 
ATOM      6  C   LIG    1       -0.811  -2.712   1.006  0.00  0.00    +0.060 C 
BRANCH   5  10
ATOM      7  C   LIG    1       -0.018   1.461   0.010  0.00  0.00    +0.290 C 
ATOM      8  N   LIG    1        0.002  -0.004   0.002  0.00  0.00    -0.730 N 
ATOM      9  H   LIG    1       -0.418  -0.491  -0.724  0.00  0.00    +0.410 HD
ATOM     10  C   LIG    1        0.604  -0.675   1.004  0.00  0.00    +0.510 C 
ATOM     11  O   LIG    1        1.130  -0.067   1.911  0.00  0.00    -0.530 OA
ENDBRANCH   5  10
ENDBRANCH   1   5
BRANCH   3  12
ATOM     12  C   LIG    1        2.647  -4.381   3.389  0.00  0.00    +0.360 C 
BRANCH  12  13
ATOM     13  N   LIG    1        3.190  -5.715   3.122  0.00  0.00    -0.370 N 
ATOM     14  C   LIG    1        4.470  -6.105   3.254  0.00  0.00    +0.480 A 
ATOM     15  N   LIG    1        4.545  -7.368   2.920  0.00  0.00    -0.540 NA
ATOM     16  C   LIG    1        3.340  -7.817   2.572  0.00  0.00    +0.420 A 
ATOM     17  N   LIG    1        2.476  -6.842   2.684  0.00  0.00    -0.290 NA
ENDBRANCH  12  13
ENDBRANCH   3  12
TORSDOF 4
ENDMDL
MODEL      623
REMARK  Name = ZINC000055962232
REMARK                            x       y       z     vdW  Elec       q    Type
REMARK                         _______ _______ _______ _____ _____    ______ ____
ROOT
ATOM      1  N   LIG    1        1.333  -2.667   2.182  0.00  0.00    -0.710 N 
ATOM      2  H   LIG    1        1.381  -2.115   2.978  0.00  0.00    +0.410 HD
ATOM      3  C   LIG    1        1.918  -3.882   2.168  0.00  0.00    +0.500 C 
ATOM      4  O   LIG    1        1.858  -4.572   1.173  0.00  0.00    -0.530 OA
ENDROOT
BRANCH   1   5
ATOM      5  C   LIG    1        0.625  -2.182   0.995  0.00  0.00    +0.250 C 
ATOM      6  C   LIG    1       -0.811  -2.712   1.006  0.00  0.00    +0.060 C 
BRANCH   5  10
ATOM      7  C   LIG    1       -0.018   1.461   0.010  0.00  0.00    +0.290 C 
ATOM      8  N   LIG    1        0.002  -0.004   0.002  0.00  0.00    -0.730 N 
ATOM      9  H   LIG    1       -0.418  -0.491  -0.724  0.00  0.00    +0.410 HD
ATOM     10  C   LIG    1        0.604  -0.675   1.004  0.00  0.00    +0.510 C 
ATOM     11  O   LIG    1        1.130  -0.067   1.911  0.00  0.00    -0.530 OA
ENDBRANCH   5  10
ENDBRANCH   1   5
BRANCH   3  12
ATOM     12  C   LIG    1        2.647  -4.381   3.389  0.00  0.00    +0.350 C 
BRANCH  12  13
ATOM     13  N   LIG    1        3.190  -5.715   3.122  0.00  0.00    -0.580 N 
ATOM     14  C   LIG    1        2.452  -6.810   3.393  0.00  0.00    +0.660 C 
ATOM     15  O   LIG    1        1.335  -6.690   3.858  0.00  0.00    -0.570 OA
ATOM     16  C   LIG    1        4.536  -5.860   2.561  0.00  0.00    +0.300 C 
BRANCH  14  17
ATOM     17  O   LIG    1        2.950  -8.036   3.148  0.00  0.00    -0.370 OA
ATOM     18  C   LIG    1        2.099  -9.169   3.464  0.00  0.00    +0.280 C 
ENDBRANCH  14  17
ENDBRANCH  12  13
ENDBRANCH   3  12
TORSDOF 5
ENDMDL
MODEL      624
REMARK  Name = ZINC000003123976
REMARK                            x       y       z     vdW  Elec       q    Type
REMARK                         _______ _______ _______ _____ _____    ______ ____
ROOT
ATOM      1  C   LIG    1       -0.285  -1.359   2.101  0.00  0.00    -0.010 C 
ENDROOT
BRANCH   1   9
ATOM      2  C   LIG    1       -1.582  -0.421  -1.051  0.00  0.00    +0.040 C 
ATOM      3  C   LIG    1       -1.267  -1.625  -0.162  0.00  0.00    +0.000 C 
ATOM      4  C   LIG    1       -1.165  -2.885  -1.044  0.00  0.00    -0.300 C 
ATOM      5  S   LIG    1        0.642  -3.023  -1.353  0.00  0.00    +2.380 S 
ATOM      6  C   LIG    1        1.112  -2.399   0.310  0.00  0.00    -0.290 C 
ATOM      7  O   LIG    1        1.033  -2.087  -2.348  0.00  0.00    -0.920 OA
ATOM      8  O   LIG    1        1.007  -4.391  -1.475  0.00  0.00    -0.930 OA
ATOM      9  C   LIG    1        0.022  -1.351   0.602  0.00  0.00    +0.070 C 
ENDBRANCH   1   9
BRANCH   1  10
ATOM     10  C   LIG    1       -1.376  -0.362   2.395  0.00  0.00    +0.530 C 
ATOM     11  O   LIG    1       -1.368   0.723   1.853  0.00  0.00    -0.510 OA
ATOM     12  N   LIG    1       -2.361  -0.677   3.259  0.00  0.00    -0.850 N 
ATOM     13  H   LIG    1       -3.021  -0.010   3.506  0.00  0.00    +0.410 HD
ATOM     14  H   LIG    1       -2.410  -1.570   3.635  0.00  0.00    +0.400 HD
ENDBRANCH   1  10
BRANCH   1  15
ATOM     15  C   LIG    1        0.956  -0.987   2.870  0.00  0.00    +0.530 C 
ATOM     16  O   LIG    1        1.728  -0.169   2.417  0.00  0.00    -0.510 OA
ATOM     17  N   LIG    1        1.208  -1.563   4.062  0.00  0.00    -0.850 N 
ATOM     18  H   LIG    1        1.968  -1.273   4.590  0.00  0.00    +0.410 HD
ATOM     19  H   LIG    1        0.629  -2.268   4.392  0.00  0.00    +0.400 HD
ENDBRANCH   1  15
TORSDOF 3
ENDMDL
MODEL      625
REMARK  Name = ZINC000065434202
REMARK                            x       y       z     vdW  Elec       q    Type
REMARK                         _______ _______ _______ _____ _____    ______ ____
ROOT
ATOM      1  N   LIG    1        1.598  -0.455   0.206  0.00  0.00    -1.000 NA
ATOM      2  C   LIG    1        2.239  -0.879  -1.047  0.00  0.00    +0.290 C 
ATOM      3  C   LIG    1        3.492  -0.024  -1.270  0.00  0.00    +0.290 C 
ATOM      4  N   LIG    1        4.286  -0.023  -0.033  0.00  0.00    -0.600 N 
ATOM      5  C   LIG    1        3.645   0.402   1.219  0.00  0.00    +0.290 C 
ATOM      6  C   LIG    1        2.393  -0.448   1.442  0.00  0.00    +0.290 C 
ENDROOT
BRANCH   4   7
ATOM      7  C   LIG    1        5.620  -0.415  -0.048  0.00  0.00    +0.360 A 
ATOM      8  C   LIG    1        6.280  -0.600  -1.261  0.00  0.00    +0.150 A 
ATOM      9  N   LIG    1        7.545  -0.973  -1.270  0.00  0.00    -0.400 NA
ATOM     10  C   LIG    1        8.187  -1.170  -0.131  0.00  0.00    +0.150 A 
ATOM     11  C   LIG    1        7.535  -0.988   1.074  0.00  0.00    +0.280 A 
ATOM     12  N   LIG    1        6.269  -0.609   1.093  0.00  0.00    -0.500 NA
ENDBRANCH   4   7
BRANCH   1  13
ATOM     13  S   LIG    1        0.010   0.014   0.223  0.00  0.00    +2.800 S 
ATOM     14  O   LIG    1       -0.603  -0.602  -0.901  0.00  0.00    -0.980 OA
ATOM     15  O   LIG    1       -0.448  -0.171   1.556  0.00  0.00    -0.980 OA
BRANCH  13  16
ATOM     16  N   LIG    1       -0.023   1.645  -0.061  0.00  0.00    -1.260 NA
ATOM     17  H   LIG    1       -0.872   2.114  -0.095  0.00  0.00    +0.420 HD
ATOM     18  H   LIG    1        0.805   2.130  -0.199  0.00  0.00    +0.410 HD
ENDBRANCH  13  16
ENDBRANCH   1  13
TORSDOF 3
ENDMDL
MODEL      626
REMARK  Name = ZINC000005211799
REMARK                            x       y       z     vdW  Elec       q    Type
REMARK                         _______ _______ _______ _____ _____    ______ ____
ROOT
ATOM      1  C   LIG    1        0.629   0.483   2.427  0.00  0.00    +0.000 C 
ENDROOT
BRANCH   1   9
ATOM      2  C   LIG    1       -0.387   2.134   0.638  0.00  0.00    +0.040 C 
ATOM      3  C   LIG    1        0.539   1.093   0.006  0.00  0.00    +0.020 C 
ATOM      4  C   LIG    1        1.392   1.775  -1.074  0.00  0.00    -0.300 C 
ATOM      5  S   LIG    1        3.127   1.580  -0.516  0.00  0.00    +2.390 S 
ATOM      6  C   LIG    1        2.706   1.272   1.246  0.00  0.00    -0.310 C 
ATOM      7  O   LIG    1        3.809   2.821  -0.638  0.00  0.00    -0.930 OA
ATOM      8  O   LIG    1        3.682   0.403  -1.087  0.00  0.00    -0.920 OA
ATOM      9  C   LIG    1        1.396   0.459   1.103  0.00  0.00    +0.060 C 
ENDBRANCH   1   9
BRANCH   1  10
ATOM     10  C   LIG    1        1.465  -0.159   3.504  0.00  0.00    +0.530 C 
ATOM     11  O   LIG    1        2.164  -1.115   3.240  0.00  0.00    -0.510 OA
ATOM     12  N   LIG    1        1.437   0.330   4.760  0.00  0.00    -0.850 N 
ATOM     13  H   LIG    1        1.917  -0.127   5.468  0.00  0.00    +0.410 HD
ATOM     14  H   LIG    1        0.937   1.137   4.955  0.00  0.00    +0.400 HD
ENDBRANCH   1  10
BRANCH   1  15
ATOM     15  C   LIG    1       -0.662  -0.279   2.273  0.00  0.00    +0.530 C 
ATOM     16  O   LIG    1       -0.714  -1.243   1.539  0.00  0.00    -0.510 OA
ATOM     17  N   LIG    1       -1.760   0.111   2.951  0.00  0.00    -0.850 N 
ATOM     18  H   LIG    1       -2.570  -0.421   2.909  0.00  0.00    +0.410 HD
ATOM     19  H   LIG    1       -1.740   0.923   3.480  0.00  0.00    +0.400 HD
ENDBRANCH   1  15
TORSDOF 3
ENDMDL
MODEL      627
REMARK  Name = ZINC000065430549
REMARK                            x       y       z     vdW  Elec       q    Type
REMARK                         _______ _______ _______ _____ _____    ______ ____
ROOT
ATOM      1  N   LIG    1        1.401  -2.532  -0.162  0.00  0.00    -0.600 N 
ATOM      2  C   LIG    1        0.723  -2.650  -1.450  0.00  0.00    +0.330 C 
ATOM      3  C   LIG    1        1.452  -3.623  -2.336  0.00  0.00    +0.520 C 
ATOM      4  N   LIG    1        2.783  -3.738  -2.287  0.00  0.00    -0.610 N 
ATOM      5  C   LIG    1        3.530  -4.299  -3.429  0.00  0.00    +0.290 C 
ATOM      6  C   LIG    1        4.485  -3.205  -3.928  0.00  0.00    -0.010 C 
ATOM      7  C   LIG    1        5.372  -2.726  -2.778  0.00  0.00    +0.170 C 
ATOM      8  C   LIG    1        4.511  -2.159  -1.643  0.00  0.00    +0.060 C 
ATOM      9  C   LIG    1        3.569  -3.256  -1.151  0.00  0.00    +0.250 C 
ATOM     10  O   LIG    1        0.821  -4.316  -3.107  0.00  0.00    -0.520 OA
ATOM     11  C   LIG    1        2.709  -2.795  -0.024  0.00  0.00    +0.520 C 
ATOM     12  O   LIG    1        3.214  -2.657   1.070  0.00  0.00    -0.520 OA
ENDROOT
BRANCH   7  13
ATOM     13  O   LIG    1        6.253  -1.706  -3.254  0.00  0.00    -0.560 OA
ATOM     14  H   LIG    1        6.840  -1.995  -3.967  0.00  0.00    +0.380 HD
ENDBRANCH   7  13
BRANCH   1  15
ATOM     15  C   LIG    1        0.633  -2.108   1.011  0.00  0.00    +0.310 C 
BRANCH  15  16
ATOM     16  C   LIG    1        0.673  -0.582   1.123  0.00  0.00    +0.160 C 
BRANCH  16  18
ATOM     17  C   LIG    1       -0.017   1.425   0.010  0.00  0.00    +0.200 C 
ATOM     18  O   LIG    1        0.002  -0.004   0.002  0.00  0.00    -0.390 OA
ENDBRANCH  16  18
ENDBRANCH  15  16
ENDBRANCH   1  15
TORSDOF 4
ENDMDL
MODEL      628
REMARK  Name = ZINC000035170765
REMARK                            x       y       z     vdW  Elec       q    Type
REMARK                         _______ _______ _______ _____ _____    ______ ____
ROOT
ATOM      1  N   LIG    1        1.401  -2.532  -0.162  0.00  0.00    -0.590 N 
ATOM      2  C   LIG    1        0.877  -2.700  -1.522  0.00  0.00    +0.350 C 
ATOM      3  C   LIG    1        2.044  -3.146  -2.373  0.00  0.00    -0.300 C 
ATOM      4  C   LIG    1        3.121  -3.217  -1.552  0.00  0.00    +0.220 C 
ATOM      5  C   LIG    1        2.713  -2.829  -0.183  0.00  0.00    +0.540 C 
ATOM      6  O   LIG    1        3.452  -2.792   0.780  0.00  0.00    -0.510 OA
ENDROOT
BRANCH   4   7
ATOM      7  N   LIG    1        4.392  -3.587  -1.932  0.00  0.00    -0.800 N 
ATOM      8  H   LIG    1        5.106  -3.611  -1.277  0.00  0.00    +0.410 HD
ATOM      9  H   LIG    1        4.572  -3.823  -2.856  0.00  0.00    +0.420 HD
ENDBRANCH   4   7
BRANCH   3  10
ATOM     10  C   LIG    1        2.017  -3.443  -3.805  0.00  0.00    +0.540 C 
ATOM     11  O   LIG    1        3.033  -3.795  -4.372  0.00  0.00    -0.530 OA
BRANCH  10  12
ATOM     12  O   LIG    1        0.864  -3.327  -4.496  0.00  0.00    -0.350 OA
ATOM     13  C   LIG    1        0.910  -3.633  -5.891  0.00  0.00    +0.260 C 
ENDBRANCH  10  12
ENDBRANCH   3  10
BRANCH   1  14
ATOM     14  C   LIG    1        0.633  -2.108   1.011  0.00  0.00    +0.350 C 
BRANCH  14  15
ATOM     15  C   LIG    1        0.673  -0.582   1.123  0.00  0.00    +0.170 C 
BRANCH  15  17
ATOM     16  C   LIG    1       -0.017   1.425   0.010  0.00  0.00    +0.200 C 
ATOM     17  O   LIG    1        0.002  -0.004   0.002  0.00  0.00    -0.390 OA
ENDBRANCH  15  17
ENDBRANCH  14  15
ENDBRANCH   1  14
TORSDOF 6
ENDMDL
MODEL      629
REMARK  Name = ZINC000064219138
REMARK                            x       y       z     vdW  Elec       q    Type
REMARK                         _______ _______ _______ _____ _____    ______ ____
ROOT
ATOM      1  C   LIG    1       -1.136  -2.159   0.001  0.00  0.00    +0.250 C 
ATOM      2  C   LIG    1       -1.020  -2.661  -1.440  0.00  0.00    +0.330 C 
ATOM      3  O   LIG    1       -2.166  -2.240  -2.183  0.00  0.00    -0.400 OA
ATOM      4  C   LIG    1       -3.405  -2.747  -1.682  0.00  0.00    +0.150 C 
ATOM      5  C   LIG    1       -3.616  -2.248  -0.250  0.00  0.00    +0.120 C 
ATOM      6  C   LIG    1       -2.433  -2.692   0.618  0.00  0.00    +0.190 C 
ENDROOT
BRANCH   1   9
ATOM      7  C   LIG    1       -0.018   1.503   0.010  0.00  0.00    +0.090 C 
ATOM      8  C   LIG    1        0.002  -0.004   0.002  0.00  0.00    +0.500 C 
ATOM      9  N   LIG    1       -1.156  -0.694   0.009  0.00  0.00    -0.720 N 
ATOM     10  H   LIG    1       -2.002  -0.220   0.020  0.00  0.00    +0.400 HD
ATOM     11  O   LIG    1        1.060  -0.596  -0.011  0.00  0.00    -0.520 OA
ENDBRANCH   1   9
BRANCH   2  12
ATOM     12  N   LIG    1        0.193  -2.107  -2.056  0.00  0.00    -0.790 NA
ATOM     13  H   LIG    1        0.195  -1.099  -2.008  0.00  0.00    +0.350 HD
ATOM     14  H   LIG    1        0.292  -2.424  -3.009  0.00  0.00    +0.350 HD
ENDBRANCH   2  12
BRANCH   5  15
ATOM     15  O   LIG    1       -4.826  -2.800   0.274  0.00  0.00    -0.560 OA
ATOM     16  H   LIG    1       -5.617  -2.562  -0.230  0.00  0.00    +0.390 HD
ENDBRANCH   5  15
BRANCH   6  17
ATOM     17  O   LIG    1       -2.587  -2.170   1.939  0.00  0.00    -0.550 OA
ATOM     18  H   LIG    1       -3.393  -2.462   2.386  0.00  0.00    +0.390 HD
ENDBRANCH   6  17
BRANCH   4  19
ATOM     19  C   LIG    1       -4.552  -2.258  -2.568  0.00  0.00    +0.200 C 
BRANCH  19  20
ATOM     20  O   LIG    1       -4.417  -2.818  -3.875  0.00  0.00    -0.560 OA
ATOM     21  H   LIG    1       -5.112  -2.550  -4.492  0.00  0.00    +0.380 HD
ENDBRANCH  19  20
ENDBRANCH   4  19
TORSDOF 6
ENDMDL
MODEL      630
REMARK  Name = ZINC000065373100
REMARK                            x       y       z     vdW  Elec       q    Type
REMARK                         _______ _______ _______ _____ _____    ______ ____
ROOT
ATOM      1  O   LIG    1        0.002  -0.004   0.002  0.00  0.00    -0.910 OA
ATOM      2  S   LIG    1       -0.017   1.417   0.010  0.00  0.00    +2.400 S 
ATOM      3  C   LIG    1       -0.410   2.019   1.702  0.00  0.00    -0.310 C 
ATOM      4  C   LIG    1        0.371   3.359   1.733  0.00  0.00    +0.190 C 
ATOM      5  C   LIG    1        1.738   3.144   1.080  0.00  0.00    +0.290 C 
ATOM      6  O   LIG    1       -0.796   2.124  -0.946  0.00  0.00    -0.910 OA
ATOM      7  C   LIG    1        1.700   2.055  -0.003  0.00  0.00    -0.300 C 
ENDROOT
BRANCH   5   8
ATOM      8  N   LIG    1        2.176   4.402   0.471  0.00  0.00    -0.480 N 
ATOM      9  C   LIG    1        1.541   5.103  -0.498  0.00  0.00    +0.360 A 
ATOM     10  N   LIG    1        2.266   6.158  -0.753  0.00  0.00    -0.290 NA
ATOM     11  N   LIG    1        3.311   6.157  -0.004  0.00  0.00    -0.290 NA
ATOM     12  C   LIG    1        3.297   5.104   0.767  0.00  0.00    +0.390 A 
ENDBRANCH   5   8
BRANCH   4  13
ATOM     13  O   LIG    1        0.549   3.780   3.087  0.00  0.00    -0.540 OA
ATOM     14  H   LIG    1       -0.279   3.944   3.560  0.00  0.00    +0.400 HD
ENDBRANCH   4  13
TORSDOF 2
ENDMDL
MODEL      631
REMARK  Name = ZINC000006761412
REMARK                            x       y       z     vdW  Elec       q    Type
REMARK                         _______ _______ _______ _____ _____    ______ ____
ROOT
ATOM      1  C   LIG    1        0.020  -2.136  -1.177  0.00  0.00    +0.220 C 
ATOM      2  C   LIG    1        1.448  -2.627  -1.082  0.00  0.00    +0.480 C 
ATOM      3  O   LIG    1        1.685  -3.938  -1.300  0.00  0.00    -0.350 OA
ATOM      4  C   LIG    1        1.116  -4.486  -2.521  0.00  0.00    +0.180 C 
ATOM      5  C   LIG    1       -0.382  -4.170  -2.565  0.00  0.00    +0.190 C 
ATOM      6  O   LIG    1        2.350  -1.868  -0.818  0.00  0.00    -0.430 OA
ATOM      7  C   LIG    1       -0.584  -2.654  -2.488  0.00  0.00    +0.210 C 
ENDROOT
BRANCH   1  10
ATOM      8  C   LIG    1       -0.018   1.503   0.010  0.00  0.00    +0.110 C 
ATOM      9  C   LIG    1        0.002  -0.004   0.002  0.00  0.00    +0.520 C 
ATOM     10  N   LIG    1        0.000  -0.672  -1.169  0.00  0.00    -0.720 N 
ATOM     11  H   LIG    1       -0.015  -0.182  -2.006  0.00  0.00    +0.400 HD
ATOM     12  O   LIG    1        0.020  -0.616   1.049  0.00  0.00    -0.530 OA
ENDBRANCH   1  10
BRANCH   5  13
ATOM     13  O   LIG    1       -1.033  -4.795  -1.457  0.00  0.00    -0.550 OA
ATOM     14  H   LIG    1       -0.945  -5.758  -1.440  0.00  0.00    +0.390 HD
ENDBRANCH   5  13
BRANCH   7  15
ATOM     15  O   LIG    1        0.067  -2.028  -3.596  0.00  0.00    -0.550 OA
ATOM     16  H   LIG    1       -0.021  -1.065  -3.610  0.00  0.00    +0.390 HD
ENDBRANCH   7  15
BRANCH   4  17
ATOM     17  C   LIG    1        1.321  -6.002  -2.545  0.00  0.00    +0.220 C 
BRANCH  17  18
ATOM     18  O   LIG    1        2.718  -6.293  -2.615  0.00  0.00    -0.560 OA
ATOM     19  H   LIG    1        2.923  -7.238  -2.634  0.00  0.00    +0.390 HD
ENDBRANCH  17  18
ENDBRANCH   4  17
TORSDOF 5
ENDMDL
MODEL      632
REMARK  Name = ZINC000043919341
REMARK                            x       y       z     vdW  Elec       q    Type
REMARK                         _______ _______ _______ _____ _____    ______ ____
ROOT
ATOM      1  O   LIG    1        0.002  -0.004   0.002  0.00  0.00    -0.440 OA
ATOM      2  C   LIG    1       -0.014   1.204   0.009  0.00  0.00    +0.460 C 
ATOM      3  O   LIG    1       -1.121   1.960   0.029  0.00  0.00    -0.310 OA
ATOM      4  C   LIG    1       -0.802   3.296   0.519  0.00  0.00    +0.180 C 
ATOM      5  C   LIG    1        0.659   3.531   0.071  0.00  0.00    +0.200 C 
ATOM      6  C   LIG    1        1.212   2.091   0.002  0.00  0.00    +0.120 C 
ENDROOT
BRANCH   5   7
ATOM      7  O   LIG    1        1.370   4.304   1.041  0.00  0.00    -0.530 OA
ATOM      8  H   LIG    1        2.291   4.478   0.805  0.00  0.00    +0.390 HD
ENDBRANCH   5   7
BRANCH   6   9
ATOM      9  O   LIG    1        2.039   1.821   1.135  0.00  0.00    -0.530 OA
ATOM     10  H   LIG    1        2.415   0.929   1.144  0.00  0.00    +0.390 HD
ENDBRANCH   6   9
BRANCH   4  11
ATOM     11  C   LIG    1       -1.732   4.333  -0.113  0.00  0.00    +0.230 C 
BRANCH  11  12
ATOM     12  O   LIG    1       -1.516   4.368  -1.526  0.00  0.00    -0.550 OA
ATOM     13  H   LIG    1       -1.685   3.525  -1.970  0.00  0.00    +0.380 HD
ENDBRANCH  11  12
BRANCH  11  14
ATOM     14  C   LIG    1       -3.187   3.956   0.172  0.00  0.00    +0.200 C 
BRANCH  14  15
ATOM     15  O   LIG    1       -3.430   2.622  -0.280  0.00  0.00    -0.530 OA
ATOM     16  H   LIG    1       -3.283   2.495  -1.227  0.00  0.00    +0.370 HD
ENDBRANCH  14  15
BRANCH  14  17
ATOM     17  C   LIG    1       -4.118   4.921  -0.563  0.00  0.00    +0.170 C 
BRANCH  17  18
ATOM     18  O   LIG    1       -5.473   4.642  -0.205  0.00  0.00    -0.560 OA
ATOM     19  H   LIG    1       -6.120   5.218  -0.635  0.00  0.00    +0.380 HD
ENDBRANCH  17  18
ENDBRANCH  14  17
ENDBRANCH  11  14
ENDBRANCH   4  11
TORSDOF 8
ENDMDL
MODEL      633
REMARK  Name = ZINC000002125207
REMARK                            x       y       z     vdW  Elec       q    Type
REMARK                         _______ _______ _______ _____ _____    ______ ____
ROOT
ATOM      1  C   LIG    1       -1.281  -0.751   0.024  0.00  0.00    +0.040 A 
ATOM      2  C   LIG    1       -1.248  -2.142  -0.116  0.00  0.00    +0.340 A 
ATOM      3  N   LIG    1       -2.370  -2.834  -0.117  0.00  0.00    -0.410 NA
ATOM      4  C   LIG    1       -3.536  -2.213   0.017  0.00  0.00    +0.120 A 
ATOM      5  C   LIG    1       -3.572  -0.815   0.159  0.00  0.00    +0.060 A 
ATOM      6  N   LIG    1       -2.441  -0.123   0.163  0.00  0.00    -0.380 NA
ENDROOT
BRANCH   1  10
ATOM      7  N   LIG    1       -0.046   1.364   0.166  0.00  0.00    -0.830 N 
ATOM      8  H   LIG    1       -0.895   1.822   0.263  0.00  0.00    +0.410 HD
ATOM      9  H   LIG    1        0.781   1.871   0.166  0.00  0.00    +0.410 HD
ATOM     10  C   LIG    1       -0.016   0.024   0.024  0.00  0.00    +0.580 C 
ATOM     11  O   LIG    1        1.048  -0.550  -0.103  0.00  0.00    -0.520 OA
ENDBRANCH   1  10
BRANCH   5  12
ATOM     12  C   LIG    1       -4.872  -0.117   0.309  0.00  0.00    +0.580 C 
ATOM     13  O   LIG    1       -5.899  -0.759   0.407  0.00  0.00    -0.500 OA
ATOM     14  N   LIG    1       -4.914   1.230   0.335  0.00  0.00    -0.830 N 
ATOM     15  H   LIG    1       -5.764   1.687   0.433  0.00  0.00    +0.410 HD
ATOM     16  H   LIG    1       -4.095   1.742   0.256  0.00  0.00    +0.410 HD
ENDBRANCH   5  12
BRANCH   4  17
ATOM     17  C   LIG    1       -4.798  -2.993   0.017  0.00  0.00    +0.600 C 
ATOM     18  O   LIG    1       -5.509  -3.000  -0.968  0.00  0.00    -0.500 OA
ATOM     19  N   LIG    1       -5.157  -3.694   1.111  0.00  0.00    -0.830 N 
ATOM     20  H   LIG    1       -5.982  -4.204   1.111  0.00  0.00    +0.410 HD
ATOM     21  H   LIG    1       -4.590  -3.689   1.898  0.00  0.00    +0.400 HD
ENDBRANCH   4  17
TORSDOF 3
ENDMDL
MODEL      634
REMARK  Name = ZINC000089423242
REMARK                            x       y       z     vdW  Elec       q    Type
REMARK                         _______ _______ _______ _____ _____    ______ ____
ROOT
ATOM      1  N   LIG    1       -0.543  -2.680   1.218  0.00  0.00    -0.530 NA
ATOM      2  C   LIG    1        0.604  -1.868   1.647  0.00  0.00    +0.170 C 
ATOM      3  C   LIG    1        1.098  -2.368   3.008  0.00  0.00    +0.300 C 
ATOM      4  N   LIG    1        1.360  -3.812   2.909  0.00  0.00    -0.610 N 
ATOM      5  C   LIG    1        0.304  -4.675   2.358  0.00  0.00    +0.280 C 
ATOM      6  C   LIG    1        2.537  -4.330   3.313  0.00  0.00    +0.510 C 
ATOM      7  O   LIG    1        3.397  -3.604   3.765  0.00  0.00    -0.520 OA
ATOM      8  C   LIG    1       -0.159  -4.084   1.022  0.00  0.00    +0.200 C 
ENDROOT
BRANCH   1   9
ATOM      9  C   LIG    1       -1.154  -2.126   0.002  0.00  0.00    +0.250 C 
BRANCH   9  10
ATOM     10  C   LIG    1       -0.062  -1.831  -1.028  0.00  0.00    +0.120 C 
BRANCH  10  12
ATOM     11  C   LIG    1        1.584  -2.891  -2.411  0.00  0.00    +0.200 C 
ATOM     12  O   LIG    1        0.545  -3.056  -1.444  0.00  0.00    -0.390 OA
ENDBRANCH  10  12
ENDBRANCH   9  10
ENDBRANCH   1   9
BRANCH   6  13
ATOM     13  C   LIG    1        2.785  -5.813   3.202  0.00  0.00    +0.220 C 
BRANCH  13  14
ATOM     14  O   LIG    1        4.093  -6.115   3.690  0.00  0.00    -0.550 OA
ATOM     15  H   LIG    1        4.321  -7.054   3.649  0.00  0.00    +0.390 HD
ENDBRANCH  13  14
ENDBRANCH   6  13
TORSDOF 5
ENDMDL
MODEL      635
REMARK  Name = ZINC000000405637
REMARK                            x       y       z     vdW  Elec       q    Type
REMARK                         _______ _______ _______ _____ _____    ______ ____
ROOT
ATOM      1  C   LIG    1        0.496  -2.350  -1.154  0.00  0.00    +0.180 C 
ATOM      2  O   LIG    1        1.235  -2.866  -2.276  0.00  0.00    -0.360 OA
ATOM      3  C   LIG    1        2.399  -3.526  -1.749  0.00  0.00    +0.240 C 
ATOM      4  O   LIG    1        2.062  -3.920  -0.401  0.00  0.00    -0.330 OA
ATOM      5  C   LIG    1        3.588  -2.563  -1.735  0.00  0.00    +0.040 C 
ATOM      6  C   LIG    1        2.731  -4.760  -2.590  0.00  0.00    +0.100 C 
ATOM      7  C   LIG    1        1.292  -2.795   0.093  0.00  0.00    +0.160 C 
ENDROOT
BRANCH   1  11
ATOM      8  C   LIG    1        0.888   1.264  -2.348  0.00  0.00    +0.280 C 
ATOM      9  N   LIG    1        1.048  -0.186  -2.219  0.00  0.00    -0.720 N 
ATOM     10  H   LIG    1        1.600  -0.672  -2.851  0.00  0.00    +0.410 HD
ATOM     11  C   LIG    1        0.426  -0.846  -1.221  0.00  0.00    +0.510 C 
ATOM     12  O   LIG    1       -0.189  -0.230  -0.378  0.00  0.00    -0.530 OA
ENDBRANCH   1  11
BRANCH   7  13
ATOM     13  C   LIG    1        0.365  -3.227   1.200  0.00  0.00    +0.520 C 
ATOM     14  N   LIG    1       -0.345  -2.307   1.882  0.00  0.00    -0.720 N 
ATOM     15  H   LIG    1       -0.206  -1.362   1.711  0.00  0.00    +0.410 HD
ATOM     16  C   LIG    1       -1.327  -2.733   2.882  0.00  0.00    +0.290 C 
ATOM     17  O   LIG    1        0.258  -4.403   1.476  0.00  0.00    -0.510 OA
ENDBRANCH   7  13
TORSDOF 2
ENDMDL
MODEL      636
REMARK  Name = ZINC000101178340
REMARK                            x       y       z     vdW  Elec       q    Type
REMARK                         _______ _______ _______ _____ _____    ______ ____
ROOT
ATOM      1  C   LIG    1        0.020  -2.136  -1.177  0.00  0.00    +0.210 C 
ATOM      2  C   LIG    1        1.448  -2.627  -1.082  0.00  0.00    +0.480 C 
ATOM      3  O   LIG    1        2.254  -2.447  -2.149  0.00  0.00    -0.350 OA
ATOM      4  C   LIG    1        1.721  -2.902  -3.425  0.00  0.00    +0.180 C 
ATOM      5  C   LIG    1        0.343  -2.272  -3.647  0.00  0.00    +0.180 C 
ATOM      6  O   LIG    1        1.855  -3.165  -0.079  0.00  0.00    -0.420 OA
ATOM      7  C   LIG    1       -0.584  -2.654  -2.488  0.00  0.00    +0.210 C 
ENDROOT
BRANCH   1  10
ATOM      8  C   LIG    1       -0.018   1.503   0.010  0.00  0.00    +0.110 C 
ATOM      9  C   LIG    1        0.002  -0.004   0.002  0.00  0.00    +0.510 C 
ATOM     10  N   LIG    1        0.000  -0.672  -1.169  0.00  0.00    -0.720 N 
ATOM     11  H   LIG    1       -0.015  -0.182  -2.006  0.00  0.00    +0.410 HD
ATOM     12  O   LIG    1        0.020  -0.616   1.049  0.00  0.00    -0.520 OA
ENDBRANCH   1  10
BRANCH   5  13
ATOM     13  O   LIG    1       -0.207  -2.751  -4.876  0.00  0.00    -0.530 OA
ATOM     14  H   LIG    1        0.329  -2.545  -5.654  0.00  0.00    +0.380 HD
ENDBRANCH   5  13
BRANCH   7  15
ATOM     15  O   LIG    1       -0.714  -4.076  -2.429  0.00  0.00    -0.540 OA
ATOM     16  H   LIG    1       -1.289  -4.389  -1.717  0.00  0.00    +0.390 HD
ENDBRANCH   7  15
BRANCH   4  17
ATOM     17  C   LIG    1        2.665  -2.480  -4.553  0.00  0.00    +0.210 C 
BRANCH  17  18
ATOM     18  O   LIG    1        3.916  -3.156  -4.404  0.00  0.00    -0.560 OA
ATOM     19  H   LIG    1        4.565  -2.936  -5.086  0.00  0.00    +0.390 HD
ENDBRANCH  17  18
ENDBRANCH   4  17
TORSDOF 5
ENDMDL
MODEL      637
REMARK  Name = ZINC000013142805
REMARK                            x       y       z     vdW  Elec       q    Type
REMARK                         _______ _______ _______ _____ _____    ______ ____
ROOT
ATOM      1  C   LIG    1       -1.189  -2.198   0.101  0.00  0.00    +0.230 C 
ATOM      2  N   LIG    1       -0.171  -2.669   1.024  0.00  0.00    -0.430 NA
ATOM      3  C   LIG    1        1.049  -2.560   0.540  0.00  0.00    +0.490 C 
ATOM      4  N   LIG    1        1.277  -2.035  -0.703  0.00  0.00    -0.160 NA
ATOM      5  N   LIG    1        0.437  -2.137  -1.641  0.00  0.00    -0.080 NA
ATOM      6  N   LIG    1       -2.559  -2.667   0.186  0.00  0.00    -0.600 N 
ATOM      7  C   LIG    1       -3.296  -2.998   1.408  0.00  0.00    +0.350 C 
ATOM      8  C   LIG    1       -3.007  -2.757  -1.088  0.00  0.00    +0.700 C 
ATOM      9  O   LIG    1       -4.180  -2.894  -1.381  0.00  0.00    -0.530 OA
ATOM     10  N   LIG    1       -2.007  -2.664  -2.007  0.00  0.00    -0.620 N 
ATOM     11  C   LIG    1       -2.147  -2.433  -3.447  0.00  0.00    +0.360 C 
ATOM     12  C   LIG    1       -0.774  -2.840  -1.266  0.00  0.00    +0.290 C 
ENDROOT
BRANCH   1  16
ATOM     13  C   LIG    1       -2.134   1.424  -0.694  0.00  0.00    +0.310 C 
ATOM     14  N   LIG    1       -2.101  -0.041  -0.695  0.00  0.00    -0.710 N 
ATOM     15  H   LIG    1       -2.759  -0.540  -1.203  0.00  0.00    +0.400 HD
ATOM     16  C   LIG    1       -1.156  -0.694   0.009  0.00  0.00    +0.500 C 
ATOM     17  O   LIG    1       -0.279  -0.071   0.570  0.00  0.00    -0.500 OA
ENDBRANCH   1  16
TORSDOF 1
ENDMDL
MODEL      638
REMARK  Name = ZINC000032796398
REMARK                            x       y       z     vdW  Elec       q    Type
REMARK                         _______ _______ _______ _____ _____    ______ ____
ROOT
ATOM      1  C   LIG    1        0.605  -2.148  -1.026  0.00  0.00    +0.160 A 
ATOM      2  C   LIG    1        1.217  -2.817  -2.084  0.00  0.00    +0.020 A 
ATOM      3  C   LIG    1        1.236  -4.203  -2.092  0.00  0.00    +0.200 A 
ATOM      4  C   LIG    1        0.635  -4.870  -1.027  0.00  0.00    -0.220 A 
ATOM      5  C   LIG    1        0.607  -6.343  -0.949  0.00  0.00    +0.570 A 
ATOM      6  N   LIG    1        0.004  -6.913   0.118  0.00  0.00    -0.560 N 
ATOM      7  C   LIG    1       -0.553  -6.164   1.082  0.00  0.00    +0.710 A 
ATOM      8  N   LIG    1       -0.554  -4.821   1.057  0.00  0.00    -0.530 N 
ATOM      9  C   LIG    1       -1.185  -4.077   2.150  0.00  0.00    +0.350 C 
ATOM     10  O   LIG    1       -1.082  -6.727   2.021  0.00  0.00    -0.530 OA
ATOM     11  C   LIG    1       -0.040  -8.373   0.225  0.00  0.00    +0.340 C 
ATOM     12  O   LIG    1        1.112  -7.024  -1.819  0.00  0.00    -0.480 OA
ATOM     13  C   LIG    1        0.035  -4.130   0.011  0.00  0.00    +0.400 A 
ATOM     14  N   LIG    1        0.045  -2.812  -0.022  0.00  0.00    -0.490 NA
ENDROOT
BRANCH   1  18
ATOM     15  C   LIG    1       -0.018   1.461   0.010  0.00  0.00    +0.300 C 
ATOM     16  N   LIG    1        0.002  -0.004   0.002  0.00  0.00    -0.710 N 
ATOM     17  H   LIG    1       -0.404  -0.499   0.731  0.00  0.00    +0.410 HD
ATOM     18  C   LIG    1        0.585  -0.664  -1.018  0.00  0.00    +0.570 C 
ATOM     19  O   LIG    1        1.094  -0.045  -1.931  0.00  0.00    -0.520 OA
ENDBRANCH   1  18
TORSDOF 1
ENDMDL
MODEL      639
REMARK  Name = ZINC000000000675
REMARK                            x       y       z     vdW  Elec       q    Type
REMARK                         _______ _______ _______ _____ _____    ______ ____
ROOT
ATOM      1  N   LIG    1       -1.413  -1.998   0.005  0.00  0.00    -0.540 N 
ATOM      2  C   LIG    1       -1.410  -2.657  -1.173  0.00  0.00    +0.600 A 
ATOM      3  C   LIG    1       -1.391  -4.068  -1.174  0.00  0.00    -0.160 A 
ATOM      4  C   LIG    1       -1.376  -4.745   0.039  0.00  0.00    +0.320 A 
ATOM      5  N   LIG    1       -1.380  -4.012   1.214  0.00  0.00    -0.510 N 
ATOM      6  C   LIG    1       -1.364  -4.702   2.507  0.00  0.00    +0.340 C 
ATOM      7  N   LIG    1       -1.359  -6.052  -0.238  0.00  0.00    -0.500 NA
ATOM      8  C   LIG    1       -1.363  -6.231  -1.534  0.00  0.00    +0.500 A 
ATOM      9  N   LIG    1       -1.382  -5.037  -2.158  0.00  0.00    -0.410 N 
ATOM     10  C   LIG    1       -1.393  -4.809  -3.605  0.00  0.00    +0.360 C 
ATOM     11  O   LIG    1       -1.423  -2.040  -2.223  0.00  0.00    -0.520 OA
ATOM     12  C   LIG    1       -1.393  -2.667   1.171  0.00  0.00    +0.710 A 
ATOM     13  O   LIG    1       -1.397  -2.040   2.213  0.00  0.00    -0.510 OA
ENDROOT
BRANCH   1  14
ATOM     14  C   LIG    1       -1.433  -0.534   0.013  0.00  0.00    +0.340 C 
BRANCH  14  16
ATOM     15  C   LIG    1       -0.019   1.526   0.010  0.00  0.00    +0.030 C 
ATOM     16  C   LIG    1        0.002  -0.004   0.002  0.00  0.00    +0.150 C 
BRANCH  16  17
ATOM     17  O   LIG    1        0.693  -0.477   1.160  0.00  0.00    -0.550 OA
ATOM     18  H   LIG    1        1.611  -0.180   1.219  0.00  0.00    +0.380 HD
ENDBRANCH  16  17
ENDBRANCH  14  16
ENDBRANCH   1  14
TORSDOF 3
ENDMDL
MODEL      640
REMARK  Name = ZINC000003897365
REMARK                            x       y       z     vdW  Elec       q    Type
REMARK                         _______ _______ _______ _____ _____    ______ ____
ROOT
ATOM      1  S   LIG    1        0.002  -0.004   0.002  0.00  0.00    -0.660 S 
ATOM      2  C   LIG    1       -0.021   1.708   0.011  0.00  0.00    +0.610 C 
ATOM      3  N   LIG    1       -1.190   2.378   0.032  0.00  0.00    -0.670 N 
ATOM      4  H   LIG    1       -2.029   1.890   0.034  0.00  0.00    +0.430 HD
ATOM      5  C   LIG    1       -1.195   3.843   0.051  0.00  0.00    +0.260 C 
ATOM      6  C   LIG    1       -1.840   4.333   1.348  0.00  0.00    +0.300 C 
ATOM      7  N   LIG    1       -0.864   5.178   2.072  0.00  0.00    -0.710 N 
ATOM      8  H   LIG    1       -0.990   6.133   2.187  0.00  0.00    +0.400 HD
ATOM      9  C   LIG    1        0.227   4.523   2.569  0.00  0.00    +0.460 C 
ATOM     10  N   LIG    1        1.156   5.267   3.238  0.00  0.00    -0.700 N 
ATOM     11  H   LIG    1        1.059   6.224   3.365  0.00  0.00    +0.400 HD
ATOM     12  C   LIG    1        2.322   4.517   3.756  0.00  0.00    +0.310 C 
ATOM     13  C   LIG    1        3.133   3.992   2.569  0.00  0.00    +0.120 C 
ATOM     14  O   LIG    1        2.546   2.781   2.090  0.00  0.00    -0.280 OA
ATOM     15  C   LIG    1        3.315   2.119   1.084  0.00  0.00    +0.090 C 
ATOM     16  C   LIG    1        2.384   1.611  -0.018  0.00  0.00    +0.300 C 
ATOM     17  S   LIG    1        0.422   2.835   2.359  0.00  0.00    -0.410 S 
ATOM     18  N   LIG    1        1.145   2.419   0.004  0.00  0.00    -0.650 N 
ATOM     19  H   LIG    1        1.159   3.389   0.008  0.00  0.00    +0.400 HD
ENDROOT
TORSDOF 0
ENDMDL
MODEL      641
REMARK  Name = ZINC000040267488
REMARK                            x       y       z     vdW  Elec       q    Type
REMARK                         _______ _______ _______ _____ _____    ______ ____
ROOT
ATOM      1  C   LIG    1       -1.272  -0.763   0.010  0.00  0.00    +0.140 A 
ATOM      2  N   LIG    1       -1.406  -2.074   0.010  0.00  0.00    -0.400 NA
ATOM      3  C   LIG    1       -2.728  -2.301   0.019  0.00  0.00    +0.190 A 
ATOM      4  N   LIG    1       -3.326  -1.145   0.024  0.00  0.00    -0.350 NA
ATOM      5  O   LIG    1       -2.510  -0.248   0.025  0.00  0.00    +0.110 OA
ENDROOT
BRANCH   1   9
ATOM      6  N   LIG    1       -0.016   1.344   0.009  0.00  0.00    -0.830 N 
ATOM      7  H   LIG    1       -0.863   1.817   0.016  0.00  0.00    +0.410 HD
ATOM      8  H   LIG    1        0.817   1.840   0.004  0.00  0.00    +0.420 HD
ATOM      9  C   LIG    1        0.002  -0.004   0.002  0.00  0.00    +0.630 C 
ATOM     10  O   LIG    1        1.062  -0.597  -0.011  0.00  0.00    -0.480 OA
ENDBRANCH   1   9
BRANCH   3  11
ATOM     11  C   LIG    1       -3.399  -3.650   0.023  0.00  0.00    +0.210 C 
BRANCH  11  12
ATOM     12  C   LIG    1       -3.613  -4.101   1.445  0.00  0.00    +0.530 C 
ATOM     13  N   LIG    1       -4.201  -5.287   1.694  0.00  0.00    -0.610 N 
ATOM     14  C   LIG    1       -4.637  -6.163   0.595  0.00  0.00    +0.260 C 
ATOM     15  C   LIG    1       -4.080  -7.569   0.847  0.00  0.00    +0.220 C 
ATOM     16  O   LIG    1       -4.433  -7.985   2.168  0.00  0.00    -0.380 OA
ATOM     17  C   LIG    1       -3.879  -7.172   3.205  0.00  0.00    +0.220 C 
ATOM     18  C   LIG    1       -4.421  -5.748   3.075  0.00  0.00    +0.260 C 
ATOM     19  O   LIG    1       -3.256  -3.395   2.365  0.00  0.00    -0.530 OA
ENDBRANCH  11  12
ENDBRANCH   3  11
TORSDOF 3
ENDMDL
MODEL      642
REMARK  Name = ZINC000012362064
REMARK                            x       y       z     vdW  Elec       q    Type
REMARK                         _______ _______ _______ _____ _____    ______ ____
ROOT
ATOM      1  O   LIG    1        0.002  -0.004   0.002  0.00  0.00    -0.520 OA
ATOM      2  C   LIG    1       -0.014   1.209   0.009  0.00  0.00    +0.520 C 
ATOM      3  N   LIG    1       -1.196   1.833   0.029  0.00  0.00    -0.710 N 
ATOM      4  H   LIG    1       -2.004   1.297   0.036  0.00  0.00    +0.410 HD
ATOM      5  CA  LIG    1       -1.322   3.284   0.040  0.00  0.00    +0.260 C 
ATOM      6  C   LIG    1       -0.064   3.944  -0.439  0.00  0.00    +0.520 C 
ATOM      7  N   LIG    1        1.118   3.320  -0.454  0.00  0.00    -0.710 N 
ATOM      8  H   LIG    1        1.894   3.804  -0.777  0.00  0.00    +0.410 HD
ATOM      9  O   LIG    1       -0.121   5.091  -0.828  0.00  0.00    -0.520 OA
ATOM     10  CA  LIG    1        1.291   1.945   0.000  0.00  0.00    +0.250 C 
ENDROOT
BRANCH   5  11
ATOM     11  C   LIG    1       -1.620   3.751   1.466  0.00  0.00    +0.050 C 
BRANCH  11  12
ATOM     12  C   LIG    1       -2.986   3.218   1.902  0.00  0.00    +0.180 C 
BRANCH  12  13
ATOM     13  O   LIG    1       -3.265   3.654   3.234  0.00  0.00    -0.570 OA
ATOM     14  H   LIG    1       -4.117   3.352   3.577  0.00  0.00    +0.390 HD
ENDBRANCH  12  13
ENDBRANCH  11  12
ENDBRANCH   5  11
BRANCH  10  15
ATOM     15  C   LIG    1        2.256   1.224  -0.943  0.00  0.00    +0.060 C 
BRANCH  15  16
ATOM     16  C   LIG    1        3.642   1.865  -0.844  0.00  0.00    +0.180 C 
BRANCH  16  17
ATOM     17  O   LIG    1        4.543   1.191  -1.725  0.00  0.00    -0.570 OA
ATOM     18  H   LIG    1        5.442   1.546  -1.714  0.00  0.00    +0.390 HD
ENDBRANCH  16  17
ENDBRANCH  15  16
ENDBRANCH  10  15
TORSDOF 6
ENDMDL
MODEL      643
REMARK  Name = ZINC000003831420
REMARK                            x       y       z     vdW  Elec       q    Type
REMARK                         _______ _______ _______ _____ _____    ______ ____
ROOT
ATOM      1  C1* LIG    1       -3.199  -3.725   0.022  0.00  0.00    +0.450 C 
ATOM      2  O4* LIG    1       -4.631  -3.680  -0.154  0.00  0.00    -0.340 OA
ATOM      3  C4* LIG    1       -4.998  -4.996  -0.625  0.00  0.00    +0.200 C 
ATOM      4  C3* LIG    1       -3.887  -5.379  -1.628  0.00  0.00    +0.150 C 
ATOM      5  C2* LIG    1       -2.674  -4.524  -1.191  0.00  0.00    +0.130 C 
ENDROOT
BRANCH   1   8
ATOM      6  C   LIG    1       -1.268  -0.761   0.010  0.00  0.00    +0.140 A 
ATOM      7  N   LIG    1       -1.389  -2.070   0.009  0.00  0.00    -0.230 NA
ATOM      8  N   LIG    1       -2.642  -2.369   0.019  0.00  0.00    -0.300 N 
ATOM      9  C   LIG    1       -3.354  -1.227   0.025  0.00  0.00    +0.450 A 
ATOM     10  N   LIG    1       -2.505  -0.231   0.025  0.00  0.00    -0.490 NA
BRANCH   6  14
ATOM     11  N   LIG    1       -0.016   1.344   0.009  0.00  0.00    -0.830 N 
ATOM     12  H   LIG    1       -0.863   1.817   0.016  0.00  0.00    +0.410 HD
ATOM     13  H   LIG    1        0.817   1.840   0.004  0.00  0.00    +0.410 HD
ATOM     14  C   LIG    1        0.002  -0.004   0.002  0.00  0.00    +0.620 C 
ATOM     15  O   LIG    1        1.063  -0.597  -0.011  0.00  0.00    -0.520 OA
ENDBRANCH   6  14
ENDBRANCH   1   8
BRANCH   4  16
ATOM     16  O3* LIG    1       -4.282  -5.051  -2.962  0.00  0.00    -0.550 OA
ATOM     17  H3* LIG    1       -3.621  -5.270  -3.633  0.00  0.00    +0.390 HD
ENDBRANCH   4  16
BRANCH   5  18
ATOM     18  O2* LIG    1       -1.581  -5.364  -0.811  0.00  0.00    -0.540 OA
ATOM     19  H2* LIG    1       -1.254  -5.930  -1.523  0.00  0.00    +0.390 HD
ENDBRANCH   5  18
BRANCH   3  20
ATOM     20  C5* LIG    1       -6.358  -4.951  -1.324  0.00  0.00    +0.230 C 
BRANCH  20  21
ATOM     21  O5* LIG    1       -7.374  -4.638  -0.370  0.00  0.00    -0.570 OA
ATOM     22  H5* LIG    1       -8.265  -4.593  -0.744  0.00  0.00    +0.390 HD
ENDBRANCH  20  21
ENDBRANCH   3  20
TORSDOF 6
ENDMDL
MODEL      644
REMARK  Name = ZINC000000896749
REMARK                            x       y       z     vdW  Elec       q    Type
REMARK                         _______ _______ _______ _____ _____    ______ ____
ROOT
ATOM      1  C1* LIG    1       -3.199  -3.725   0.022  0.00  0.00    +0.450 C 
ATOM      2  O4* LIG    1       -4.631  -3.680  -0.154  0.00  0.00    -0.340 OA
ATOM      3  C4* LIG    1       -4.998  -4.996  -0.625  0.00  0.00    +0.200 C 
ATOM      4  C3* LIG    1       -3.887  -5.379  -1.628  0.00  0.00    +0.140 C 
ATOM      5  C2* LIG    1       -2.674  -4.524  -1.191  0.00  0.00    +0.130 C 
ENDROOT
BRANCH   1   8
ATOM      6  C   LIG    1       -1.268  -0.761   0.010  0.00  0.00    +0.140 A 
ATOM      7  N   LIG    1       -1.389  -2.070   0.009  0.00  0.00    -0.230 NA
ATOM      8  N   LIG    1       -2.642  -2.369   0.019  0.00  0.00    -0.300 N 
ATOM      9  C   LIG    1       -3.354  -1.227   0.025  0.00  0.00    +0.450 A 
ATOM     10  N   LIG    1       -2.505  -0.231   0.025  0.00  0.00    -0.490 NA
BRANCH   6  14
ATOM     11  N   LIG    1       -0.016   1.344   0.009  0.00  0.00    -0.830 N 
ATOM     12  H   LIG    1       -0.863   1.817   0.016  0.00  0.00    +0.410 HD
ATOM     13  H   LIG    1        0.817   1.840   0.004  0.00  0.00    +0.410 HD
ATOM     14  C   LIG    1        0.002  -0.004   0.002  0.00  0.00    +0.620 C 
ATOM     15  O   LIG    1        1.063  -0.597  -0.011  0.00  0.00    -0.520 OA
ENDBRANCH   6  14
ENDBRANCH   1   8
BRANCH   4  16
ATOM     16  O3* LIG    1       -3.582  -6.771  -1.529  0.00  0.00    -0.540 OA
ATOM     17  H3* LIG    1       -2.890  -7.066  -2.137  0.00  0.00    +0.390 HD
ENDBRANCH   4  16
BRANCH   5  18
ATOM     18  O2* LIG    1       -1.581  -5.364  -0.811  0.00  0.00    -0.530 OA
ATOM     19  H2* LIG    1       -1.254  -5.930  -1.523  0.00  0.00    +0.390 HD
ENDBRANCH   5  18
BRANCH   3  20
ATOM     20  C5* LIG    1       -6.358  -4.951  -1.324  0.00  0.00    +0.220 C 
BRANCH  20  21
ATOM     21  O5* LIG    1       -7.374  -4.638  -0.370  0.00  0.00    -0.560 OA
ATOM     22  H5* LIG    1       -8.265  -4.593  -0.744  0.00  0.00    +0.390 HD
ENDBRANCH  20  21
ENDBRANCH   3  20
TORSDOF 6
ENDMDL
MODEL      645
REMARK  Name = ZINC000021981353
REMARK                            x       y       z     vdW  Elec       q    Type
REMARK                         _______ _______ _______ _____ _____    ______ ____
ROOT
ATOM      1  C1* LIG    1       -3.199  -3.725   0.022  0.00  0.00    +0.450 C 
ATOM      2  O4* LIG    1       -2.793  -4.432   1.214  0.00  0.00    -0.340 OA
ATOM      3  C4* LIG    1       -2.950  -5.832   0.898  0.00  0.00    +0.190 C 
ATOM      4  C3* LIG    1       -2.445  -5.968  -0.555  0.00  0.00    +0.140 C 
ATOM      5  C2* LIG    1       -2.614  -4.549  -1.146  0.00  0.00    +0.120 C 
ENDROOT
BRANCH   1   8
ATOM      6  C   LIG    1       -1.268  -0.761   0.010  0.00  0.00    +0.120 A 
ATOM      7  N   LIG    1       -1.389  -2.070   0.009  0.00  0.00    -0.190 NA
ATOM      8  N   LIG    1       -2.642  -2.369   0.019  0.00  0.00    -0.290 N 
ATOM      9  C   LIG    1       -3.354  -1.227   0.025  0.00  0.00    +0.420 A 
ATOM     10  N   LIG    1       -2.505  -0.231   0.025  0.00  0.00    -0.480 NA
BRANCH   6  14
ATOM     11  N   LIG    1       -0.016   1.344   0.009  0.00  0.00    -0.830 N 
ATOM     12  H   LIG    1       -0.863   1.817   0.016  0.00  0.00    +0.410 HD
ATOM     13  H   LIG    1        0.817   1.840   0.004  0.00  0.00    +0.410 HD
ATOM     14  C   LIG    1        0.002  -0.004   0.002  0.00  0.00    +0.620 C 
ATOM     15  O   LIG    1        1.063  -0.597  -0.011  0.00  0.00    -0.520 OA
ENDBRANCH   6  14
ENDBRANCH   1   8
BRANCH   4  16
ATOM     16  O3* LIG    1       -1.071  -6.362  -0.573  0.00  0.00    -0.530 OA
ATOM     17  H3* LIG    1       -0.703  -6.463  -1.461  0.00  0.00    +0.380 HD
ENDBRANCH   4  16
BRANCH   5  18
ATOM     18  O2* LIG    1       -1.349  -4.020  -1.550  0.00  0.00    -0.510 OA
ATOM     19  H2* LIG    1       -0.909  -4.536  -2.239  0.00  0.00    +0.380 HD
ENDBRANCH   5  18
BRANCH   3  20
ATOM     20  C5* LIG    1       -2.104  -6.689   1.842  0.00  0.00    +0.230 C 
BRANCH  20  21
ATOM     21  O5* LIG    1       -2.616  -6.582   3.171  0.00  0.00    -0.570 OA
ATOM     22  H5* LIG    1       -2.127  -7.101   3.824  0.00  0.00    +0.390 HD
ENDBRANCH  20  21
ENDBRANCH   3  20
TORSDOF 6
ENDMDL
MODEL      646
REMARK  Name = ZINC000003831418
REMARK                            x       y       z     vdW  Elec       q    Type
REMARK                         _______ _______ _______ _____ _____    ______ ____
ROOT
ATOM      1  C1* LIG    1       -3.199  -3.725   0.022  0.00  0.00    +0.450 C 
ATOM      2  O4* LIG    1       -4.631  -3.680  -0.154  0.00  0.00    -0.350 OA
ATOM      3  C4* LIG    1       -4.998  -4.996  -0.625  0.00  0.00    +0.190 C 
ATOM      4  C3* LIG    1       -3.887  -5.379  -1.628  0.00  0.00    +0.130 C 
ATOM      5  C2* LIG    1       -2.674  -4.524  -1.191  0.00  0.00    +0.140 C 
ENDROOT
BRANCH   1   8
ATOM      6  C   LIG    1       -1.268  -0.761   0.010  0.00  0.00    +0.140 A 
ATOM      7  N   LIG    1       -1.389  -2.070   0.009  0.00  0.00    -0.230 NA
ATOM      8  N   LIG    1       -2.642  -2.369   0.019  0.00  0.00    -0.290 N 
ATOM      9  C   LIG    1       -3.354  -1.227   0.025  0.00  0.00    +0.450 A 
ATOM     10  N   LIG    1       -2.505  -0.231   0.025  0.00  0.00    -0.490 NA
BRANCH   6  14
ATOM     11  N   LIG    1       -0.016   1.344   0.009  0.00  0.00    -0.830 N 
ATOM     12  H   LIG    1       -0.863   1.817   0.016  0.00  0.00    +0.410 HD
ATOM     13  H   LIG    1        0.817   1.840   0.004  0.00  0.00    +0.410 HD
ATOM     14  C   LIG    1        0.002  -0.004   0.002  0.00  0.00    +0.630 C 
ATOM     15  O   LIG    1        1.063  -0.597  -0.011  0.00  0.00    -0.520 OA
ENDBRANCH   6  14
ENDBRANCH   1   8
BRANCH   4  16
ATOM     16  O3* LIG    1       -4.282  -5.051  -2.962  0.00  0.00    -0.540 OA
ATOM     17  H3* LIG    1       -3.621  -5.270  -3.633  0.00  0.00    +0.380 HD
ENDBRANCH   4  16
BRANCH   5  18
ATOM     18  O2* LIG    1       -2.279  -3.640  -2.242  0.00  0.00    -0.530 OA
ATOM     19  H2* LIG    1       -1.999  -4.091  -3.050  0.00  0.00    +0.380 HD
ENDBRANCH   5  18
BRANCH   3  20
ATOM     20  C5* LIG    1       -6.358  -4.951  -1.324  0.00  0.00    +0.230 C 
BRANCH  20  21
ATOM     21  O5* LIG    1       -7.374  -4.638  -0.370  0.00  0.00    -0.570 OA
ATOM     22  H5* LIG    1       -8.265  -4.593  -0.744  0.00  0.00    +0.390 HD
ENDBRANCH  20  21
ENDBRANCH   3  20
TORSDOF 6
ENDMDL
MODEL      647
REMARK  Name = ZINC000003831419
REMARK                            x       y       z     vdW  Elec       q    Type
REMARK                         _______ _______ _______ _____ _____    ______ ____
ROOT
ATOM      1  C1* LIG    1       -3.199  -3.725   0.022  0.00  0.00    +0.480 C 
ATOM      2  O4* LIG    1       -2.793  -4.432   1.214  0.00  0.00    -0.330 OA
ATOM      3  C4* LIG    1       -1.433  -4.848   0.966  0.00  0.00    +0.190 C 
ATOM      4  C3* LIG    1       -1.423  -5.306  -0.510  0.00  0.00    +0.140 C 
ATOM      5  C2* LIG    1       -2.614  -4.549  -1.146  0.00  0.00    +0.140 C 
ENDROOT
BRANCH   1   8
ATOM      6  C   LIG    1       -1.268  -0.761   0.010  0.00  0.00    +0.150 A 
ATOM      7  N   LIG    1       -1.389  -2.070   0.009  0.00  0.00    -0.250 NA
ATOM      8  N   LIG    1       -2.642  -2.369   0.019  0.00  0.00    -0.310 N 
ATOM      9  C   LIG    1       -3.354  -1.227   0.025  0.00  0.00    +0.450 A 
ATOM     10  N   LIG    1       -2.505  -0.231   0.025  0.00  0.00    -0.480 NA
BRANCH   6  14
ATOM     11  N   LIG    1       -0.016   1.344   0.009  0.00  0.00    -0.830 N 
ATOM     12  H   LIG    1       -0.863   1.817   0.016  0.00  0.00    +0.410 HD
ATOM     13  H   LIG    1        0.817   1.840   0.004  0.00  0.00    +0.410 HD
ATOM     14  C   LIG    1        0.002  -0.004   0.002  0.00  0.00    +0.620 C 
ATOM     15  O   LIG    1        1.063  -0.597  -0.011  0.00  0.00    -0.520 OA
ENDBRANCH   6  14
ENDBRANCH   1   8
BRANCH   4  16
ATOM     16  O3* LIG    1       -1.621  -6.718  -0.597  0.00  0.00    -0.540 OA
ATOM     17  H3* LIG    1       -1.624  -7.060  -1.502  0.00  0.00    +0.380 HD
ENDBRANCH   4  16
BRANCH   5  18
ATOM     18  O2* LIG    1       -3.583  -5.471  -1.648  0.00  0.00    -0.540 OA
ATOM     19  H2* LIG    1       -3.248  -6.055  -2.343  0.00  0.00    +0.390 HD
ENDBRANCH   5  18
BRANCH   3  20
ATOM     20  C5* LIG    1       -1.054  -6.008   1.888  0.00  0.00    +0.230 C 
BRANCH  20  21
ATOM     21  O5* LIG    1       -1.026  -5.551   3.242  0.00  0.00    -0.570 OA
ATOM     22  H5* LIG    1       -0.792  -6.236   3.884  0.00  0.00    +0.380 HD
ENDBRANCH  20  21
ENDBRANCH   3  20
TORSDOF 6
ENDMDL
MODEL      648
REMARK  Name = ZINC000006603353
REMARK                            x       y       z     vdW  Elec       q    Type
REMARK                         _______ _______ _______ _____ _____    ______ ____
ROOT
ATOM      1  C1* LIG    1       -3.199  -3.725   0.022  0.00  0.00    +0.460 C 
ATOM      2  O4* LIG    1       -2.784  -4.441   1.205  0.00  0.00    -0.340 OA
ATOM      3  C4* LIG    1       -2.915  -5.843   0.914  0.00  0.00    +0.190 C 
ATOM      4  C3* LIG    1       -2.771  -6.010  -0.611  0.00  0.00    +0.140 C 
ATOM      5  C2* LIG    1       -2.604  -4.562  -1.139  0.00  0.00    +0.130 C 
ENDROOT
BRANCH   1   8
ATOM      6  C   LIG    1       -1.268  -0.761   0.010  0.00  0.00    +0.120 A 
ATOM      7  N   LIG    1       -1.389  -2.070   0.009  0.00  0.00    -0.190 NA
ATOM      8  N   LIG    1       -2.642  -2.369   0.019  0.00  0.00    -0.290 N 
ATOM      9  C   LIG    1       -3.354  -1.227   0.025  0.00  0.00    +0.430 A 
ATOM     10  N   LIG    1       -2.505  -0.231   0.025  0.00  0.00    -0.480 NA
BRANCH   6  14
ATOM     11  N   LIG    1       -0.016   1.344   0.009  0.00  0.00    -0.830 N 
ATOM     12  H   LIG    1       -0.863   1.817   0.016  0.00  0.00    +0.410 HD
ATOM     13  H   LIG    1        0.817   1.840   0.004  0.00  0.00    +0.410 HD
ATOM     14  C   LIG    1        0.002  -0.004   0.002  0.00  0.00    +0.620 C 
ATOM     15  O   LIG    1        1.063  -0.597  -0.011  0.00  0.00    -0.520 OA
ENDBRANCH   6  14
ENDBRANCH   1   8
BRANCH   4  16
ATOM     16  O3* LIG    1       -3.944  -6.610  -1.162  0.00  0.00    -0.550 OA
ATOM     17  H3* LIG    1       -3.908  -6.739  -2.120  0.00  0.00    +0.390 HD
ENDBRANCH   4  16
BRANCH   5  18
ATOM     18  O2* LIG    1       -1.224  -4.247  -1.337  0.00  0.00    -0.520 OA
ATOM     19  H2* LIG    1       -0.782  -4.807  -1.989  0.00  0.00    +0.380 HD
ENDBRANCH   5  18
BRANCH   3  20
ATOM     20  C5* LIG    1       -1.816  -6.628   1.633  0.00  0.00    +0.210 C 
BRANCH  20  21
ATOM     21  O5* LIG    1       -2.020  -6.550   3.045  0.00  0.00    -0.560 OA
ATOM     22  H5* LIG    1       -1.359  -7.026   3.565  0.00  0.00    +0.390 HD
ENDBRANCH  20  21
ENDBRANCH   3  20
TORSDOF 6
ENDMDL
MODEL      649
REMARK  Name = ZINC000009747813
REMARK                            x       y       z     vdW  Elec       q    Type
REMARK                         _______ _______ _______ _____ _____    ______ ____
ROOT
ATOM      1  C   LIG    1        0.049   1.461   0.010  0.00  0.00    +0.380 C 
ATOM      2  N   LIG    1        0.033  -0.004   0.002  0.00  0.00    -0.430 N 
ATOM      3  N   LIG    1        0.037  -0.687  -1.220  0.00  0.00    -0.280 NA
ATOM      4  C   LIG    1        0.023  -1.995  -1.234  0.00  0.00    +0.330 A 
ATOM      5  C   LIG    1        0.003  -2.721   0.047  0.00  0.00    +0.530 A 
ATOM      6  N   LIG    1        0.000  -2.018   1.199  0.00  0.00    -0.550 N 
ATOM      7  C   LIG    1       -0.019  -2.721   2.484  0.00  0.00    +0.360 C 
ATOM      8  O   LIG    1       -0.010  -3.937   0.066  0.00  0.00    -0.480 OA
ATOM      9  C   LIG    1        0.021  -0.673   1.168  0.00  0.00    +0.670 A 
ATOM     10  O   LIG    1        0.018  -0.051   2.214  0.00  0.00    -0.540 OA
ENDROOT
BRANCH   4  11
ATOM     11  N   LIG    1        0.027  -2.691  -2.443  0.00  0.00    -0.580 N 
ATOM     12  C   LIG    1       -0.091  -1.988  -3.732  0.00  0.00    +0.320 C 
ATOM     13  C   LIG    1        1.178  -2.258  -4.542  0.00  0.00    +0.260 C 
ATOM     14  N   LIG    1        1.515  -3.675  -4.516  0.00  0.00    -0.720 N 
ATOM     15  H   LIG    1        2.079  -4.017  -5.227  0.00  0.00    +0.400 HD
ATOM     16  C   LIG    1        1.103  -4.535  -3.583  0.00  0.00    +0.510 C 
ATOM     17  O   LIG    1        1.515  -5.675  -3.624  0.00  0.00    -0.540 OA
ATOM     18  C   LIG    1        0.157  -4.155  -2.483  0.00  0.00    +0.350 C 
ENDBRANCH   4  11
TORSDOF 1
ENDMDL
MODEL      650
REMARK  Name = ZINC000003831421
REMARK                            x       y       z     vdW  Elec       q    Type
REMARK                         _______ _______ _______ _____ _____    ______ ____
ROOT
ATOM      1  C1* LIG    1       -3.199  -3.725   0.022  0.00  0.00    +0.480 C 
ATOM      2  O4* LIG    1       -2.793  -4.432   1.214  0.00  0.00    -0.330 OA
ATOM      3  C4* LIG    1       -1.433  -4.848   0.966  0.00  0.00    +0.190 C 
ATOM      4  C3* LIG    1       -1.423  -5.306  -0.510  0.00  0.00    +0.150 C 
ATOM      5  C2* LIG    1       -2.614  -4.549  -1.146  0.00  0.00    +0.140 C 
ENDROOT
BRANCH   1   8
ATOM      6  C   LIG    1       -1.268  -0.761   0.010  0.00  0.00    +0.140 A 
ATOM      7  N   LIG    1       -1.389  -2.070   0.009  0.00  0.00    -0.230 NA
ATOM      8  N   LIG    1       -2.642  -2.369   0.019  0.00  0.00    -0.300 N 
ATOM      9  C   LIG    1       -3.354  -1.227   0.025  0.00  0.00    +0.440 A 
ATOM     10  N   LIG    1       -2.505  -0.231   0.025  0.00  0.00    -0.480 NA
BRANCH   6  14
ATOM     11  N   LIG    1       -0.016   1.344   0.009  0.00  0.00    -0.830 N 
ATOM     12  H   LIG    1       -0.863   1.817   0.016  0.00  0.00    +0.410 HD
ATOM     13  H   LIG    1        0.817   1.840   0.004  0.00  0.00    +0.410 HD
ATOM     14  C   LIG    1        0.002  -0.004   0.002  0.00  0.00    +0.620 C 
ATOM     15  O   LIG    1        1.063  -0.597  -0.011  0.00  0.00    -0.520 OA
ENDBRANCH   6  14
ENDBRANCH   1   8
BRANCH   4  16
ATOM     16  O3* LIG    1       -1.621  -6.718  -0.597  0.00  0.00    -0.550 OA
ATOM     17  H3* LIG    1       -1.624  -7.060  -1.502  0.00  0.00    +0.390 HD
ENDBRANCH   4  16
BRANCH   5  18
ATOM     18  O2* LIG    1       -2.159  -3.689  -2.193  0.00  0.00    -0.540 OA
ATOM     19  H2* LIG    1       -1.728  -4.152  -2.924  0.00  0.00    +0.390 HD
ENDBRANCH   5  18
BRANCH   3  20
ATOM     20  C5* LIG    1       -1.054  -6.008   1.888  0.00  0.00    +0.230 C 
BRANCH  20  21
ATOM     21  O5* LIG    1       -1.026  -5.551   3.242  0.00  0.00    -0.570 OA
ATOM     22  H5* LIG    1       -0.792  -6.236   3.884  0.00  0.00    +0.380 HD
ENDBRANCH  20  21
ENDBRANCH   3  20
TORSDOF 6
ENDMDL
MODEL      651
REMARK  Name = ZINC000001035331
REMARK                            x       y       z     vdW  Elec       q    Type
REMARK                         _______ _______ _______ _____ _____    ______ ____
ROOT
ATOM      1  C1* LIG    1       -3.199  -3.725   0.022  0.00  0.00    +0.460 C 
ATOM      2  O4* LIG    1       -2.784  -4.441   1.205  0.00  0.00    -0.340 OA
ATOM      3  C4* LIG    1       -2.915  -5.843   0.914  0.00  0.00    +0.200 C 
ATOM      4  C3* LIG    1       -2.771  -6.010  -0.611  0.00  0.00    +0.140 C 
ATOM      5  C2* LIG    1       -2.604  -4.562  -1.139  0.00  0.00    +0.140 C 
ENDROOT
BRANCH   1   8
ATOM      6  C   LIG    1       -1.268  -0.761   0.010  0.00  0.00    +0.140 A 
ATOM      7  N   LIG    1       -1.389  -2.070   0.009  0.00  0.00    -0.240 NA
ATOM      8  N   LIG    1       -2.642  -2.369   0.019  0.00  0.00    -0.300 N 
ATOM      9  C   LIG    1       -3.354  -1.227   0.025  0.00  0.00    +0.450 A 
ATOM     10  N   LIG    1       -2.505  -0.231   0.025  0.00  0.00    -0.480 NA
BRANCH   6  14
ATOM     11  N   LIG    1       -0.016   1.344   0.009  0.00  0.00    -0.830 N 
ATOM     12  H   LIG    1       -0.863   1.817   0.016  0.00  0.00    +0.410 HD
ATOM     13  H   LIG    1        0.817   1.840   0.004  0.00  0.00    +0.410 HD
ATOM     14  C   LIG    1        0.002  -0.004   0.002  0.00  0.00    +0.620 C 
ATOM     15  O   LIG    1        1.063  -0.597  -0.011  0.00  0.00    -0.520 OA
ENDBRANCH   6  14
ENDBRANCH   1   8
BRANCH   4  16
ATOM     16  O3* LIG    1       -3.944  -6.610  -1.162  0.00  0.00    -0.540 OA
ATOM     17  H3* LIG    1       -3.908  -6.739  -2.120  0.00  0.00    +0.390 HD
ENDBRANCH   4  16
BRANCH   5  18
ATOM     18  O2* LIG    1       -3.346  -4.370  -2.345  0.00  0.00    -0.540 OA
ATOM     19  H2* LIG    1       -3.065  -4.940  -3.074  0.00  0.00    +0.390 HD
ENDBRANCH   5  18
BRANCH   3  20
ATOM     20  C5* LIG    1       -1.816  -6.628   1.633  0.00  0.00    +0.210 C 
BRANCH  20  21
ATOM     21  O5* LIG    1       -2.020  -6.550   3.045  0.00  0.00    -0.560 OA
ATOM     22  H5* LIG    1       -1.359  -7.026   3.565  0.00  0.00    +0.390 HD
ENDBRANCH  20  21
ENDBRANCH   3  20
TORSDOF 6
ENDMDL
MODEL      652
REMARK  Name = ZINC000004477884
REMARK                            x       y       z     vdW  Elec       q    Type
REMARK                         _______ _______ _______ _____ _____    ______ ____
ROOT
ATOM      1  C   LIG    1       -1.537  -0.709   0.053  0.00  0.00    -0.030 A 
ATOM      2  C   LIG    1       -1.527  -2.105   0.032  0.00  0.00    +0.210 A 
ATOM      3  N   LIG    1       -0.554  -3.022   0.021  0.00  0.00    -0.190 NA
ATOM      4  N   LIG    1       -0.815  -4.282   0.000  0.00  0.00    -0.110 NA
ATOM      5  C   LIG    1       -2.075  -4.738  -0.011  0.00  0.00    -0.160 A 
ATOM      6  C   LIG    1       -3.140  -3.830  -0.001  0.00  0.00    +0.490 A 
ATOM      7  N   LIG    1       -2.847  -2.493   0.021  0.00  0.00    -0.430 N 
ATOM      8  C   LIG    1       -3.604  -1.365   0.036  0.00  0.00    +0.400 A 
ATOM      9  N   LIG    1       -2.829  -0.319   0.059  0.00  0.00    -0.390 NA
ENDROOT
BRANCH   1  13
ATOM     10  N   LIG    1       -0.522   1.507   0.096  0.00  0.00    -0.840 N 
ATOM     11  H   LIG    1       -1.414   1.889   0.098  0.00  0.00    +0.410 HD
ATOM     12  H   LIG    1        0.255   2.088   0.108  0.00  0.00    +0.410 HD
ATOM     13  C   LIG    1       -0.363   0.169   0.071  0.00  0.00    +0.610 C 
ATOM     14  O   LIG    1        0.756  -0.311   0.063  0.00  0.00    -0.520 OA
ENDBRANCH   1  13
BRANCH   5  15
ATOM     15  C   LIG    1       -2.337  -6.185  -0.034  0.00  0.00    +0.610 C 
ATOM     16  O   LIG    1       -3.477  -6.598   0.062  0.00  0.00    -0.560 OA
ATOM     17  N   LIG    1       -1.314  -7.053  -0.162  0.00  0.00    -0.820 N 
ATOM     18  H   LIG    1       -1.487  -8.008  -0.177  0.00  0.00    +0.410 HD
ATOM     19  H   LIG    1       -0.405  -6.724  -0.238  0.00  0.00    +0.420 HD
ENDBRANCH   5  15
BRANCH   6  20
ATOM     20  N   LIG    1       -4.435  -4.266  -0.012  0.00  0.00    -0.780 N 
ATOM     21  H   LIG    1       -5.161  -3.627  -0.085  0.00  0.00    +0.410 HD
ATOM     22  H   LIG    1       -4.628  -5.215   0.054  0.00  0.00    +0.450 HD
ENDBRANCH   6  20
TORSDOF 3
ENDMDL
MODEL      653
REMARK  Name = ZINC000001091444
REMARK                            x       y       z     vdW  Elec       q    Type
REMARK                         _______ _______ _______ _____ _____    ______ ____
ROOT
ATOM      1  C1* LIG    1       -3.199  -3.725   0.022  0.00  0.00    +0.460 C 
ATOM      2  O4* LIG    1       -2.813  -4.409   1.226  0.00  0.00    -0.340 OA
ATOM      3  C4* LIG    1       -2.636  -5.800   0.883  0.00  0.00    +0.200 C 
ATOM      4  C3* LIG    1       -1.939  -5.745  -0.500  0.00  0.00    +0.140 C 
ATOM      5  C2* LIG    1       -2.632  -4.527  -1.166  0.00  0.00    +0.140 C 
ENDROOT
BRANCH   1   8
ATOM      6  C   LIG    1       -1.268  -0.761   0.010  0.00  0.00    +0.140 A 
ATOM      7  N   LIG    1       -1.389  -2.070   0.009  0.00  0.00    -0.230 NA
ATOM      8  N   LIG    1       -2.642  -2.369   0.019  0.00  0.00    -0.300 N 
ATOM      9  C   LIG    1       -3.354  -1.227   0.025  0.00  0.00    +0.440 A 
ATOM     10  N   LIG    1       -2.505  -0.231   0.025  0.00  0.00    -0.480 NA
BRANCH   6  14
ATOM     11  N   LIG    1       -0.016   1.344   0.009  0.00  0.00    -0.830 N 
ATOM     12  H   LIG    1       -0.863   1.817   0.016  0.00  0.00    +0.410 HD
ATOM     13  H   LIG    1        0.817   1.840   0.004  0.00  0.00    +0.410 HD
ATOM     14  C   LIG    1        0.002  -0.004   0.002  0.00  0.00    +0.620 C 
ATOM     15  O   LIG    1        1.063  -0.597  -0.011  0.00  0.00    -0.520 OA
ENDBRANCH   6  14
ENDBRANCH   1   8
BRANCH   4  16
ATOM     16  O3* LIG    1       -0.535  -5.520  -0.356  0.00  0.00    -0.530 OA
ATOM     17  H3* LIG    1       -0.056  -5.478  -1.194  0.00  0.00    +0.390 HD
ENDBRANCH   4  16
BRANCH   5  18
ATOM     18  O2* LIG    1       -3.683  -4.960  -2.032  0.00  0.00    -0.550 OA
ATOM     19  H2* LIG    1       -3.385  -5.518  -2.763  0.00  0.00    +0.400 HD
ENDBRANCH   5  18
BRANCH   3  20
ATOM     20  C5* LIG    1       -1.745  -6.500   1.911  0.00  0.00    +0.230 C 
BRANCH  20  21
ATOM     21  O5* LIG    1       -2.419  -6.547   3.171  0.00  0.00    -0.570 OA
ATOM     22  H5* LIG    1       -1.911  -6.979   3.872  0.00  0.00    +0.390 HD
ENDBRANCH  20  21
ENDBRANCH   3  20
TORSDOF 6
ENDMDL
MODEL      654
REMARK  Name = ZINC000005719785
REMARK                            x       y       z     vdW  Elec       q    Type
REMARK                         _______ _______ _______ _____ _____    ______ ____
ROOT
ATOM      1  C   LIG    1        0.625  -2.158   0.995  0.00  0.00    +0.060 A 
ATOM      2  N   LIG    1        0.119  -2.983   0.105  0.00  0.00    -0.270 NA
ATOM      3  O   LIG    1        0.336  -4.123   0.442  0.00  0.00    +0.330 OA
ATOM      4  N   LIG    1        0.942  -4.266   1.478  0.00  0.00    -0.030 N 
ATOM      5  O   LIG    1        1.298  -5.511   2.052  0.00  0.00    -0.420 OA
ATOM      6  C   LIG    1        1.224  -3.082   1.986  0.00  0.00    +0.020 A 
ENDROOT
BRANCH   1  10
ATOM      7  C   LIG    1       -0.018   1.461   0.010  0.00  0.00    +0.320 C 
ATOM      8  N   LIG    1        0.002  -0.004   0.002  0.00  0.00    -0.710 N 
ATOM      9  H   LIG    1       -0.418  -0.491  -0.724  0.00  0.00    +0.410 HD
ATOM     10  C   LIG    1        0.604  -0.675   1.004  0.00  0.00    +0.590 C 
ATOM     11  O   LIG    1        1.131  -0.066   1.913  0.00  0.00    -0.450 OA
ENDBRANCH   1  10
BRANCH   6  12
ATOM     12  C   LIG    1        1.949  -2.759   3.233  0.00  0.00    +0.590 C 
ATOM     13  N   LIG    1        2.417  -3.751   4.016  0.00  0.00    -0.710 N 
ATOM     14  H   LIG    1        2.278  -4.677   3.762  0.00  0.00    +0.420 HD
ATOM     15  C   LIG    1        3.135  -3.431   5.253  0.00  0.00    +0.320 C 
ATOM     16  O   LIG    1        2.122  -1.599   3.552  0.00  0.00    -0.460 OA
ENDBRANCH   6  12
TORSDOF 2
ENDMDL
MODEL      655
REMARK  Name = ZINC000001408871
REMARK                            x       y       z     vdW  Elec       q    Type
REMARK                         _______ _______ _______ _____ _____    ______ ____
ROOT
ATOM      1  C   LIG    1       -0.957  -2.371  -0.040  0.00  0.00    -0.280 A 
ATOM      2  C   LIG    1       -2.154  -3.103  -0.020  0.00  0.00    +0.300 A 
ATOM      3  N   LIG    1       -3.443  -2.744  -0.009  0.00  0.00    -0.220 NA
ATOM      4  N   LIG    1       -4.387  -3.617   0.011  0.00  0.00    -0.090 NA
ATOM      5  C   LIG    1       -4.125  -4.930   0.021  0.00  0.00    -0.160 A 
ATOM      6  C   LIG    1       -2.796  -5.368   0.011  0.00  0.00    +0.530 A 
ATOM      7  N   LIG    1       -1.805  -4.426  -0.009  0.00  0.00    -0.340 N 
ATOM      8  N   LIG    1       -0.411  -4.509  -0.024  0.00  0.00    -0.300 NA
ATOM      9  C   LIG    1        0.096  -3.305  -0.046  0.00  0.00    +0.360 A 
ENDROOT
BRANCH   1  13
ATOM     10  C   LIG    1        0.523   1.119  -0.099  0.00  0.00    +0.290 C 
ATOM     11  N   LIG    1        0.394  -0.340  -0.082  0.00  0.00    -0.730 N 
ATOM     12  H   LIG    1        1.188  -0.898  -0.088  0.00  0.00    +0.400 HD
ATOM     13  C   LIG    1       -0.828  -0.909  -0.057  0.00  0.00    +0.590 C 
ATOM     14  O   LIG    1       -1.824  -0.210  -0.049  0.00  0.00    -0.520 OA
ENDBRANCH   1  13
BRANCH   5  15
ATOM     15  C   LIG    1       -5.226  -5.905   0.044  0.00  0.00    +0.610 C 
ATOM     16  N   LIG    1       -6.499  -5.481   0.171  0.00  0.00    -0.700 N 
ATOM     17  H   LIG    1       -6.689  -4.533   0.248  0.00  0.00    +0.420 HD
ATOM     18  C   LIG    1       -7.596  -6.452   0.193  0.00  0.00    +0.300 C 
ATOM     19  O   LIG    1       -4.988  -7.094  -0.053  0.00  0.00    -0.550 OA
ENDBRANCH   5  15
BRANCH   6  20
ATOM     20  N   LIG    1       -2.496  -6.703   0.022  0.00  0.00    -0.770 N 
ATOM     21  H   LIG    1       -1.573  -6.992   0.096  0.00  0.00    +0.420 HD
ATOM     22  H   LIG    1       -3.206  -7.360  -0.043  0.00  0.00    +0.440 HD
ENDBRANCH   6  20
TORSDOF 3
ENDMDL
MODEL      656
REMARK  Name = ZINC000078931486
REMARK                            x       y       z     vdW  Elec       q    Type
REMARK                         _______ _______ _______ _____ _____    ______ ____
ROOT
ATOM      1  O   LIG    1        0.002  -0.004   0.002  0.00  0.00    -0.520 OA
ATOM      2  C   LIG    1       -0.014   1.211   0.009  0.00  0.00    +0.560 C 
ATOM      3  N   LIG    1        1.143   1.901   0.001  0.00  0.00    -0.710 N 
ATOM      4  H   LIG    1        1.130   2.870   0.007  0.00  0.00    +0.400 HD
ENDROOT
BRANCH   2   5
ATOM      5  C   LIG    1       -1.307   1.934   0.019  0.00  0.00    -0.090 A 
ATOM      6  C   LIG    1       -1.349   3.332   0.021  0.00  0.00    +0.000 A 
ATOM      7  C   LIG    1       -2.576   3.965   0.030  0.00  0.00    +0.260 A 
ATOM      8  N   LIG    1       -3.697   3.271   0.037  0.00  0.00    -0.470 NA
ATOM      9  C   LIG    1       -3.702   1.953   0.036  0.00  0.00    +0.270 A 
ATOM     10  C   LIG    1       -2.520   1.238   0.021  0.00  0.00    +0.040 A 
ENDBRANCH   2   5
BRANCH   3  11
ATOM     11  C   LIG    1        2.422   1.185  -0.015  0.00  0.00    +0.240 C 
ATOM     12  C   LIG    1        2.910   0.893   1.427  0.00  0.00    +0.220 C 
ATOM     13  O   LIG    1        3.518   2.137   1.836  0.00  0.00    -0.350 OA
ATOM     14  C   LIG    1        4.239   2.645   0.700  0.00  0.00    +0.130 C 
ATOM     15  C   LIG    1        3.553   2.088  -0.564  0.00  0.00    +0.150 C 
BRANCH  15  16
ATOM     16  O   LIG    1        4.478   1.322  -1.338  0.00  0.00    -0.550 OA
ATOM     17  H   LIG    1        5.237   1.828  -1.658  0.00  0.00    +0.390 HD
ENDBRANCH  15  16
BRANCH  14  18
ATOM     18  C   LIG    1        4.187   4.174   0.693  0.00  0.00    +0.190 C 
BRANCH  18  19
ATOM     19  O   LIG    1        4.913   4.680   1.815  0.00  0.00    -0.560 OA
ATOM     20  H   LIG    1        4.922   5.645   1.874  0.00  0.00    +0.380 HD
ENDBRANCH  18  19
ENDBRANCH  14  18
ENDBRANCH   3  11
TORSDOF 5
ENDMDL
MODEL      657
REMARK  Name = ZINC000004469004
REMARK                            x       y       z     vdW  Elec       q    Type
REMARK                         _______ _______ _______ _____ _____    ______ ____
ROOT
ATOM      1  C   LIG    1       -0.951  -2.374  -0.041  0.00  0.00    -0.020 A 
ATOM      2  C   LIG    1       -2.146  -3.096  -0.021  0.00  0.00    +0.210 A 
ATOM      3  N   LIG    1       -3.437  -2.747  -0.010  0.00  0.00    -0.190 NA
ATOM      4  N   LIG    1       -4.374  -3.628   0.011  0.00  0.00    -0.110 NA
ATOM      5  C   LIG    1       -4.103  -4.941   0.022  0.00  0.00    -0.170 A 
ATOM      6  C   LIG    1       -2.772  -5.374   0.012  0.00  0.00    +0.490 A 
ATOM      7  N   LIG    1       -1.786  -4.425  -0.010  0.00  0.00    -0.430 N 
ATOM      8  C   LIG    1       -0.428  -4.479  -0.025  0.00  0.00    +0.400 A 
ATOM      9  N   LIG    1        0.058  -3.271  -0.048  0.00  0.00    -0.390 NA
ENDROOT
BRANCH   1  13
ATOM     10  C   LIG    1        0.539   1.109  -0.102  0.00  0.00    +0.290 C 
ATOM     11  N   LIG    1        0.406  -0.350  -0.084  0.00  0.00    -0.720 N 
ATOM     12  H   LIG    1        1.198  -0.909  -0.091  0.00  0.00    +0.410 HD
ATOM     13  C   LIG    1       -0.818  -0.914  -0.059  0.00  0.00    +0.600 C 
ATOM     14  O   LIG    1       -1.812  -0.212  -0.051  0.00  0.00    -0.510 OA
ENDBRANCH   1  13
BRANCH   5  15
ATOM     15  C   LIG    1       -5.199  -5.922   0.045  0.00  0.00    +0.610 C 
ATOM     16  O   LIG    1       -4.954  -7.110  -0.051  0.00  0.00    -0.560 OA
ATOM     17  N   LIG    1       -6.474  -5.504   0.173  0.00  0.00    -0.820 N 
ATOM     18  H   LIG    1       -7.197  -6.151   0.188  0.00  0.00    +0.410 HD
ATOM     19  H   LIG    1       -6.669  -4.557   0.249  0.00  0.00    +0.420 HD
ENDBRANCH   5  15
BRANCH   6  20
ATOM     20  N   LIG    1       -2.466  -6.705   0.023  0.00  0.00    -0.780 N 
ATOM     21  H   LIG    1       -1.541  -6.990   0.096  0.00  0.00    +0.410 HD
ATOM     22  H   LIG    1       -3.173  -7.366  -0.043  0.00  0.00    +0.450 HD
ENDBRANCH   6  20
TORSDOF 3
ENDMDL
MODEL      658
REMARK  Name = ZINC000001409210
REMARK                            x       y       z     vdW  Elec       q    Type
REMARK                         _______ _______ _______ _____ _____    ______ ____
ROOT
ATOM      1  C   LIG    1        0.501  -2.360   0.858  0.00  0.00    -0.020 A 
ATOM      2  C   LIG    1        1.134  -3.062   1.884  0.00  0.00    +0.210 A 
ATOM      3  N   LIG    1        1.779  -2.693   2.996  0.00  0.00    -0.190 NA
ATOM      4  N   LIG    1        2.287  -3.559   3.800  0.00  0.00    -0.110 NA
ATOM      5  C   LIG    1        2.195  -4.875   3.564  0.00  0.00    -0.160 A 
ATOM      6  C   LIG    1        1.532  -5.329   2.418  0.00  0.00    +0.490 A 
ATOM      7  N   LIG    1        0.997  -4.396   1.571  0.00  0.00    -0.430 N 
ATOM      8  C   LIG    1        0.307  -4.471   0.402  0.00  0.00    +0.400 A 
ATOM      9  N   LIG    1        0.013  -3.272  -0.010  0.00  0.00    -0.390 NA
ENDROOT
BRANCH   1  13
ATOM     10  C   LIG    1       -0.385   1.098  -0.415  0.00  0.00    +0.290 C 
ATOM     11  N   LIG    1       -0.266  -0.358  -0.303  0.00  0.00    -0.720 N 
ATOM     12  H   LIG    1       -0.653  -0.929  -0.985  0.00  0.00    +0.410 HD
ATOM     13  C   LIG    1        0.382  -0.902   0.746  0.00  0.00    +0.600 C 
ATOM     14  O   LIG    1        0.868  -0.185   1.600  0.00  0.00    -0.510 OA
ENDBRANCH   1  13
BRANCH   5  15
ATOM     15  C   LIG    1        2.786  -5.838   4.506  0.00  0.00    +0.610 C 
ATOM     16  N   LIG    1        3.523  -5.398   5.545  0.00  0.00    -0.710 N 
ATOM     17  H   LIG    1        3.663  -4.447   5.672  0.00  0.00    +0.420 HD
ATOM     18  C   LIG    1        4.113  -6.357   6.482  0.00  0.00    +0.300 C 
ATOM     19  O   LIG    1        2.611  -7.031   4.346  0.00  0.00    -0.550 OA
ENDBRANCH   5  15
BRANCH   6  20
ATOM     20  N   LIG    1        1.422  -6.664   2.152  0.00  0.00    -0.780 N 
ATOM     21  H   LIG    1        1.031  -6.962   1.315  0.00  0.00    +0.410 HD
ATOM     22  H   LIG    1        1.735  -7.315   2.799  0.00  0.00    +0.450 HD
ENDBRANCH   6  20
TORSDOF 3
ENDMDL
MODEL      659
REMARK  Name = ZINC000015414342
REMARK                            x       y       z     vdW  Elec       q    Type
REMARK                         _______ _______ _______ _____ _____    ______ ____
ROOT
ATOM      1  N   LIG    1        1.401  -2.532  -0.162  0.00  0.00    -0.590 N 
ATOM      2  C   LIG    1        0.839  -2.688  -1.504  0.00  0.00    +0.330 C 
ATOM      3  C   LIG    1        1.989  -3.143  -2.417  0.00  0.00    +0.010 C 
ATOM      4  C   LIG    1        3.189  -3.221  -1.496  0.00  0.00    +0.360 C 
ATOM      5  O   LIG    1        4.314  -3.540  -1.798  0.00  0.00    -0.350 OA
ATOM      6  C   LIG    1        2.709  -2.820  -0.143  0.00  0.00    +0.470 C 
ATOM      7  O   LIG    1        3.409  -2.768   0.847  0.00  0.00    -0.480 OA
ENDROOT
BRANCH   3   8
ATOM      8  C   LIG    1        2.225  -2.133  -3.510  0.00  0.00    +0.480 C 
ATOM      9  O   LIG    1        1.545  -1.136  -3.568  0.00  0.00    -0.480 OA
BRANCH   8  10
ATOM     10  O   LIG    1        3.191  -2.341  -4.419  0.00  0.00    -0.350 OA
ATOM     11  C   LIG    1        3.362  -1.327  -5.443  0.00  0.00    +0.280 C 
ENDBRANCH   8  10
ENDBRANCH   3   8
BRANCH   1  12
ATOM     12  C   LIG    1        0.633  -2.108   1.011  0.00  0.00    +0.340 C 
BRANCH  12  13
ATOM     13  C   LIG    1        0.673  -0.582   1.123  0.00  0.00    +0.170 C 
BRANCH  13  15
ATOM     14  C   LIG    1       -0.017   1.425   0.010  0.00  0.00    +0.200 C 
ATOM     15  O   LIG    1        0.002  -0.004   0.002  0.00  0.00    -0.390 OA
ENDBRANCH  13  15
ENDBRANCH  12  13
ENDBRANCH   1  12
TORSDOF 5
ENDMDL
MODEL      660
REMARK  Name = ZINC000040387193
REMARK                            x       y       z     vdW  Elec       q    Type
REMARK                         _______ _______ _______ _____ _____    ______ ____
ROOT
ATOM      1  N   LIG    1       -0.514  -2.567   1.248  0.00  0.00    -0.570 NA
ATOM      2  C   LIG    1       -1.388  -2.324   2.403  0.00  0.00    +0.390 C 
ATOM      3  N   LIG    1       -0.808  -2.885   3.618  0.00  0.00    -0.650 NA
ATOM      4  C   LIG    1        0.095  -3.815   3.605  0.00  0.00    +0.640 C 
ATOM      5  N   LIG    1        0.575  -4.323   2.418  0.00  0.00    -0.750 N 
ATOM      6  H   LIG    1        1.366  -4.884   2.401  0.00  0.00    +0.410 HD
ATOM      7  C   LIG    1       -0.145  -3.992   1.178  0.00  0.00    +0.430 C 
ENDROOT
BRANCH   4   8
ATOM      8  N   LIG    1        0.580  -4.304   4.795  0.00  0.00    -1.040 N 
ATOM      9  H   LIG    1        1.255  -5.000   4.794  0.00  0.00    +0.430 HD
BRANCH   8  10
ATOM     10  S   LIG    1        0.011  -3.703   6.230  0.00  0.00    +2.620 S 
ATOM     11  O   LIG    1        0.136  -2.294   6.094  0.00  0.00    -0.920 OA
ATOM     12  O   LIG    1        0.744  -4.411   7.221  0.00  0.00    -0.950 OA
ATOM     13  C   LIG    1       -1.736  -4.187   6.263  0.00  0.00    -0.270 C 
ENDBRANCH   8  10
ENDBRANCH   4   8
BRANCH   1  14
ATOM     14  C   LIG    1       -1.154  -2.126   0.002  0.00  0.00    +0.210 C 
BRANCH  14  15
ATOM     15  C   LIG    1       -1.295  -0.603   0.011  0.00  0.00    +0.170 C 
BRANCH  15  17
ATOM     16  C   LIG    1       -0.017   1.425   0.010  0.00  0.00    +0.200 C 
ATOM     17  O   LIG    1        0.002  -0.004   0.002  0.00  0.00    -0.380 OA
ENDBRANCH  15  17
ENDBRANCH  14  15
ENDBRANCH   1  14
TORSDOF 5
ENDMDL
MODEL      661
REMARK  Name = ZINC000001407743
REMARK                            x       y       z     vdW  Elec       q    Type
REMARK                         _______ _______ _______ _____ _____    ______ ____
ROOT
ATOM      1  C   LIG    1        0.035  -4.095   0.020  0.00  0.00    +0.650 A 
ATOM      2  N   LIG    1        0.613  -4.730  -0.981  0.00  0.00    -0.580 NA
ATOM      3  C   LIG    1        0.653  -6.059  -1.027  0.00  0.00    +0.230 A 
ATOM      4  C   LIG    1        0.090  -6.796  -0.026  0.00  0.00    -0.170 A 
ATOM      5  C   LIG    1       -0.528  -6.127   1.045  0.00  0.00    +0.530 A 
ATOM      6  O   LIG    1       -1.042  -6.755   1.957  0.00  0.00    -0.540 OA
ATOM      7  C   LIG    1        1.323  -6.752  -2.186  0.00  0.00    +0.150 C 
ATOM      8  N   LIG    1       -0.539  -4.777   1.048  0.00  0.00    -0.380 N 
ENDROOT
BRANCH   8   9
ATOM      9  N   LIG    1       -1.132  -4.098   2.074  0.00  0.00    -0.610 N 
ATOM     10  H   LIG    1       -0.483  -3.458   2.506  0.00  0.00    +0.350 HD
ATOM     11  H   LIG    1       -1.518  -4.736   2.754  0.00  0.00    +0.400 HD
ENDBRANCH   8   9
BRANCH   1  12
ATOM     12  N   LIG    1        0.016  -2.726   0.027  0.00  0.00    -0.520 N 
ATOM     13  H   LIG    1       -0.403  -2.251   0.761  0.00  0.00    +0.440 HD
BRANCH  12  14
ATOM     14  N   LIG    1        0.603  -2.012  -1.025  0.00  0.00    -0.450 N 
ATOM     15  H   LIG    1        1.023  -2.487  -1.760  0.00  0.00    +0.460 HD
BRANCH  14  16
ATOM     16  C   LIG    1        0.585  -0.664  -1.018  0.00  0.00    +0.550 C 
ATOM     17  S   LIG    1        1.302   0.208  -2.304  0.00  0.00    -0.570 S 
BRANCH  16  19
ATOM     18  C   LIG    1       -0.018   1.461   0.010  0.00  0.00    +0.360 C 
ATOM     19  N   LIG    1        0.002  -0.004   0.002  0.00  0.00    -0.690 N 
ATOM     20  H   LIG    1       -0.404  -0.499   0.731  0.00  0.00    +0.390 HD
ENDBRANCH  16  19
ENDBRANCH  14  16
ENDBRANCH  12  14
ENDBRANCH   1  12
TORSDOF 5
ENDMDL
MODEL      662
REMARK  Name = ZINC000015414345
REMARK                            x       y       z     vdW  Elec       q    Type
REMARK                         _______ _______ _______ _____ _____    ______ ____
ROOT
ATOM      1  N   LIG    1        1.401  -2.532  -0.162  0.00  0.00    -0.590 N 
ATOM      2  C   LIG    1        0.839  -2.688  -1.504  0.00  0.00    +0.330 C 
ATOM      3  C   LIG    1        1.989  -3.143  -2.417  0.00  0.00    +0.010 C 
ATOM      4  C   LIG    1        3.189  -3.221  -1.496  0.00  0.00    +0.360 C 
ATOM      5  O   LIG    1        4.314  -3.540  -1.798  0.00  0.00    -0.350 OA
ATOM      6  C   LIG    1        2.709  -2.820  -0.143  0.00  0.00    +0.470 C 
ATOM      7  O   LIG    1        3.409  -2.768   0.847  0.00  0.00    -0.480 OA
ENDROOT
BRANCH   3   8
ATOM      8  C   LIG    1        1.688  -4.495  -3.010  0.00  0.00    +0.480 C 
ATOM      9  O   LIG    1        0.653  -5.057  -2.738  0.00  0.00    -0.490 OA
BRANCH   8  10
ATOM     10  O   LIG    1        2.568  -5.075  -3.840  0.00  0.00    -0.350 OA
ATOM     11  C   LIG    1        2.212  -6.378  -4.373  0.00  0.00    +0.280 C 
ENDBRANCH   8  10
ENDBRANCH   3   8
BRANCH   1  12
ATOM     12  C   LIG    1        0.633  -2.108   1.011  0.00  0.00    +0.340 C 
BRANCH  12  13
ATOM     13  C   LIG    1        0.673  -0.582   1.123  0.00  0.00    +0.170 C 
BRANCH  13  15
ATOM     14  C   LIG    1       -0.017   1.425   0.010  0.00  0.00    +0.200 C 
ATOM     15  O   LIG    1        0.002  -0.004   0.002  0.00  0.00    -0.390 OA
ENDBRANCH  13  15
ENDBRANCH  12  13
ENDBRANCH   1  12
TORSDOF 5
ENDMDL
MODEL      663
REMARK  Name = ZINC000004591608
REMARK                            x       y       z     vdW  Elec       q    Type
REMARK                         _______ _______ _______ _____ _____    ______ ____
ROOT
ATOM      1  O   LIG    1        0.002  -0.004   0.002  0.00  0.00    -0.450 OA
ATOM      2  N   LIG    1       -0.017   1.412   0.010  0.00  0.00    -0.040 N 
ATOM      3  C   LIG    1       -1.080   2.148   0.029  0.00  0.00    +0.040 A 
ATOM      4  C   LIG    1       -2.538   1.791   0.076  0.00  0.00    +0.190 C 
ATOM      5  C   LIG    1       -3.397   3.064  -0.083  0.00  0.00    +0.100 C 
ATOM      6  C   LIG    1       -2.765   4.161   0.736  0.00  0.00    +0.150 C 
ATOM      7  N   LIG    1       -3.488   5.416   0.925  0.00  0.00    -0.300 NA
ATOM      8  C   LIG    1       -2.441   6.366   1.407  0.00  0.00    +0.180 C 
ATOM      9  C   LIG    1       -1.081   5.843   0.873  0.00  0.00    +0.040 C 
ATOM     10  C   LIG    1       -1.476   4.651   0.012  0.00  0.00    +0.210 C 
ATOM     11  C   LIG    1       -0.561   3.483   0.015  0.00  0.00    +0.030 A 
ATOM     12  N   LIG    1        0.715   3.324   0.006  0.00  0.00    -0.270 NA
ATOM     13  O   LIG    1        0.964   2.132   0.004  0.00  0.00    +0.280 OA
ENDROOT
BRANCH   7  14
ATOM     14  O   LIG    1       -4.553   5.264   1.916  0.00  0.00    -0.430 OA
ATOM     15  H   LIG    1       -5.061   6.072   2.076  0.00  0.00    +0.390 HD
ENDBRANCH   7  14
BRANCH  10  16
ATOM     16  O   LIG    1       -1.748   5.073  -1.326  0.00  0.00    -0.510 OA
ATOM     17  H   LIG    1       -0.992   5.476  -1.773  0.00  0.00    +0.390 HD
ENDBRANCH  10  16
TORSDOF 2
ENDMDL
MODEL      664
REMARK  Name = ZINC000000248102
REMARK                            x       y       z     vdW  Elec       q    Type
REMARK                         _______ _______ _______ _____ _____    ______ ____
ROOT
ATOM      1  O   LIG    1        0.002  -0.004   0.002  0.00  0.00    -0.440 OA
ATOM      2  N   LIG    1       -0.017   1.412   0.010  0.00  0.00    -0.040 N 
ATOM      3  C   LIG    1       -1.075   2.149   0.029  0.00  0.00    +0.030 A 
ATOM      4  C   LIG    1       -2.540   1.829   0.073  0.00  0.00    +0.200 C 
ATOM      5  C   LIG    1       -3.268   3.062   0.618  0.00  0.00    +0.070 C 
ATOM      6  C   LIG    1       -2.917   4.314  -0.187  0.00  0.00    +0.220 C 
ATOM      7  N   LIG    1       -3.670   5.451   0.399  0.00  0.00    -0.320 NA
ATOM      8  C   LIG    1       -2.817   6.105   1.409  0.00  0.00    +0.200 C 
ATOM      9  C   LIG    1       -1.460   5.366   1.410  0.00  0.00    +0.030 C 
ATOM     10  C   LIG    1       -1.429   4.689   0.001  0.00  0.00    +0.200 C 
ATOM     11  C   LIG    1       -0.575   3.482   0.017  0.00  0.00    +0.040 A 
ATOM     12  N   LIG    1        0.709   3.328   0.013  0.00  0.00    -0.280 NA
ATOM     13  O   LIG    1        0.963   2.135   0.004  0.00  0.00    +0.280 OA
ENDROOT
BRANCH   7  14
ATOM     14  O   LIG    1       -4.929   4.997   0.990  0.00  0.00    -0.430 OA
ATOM     15  H   LIG    1       -5.455   5.705   1.386  0.00  0.00    +0.390 HD
ENDBRANCH   7  14
BRANCH  10  16
ATOM     16  O   LIG    1       -1.003   5.617  -0.999  0.00  0.00    -0.520 OA
ATOM     17  H   LIG    1       -0.110   5.961  -0.862  0.00  0.00    +0.390 HD
ENDBRANCH  10  16
TORSDOF 2
ENDMDL
MODEL      665
REMARK  Name = ZINC000012417271
REMARK                            x       y       z     vdW  Elec       q    Type
REMARK                         _______ _______ _______ _____ _____    ______ ____
ROOT
ATOM      1  C   LIG    1        0.680  -2.077   1.092  0.00  0.00    +0.170 C 
ATOM      2  C   LIG    1        1.303  -2.690   2.129  0.00  0.00    -0.160 A 
ATOM      3  S   LIG    1        2.102  -1.935   3.520  0.00  0.00    +0.280 S 
ATOM      4  C   LIG    1        2.574  -3.468   4.267  0.00  0.00    +0.250 A 
ATOM      5  N   LIG    1        3.195  -3.983   5.304  0.00  0.00    -0.490 NA
ATOM      6  C   LIG    1        3.174  -5.318   5.216  0.00  0.00    +0.500 A 
ATOM      7  N   LIG    1        2.542  -5.667   4.127  0.00  0.00    -0.320 NA
ATOM      8  N   LIG    1        2.132  -4.474   3.474  0.00  0.00    -0.410 N 
ATOM      9  C   LIG    1        1.464  -4.141   2.362  0.00  0.00    +0.580 A 
ATOM     10  O   LIG    1        1.024  -4.974   1.596  0.00  0.00    -0.410 OA
ENDROOT
BRANCH   6  11
ATOM     11  N   LIG    1        3.736  -6.197   6.140  0.00  0.00    -0.800 N 
ATOM     12  H   LIG    1        3.674  -7.154   5.998  0.00  0.00    +0.420 HD
ATOM     13  H   LIG    1        4.189  -5.851   6.925  0.00  0.00    +0.420 HD
ENDBRANCH   6  11
BRANCH   1  14
ATOM     14  C   LIG    1        0.621  -0.614   1.034  0.00  0.00    +0.490 C 
ATOM     15  O   LIG    1        1.130   0.051   1.915  0.00  0.00    -0.480 OA
BRANCH  14  17
ATOM     16  C   LIG    1       -0.018   1.448   0.010  0.00  0.00    +0.280 C 
ATOM     17  O   LIG    1        0.002  -0.004   0.002  0.00  0.00    -0.340 OA
ENDBRANCH  14  17
ENDBRANCH   1  14
TORSDOF 3
ENDMDL
MODEL      666
REMARK  Name = ZINC000001226992
REMARK                            x       y       z     vdW  Elec       q    Type
REMARK                         _______ _______ _______ _____ _____    ______ ____
ROOT
ATOM      1  O   LIG    1        0.002  -0.004   0.002  0.00  0.00    -0.440 OA
ATOM      2  N   LIG    1       -0.017   1.412   0.010  0.00  0.00    -0.040 N 
ATOM      3  C   LIG    1       -1.075   2.149   0.029  0.00  0.00    +0.030 A 
ATOM      4  C   LIG    1       -2.541   1.829   0.026  0.00  0.00    +0.200 C 
ATOM      5  C   LIG    1       -3.284   3.068  -0.483  0.00  0.00    +0.070 C 
ATOM      6  C   LIG    1       -2.909   4.311   0.324  0.00  0.00    +0.220 C 
ATOM      7  N   LIG    1       -3.679   5.454  -0.228  0.00  0.00    -0.320 NA
ATOM      8  C   LIG    1       -2.857   6.119  -1.256  0.00  0.00    +0.190 C 
ATOM      9  C   LIG    1       -1.500   5.381  -1.305  0.00  0.00    +0.030 C 
ATOM     10  C   LIG    1       -1.428   4.689   0.096  0.00  0.00    +0.200 C 
ATOM     11  C   LIG    1       -0.575   3.482   0.042  0.00  0.00    +0.040 A 
ATOM     12  N   LIG    1        0.709   3.328   0.006  0.00  0.00    -0.280 NA
ATOM     13  O   LIG    1        0.963   2.135   0.004  0.00  0.00    +0.280 OA
ENDROOT
BRANCH   7  14
ATOM     14  O   LIG    1       -4.955   5.006  -0.786  0.00  0.00    -0.430 OA
ATOM     15  H   LIG    1       -5.493   5.718  -1.158  0.00  0.00    +0.390 HD
ENDBRANCH   7  14
BRANCH  10  16
ATOM     16  O   LIG    1       -0.972   5.606   1.092  0.00  0.00    -0.520 OA
ATOM     17  H   LIG    1       -0.083   5.952   0.932  0.00  0.00    +0.390 HD
ENDBRANCH  10  16
TORSDOF 2
ENDMDL
MODEL      667
REMARK  Name = ZINC000002783360
REMARK                            x       y       z     vdW  Elec       q    Type
REMARK                         _______ _______ _______ _____ _____    ______ ____
ROOT
ATOM      1  N   LIG    1       -2.379  -0.010   0.020  0.00  0.00    -0.510 N 
ATOM      2  H   LIG    1       -1.537  -0.484  -0.069  0.00  0.00    +0.420 HD
ENDROOT
BRANCH   1   3
ATOM      3  N   LIG    1       -2.397   1.391   0.030  0.00  0.00    -0.450 N 
ATOM      4  H   LIG    1       -3.243   1.865   0.046  0.00  0.00    +0.470 HD
BRANCH   3   5
ATOM      5  C   LIG    1       -1.239   2.080   0.019  0.00  0.00    +0.570 C 
ATOM      6  S   LIG    1       -1.261   3.792   0.031  0.00  0.00    -0.550 S 
BRANCH   5   7
ATOM      7  N   LIG    1       -0.063   1.421  -0.003  0.00  0.00    -0.800 N 
ATOM      8  H   LIG    1       -0.050   0.451  -0.006  0.00  0.00    +0.390 HD
ATOM      9  H   LIG    1        0.770   1.917  -0.011  0.00  0.00    +0.440 HD
ENDBRANCH   5   7
ENDBRANCH   3   5
ENDBRANCH   1   3
BRANCH   1  10
ATOM     10  C   LIG    1       -3.531  -0.700   0.134  0.00  0.00    +0.560 C 
ATOM     11  S   LIG    1       -5.027   0.131   0.159  0.00  0.00    -0.590 S 
BRANCH  10  12
ATOM     12  N   LIG    1       -3.505  -2.044   0.228  0.00  0.00    -0.560 N 
ATOM     13  C   LIG    1       -2.230  -2.772   0.330  0.00  0.00    +0.230 C 
ATOM     14  C   LIG    1       -2.317  -3.734   1.520  0.00  0.00    +0.230 C 
ATOM     15  O   LIG    1       -3.496  -4.533   1.395  0.00  0.00    -0.370 OA
ATOM     16  C   LIG    1       -4.715  -3.787   1.427  0.00  0.00    +0.230 C 
ATOM     17  C   LIG    1       -4.751  -2.827   0.238  0.00  0.00    +0.300 C 
ENDBRANCH  10  12
ENDBRANCH   1  10
TORSDOF 5
ENDMDL
MODEL      668
REMARK  Name = ZINC000004591609
REMARK                            x       y       z     vdW  Elec       q    Type
REMARK                         _______ _______ _______ _____ _____    ______ ____
ROOT
ATOM      1  O   LIG    1        0.002  -0.004   0.002  0.00  0.00    -0.450 OA
ATOM      2  N   LIG    1       -0.017   1.412   0.010  0.00  0.00    -0.040 N 
ATOM      3  C   LIG    1       -1.080   2.148   0.029  0.00  0.00    +0.040 A 
ATOM      4  C   LIG    1       -2.538   1.789   0.022  0.00  0.00    +0.190 C 
ATOM      5  C   LIG    1       -3.393   3.059   0.223  0.00  0.00    +0.110 C 
ATOM      6  C   LIG    1       -2.785   4.168  -0.594  0.00  0.00    +0.160 C 
ATOM      7  N   LIG    1       -3.528   5.392  -0.834  0.00  0.00    -0.310 NA
ATOM      8  C   LIG    1       -2.521   6.462  -1.076  0.00  0.00    +0.200 C 
ATOM      9  C   LIG    1       -1.121   5.830  -0.833  0.00  0.00    +0.030 C 
ATOM     10  C   LIG    1       -1.473   4.655   0.086  0.00  0.00    +0.200 C 
ATOM     11  C   LIG    1       -0.561   3.482   0.043  0.00  0.00    +0.030 A 
ATOM     12  N   LIG    1        0.714   3.324   0.014  0.00  0.00    -0.270 NA
ATOM     13  O   LIG    1        0.964   2.132   0.004  0.00  0.00    +0.280 OA
ENDROOT
BRANCH   7  14
ATOM     14  O   LIG    1       -4.424   5.247  -1.981  0.00  0.00    -0.430 OA
ATOM     15  H   LIG    1       -4.941   6.039  -2.179  0.00  0.00    +0.390 HD
ENDBRANCH   7  14
BRANCH  10  16
ATOM     16  O   LIG    1       -1.696   5.098   1.427  0.00  0.00    -0.510 OA
ATOM     17  H   LIG    1       -0.926   5.516   1.836  0.00  0.00    +0.390 HD
ENDBRANCH  10  16
TORSDOF 2
ENDMDL
MODEL      669
REMARK  Name = ZINC000008851450
REMARK                            x       y       z     vdW  Elec       q    Type
REMARK                         _______ _______ _______ _____ _____    ______ ____
ROOT
ATOM      1  C   LIG    1       -1.957   4.007   1.233  0.00  0.00    +0.420 A 
ATOM      2  N   LIG    1       -1.739   5.279   1.482  0.00  0.00    -0.290 NA
ATOM      3  N   LIG    1       -2.557   5.975   2.372  0.00  0.00    -0.170 N 
ATOM      4  N   LIG    1       -2.593   7.293   2.843  0.00  0.00    -0.040 NA
ATOM      5  N   LIG    1       -3.583   7.373   3.666  0.00  0.00    -0.020 NA
ATOM      6  N   LIG    1       -4.184   6.241   3.770  0.00  0.00    -0.290 NA
ATOM      7  C   LIG    1       -3.596   5.339   2.995  0.00  0.00    +0.180 A 
ATOM      8  C   LIG    1       -3.831   3.978   2.728  0.00  0.00    +0.190 A 
ATOM      9  C   LIG    1       -3.021   3.326   1.853  0.00  0.00    +0.020 A 
ENDROOT
BRANCH   1  13
ATOM     10  O   LIG    1        0.002  -0.004   0.002  0.00  0.00    -0.540 OA
ATOM     11  C   LIG    1       -0.014   1.209   0.009  0.00  0.00    +0.510 C 
ATOM     12  C   LIG    1       -1.346   1.908   0.031  0.00  0.00    +0.360 C 
ATOM     13  N   LIG    1       -1.132   3.329   0.343  0.00  0.00    -0.590 N 
ATOM     14  C   LIG    1       -0.008   4.005  -0.327  0.00  0.00    +0.310 C 
ATOM     15  C   LIG    1        1.287   3.307   0.093  0.00  0.00    +0.270 C 
ATOM     16  N   LIG    1        1.149   1.861   0.001  0.00  0.00    -0.720 N 
ATOM     17  H   LIG    1        1.960   1.334  -0.077  0.00  0.00    +0.410 HD
ENDBRANCH   1  13
TORSDOF 1
ENDMDL
MODEL      670
REMARK  Name = ZINC000004813875
REMARK                            x       y       z     vdW  Elec       q    Type
REMARK                         _______ _______ _______ _____ _____    ______ ____
ROOT
ATOM      1  C   LIG    1       -1.448  -2.407   0.300  0.00  0.00    -0.420 C 
ATOM      2  C   LIG    1       -0.866  -2.618   1.722  0.00  0.00    -0.260 C 
ATOM      3  S   LIG    1       -1.226  -4.400   1.994  0.00  0.00    +2.410 S 
ATOM      4  C   LIG    1       -2.830  -4.386   1.108  0.00  0.00    -0.320 C 
ATOM      5  O   LIG    1       -1.444  -4.636   3.378  0.00  0.00    -0.920 OA
ATOM      6  O   LIG    1       -0.291  -5.191   1.275  0.00  0.00    -0.920 OA
ATOM      7  C   LIG    1       -2.785  -3.145   0.206  0.00  0.00    +0.230 C 
ENDROOT
BRANCH   1   8
ATOM      8  S   LIG    1       -1.707  -0.636   0.003  0.00  0.00    +2.430 S 
ATOM      9  O   LIG    1       -2.139  -0.460  -1.339  0.00  0.00    -0.910 OA
ATOM     10  O   LIG    1       -2.496  -0.110   1.061  0.00  0.00    -0.930 OA
BRANCH   8  12
ATOM     11  C   LIG    1        0.869  -0.605  -0.918  0.00  0.00    +0.090 C 
ATOM     12  C   LIG    1       -0.022   0.020   0.158  0.00  0.00    -0.430 C 
ATOM     13  C   LIG    1       -0.048   1.539  -0.021  0.00  0.00    +0.090 C 
ENDBRANCH   8  12
ENDBRANCH   1   8
BRANCH   7  14
ATOM     14  O   LIG    1       -2.990  -3.548  -1.149  0.00  0.00    -0.550 OA
ATOM     15  H   LIG    1       -3.846  -3.969  -1.309  0.00  0.00    +0.400 HD
ENDBRANCH   7  14
TORSDOF 3
ENDMDL
MODEL      671
REMARK  Name = ZINC000016034431
REMARK                            x       y       z     vdW  Elec       q    Type
REMARK                         _______ _______ _______ _____ _____    ______ ____
ROOT
ATOM      1  C   LIG    1       -1.471  -2.387   0.305  0.00  0.00    -0.430 C 
ATOM      2  C   LIG    1       -0.889  -2.605   1.726  0.00  0.00    -0.260 C 
ATOM      3  S   LIG    1       -1.273  -4.382   2.000  0.00  0.00    +2.400 S 
ATOM      4  C   LIG    1       -2.878  -4.348   1.116  0.00  0.00    -0.310 C 
ATOM      5  O   LIG    1       -1.492  -4.615   3.385  0.00  0.00    -0.920 OA
ATOM      6  O   LIG    1       -0.349  -5.186   1.280  0.00  0.00    -0.920 OA
ATOM      7  C   LIG    1       -2.817  -3.107   0.214  0.00  0.00    +0.240 C 
ENDROOT
BRANCH   1   8
ATOM      8  S   LIG    1       -1.706  -0.613   0.008  0.00  0.00    +2.460 S 
ATOM      9  O   LIG    1       -2.207  -0.438  -1.310  0.00  0.00    -0.920 OA
ATOM     10  O   LIG    1       -2.426  -0.062   1.102  0.00  0.00    -0.900 OA
BRANCH   8  12
ATOM     11  C   LIG    1        0.815  -0.643  -1.052  0.00  0.00    +0.080 C 
ATOM     12  C   LIG    1       -0.003   0.006   0.067  0.00  0.00    -0.440 C 
ATOM     13  C   LIG    1       -0.005   1.525  -0.120  0.00  0.00    +0.100 C 
ENDBRANCH   8  12
ENDBRANCH   1   8
BRANCH   7  14
ATOM     14  O   LIG    1       -3.854  -2.203   0.599  0.00  0.00    -0.560 OA
ATOM     15  H   LIG    1       -4.746  -2.564   0.505  0.00  0.00    +0.400 HD
ENDBRANCH   7  14
TORSDOF 3
ENDMDL
MODEL      672
REMARK  Name = ZINC000038490276
REMARK                            x       y       z     vdW  Elec       q    Type
REMARK                         _______ _______ _______ _____ _____    ______ ____
ROOT
ATOM      1  C   LIG    1       -2.472  -4.341  -1.134  0.00  0.00    +0.510 C 
ATOM      2  N   LIG    1       -2.751  -5.658  -1.069  0.00  0.00    -0.700 N 
ATOM      3  H   LIG    1       -2.032  -6.302  -0.971  0.00  0.00    +0.420 HD
ATOM      4  O   LIG    1       -3.371  -3.536  -1.256  0.00  0.00    -0.520 OA
ENDROOT
BRANCH   1   7
ATOM      5  N   LIG    1       -0.776  -2.556  -1.119  0.00  0.00    -0.690 N 
ATOM      6  H   LIG    1       -1.495  -1.912  -1.217  0.00  0.00    +0.420 HD
ATOM      7  C   LIG    1       -1.055  -3.873  -1.054  0.00  0.00    +0.510 C 
ATOM      8  O   LIG    1       -0.156  -4.678  -0.932  0.00  0.00    -0.520 OA
BRANCH   5   9
ATOM      9  C   LIG    1        0.613  -2.097  -1.041  0.00  0.00    +0.290 C 
BRANCH   9  10
ATOM     10  C   LIG    1        0.652  -0.570  -1.138  0.00  0.00    +0.180 C 
BRANCH  10  12
ATOM     11  C   LIG    1       -0.017   1.425   0.010  0.00  0.00    +0.200 C 
ATOM     12  O   LIG    1        0.002  -0.004   0.002  0.00  0.00    -0.390 OA
ENDBRANCH  10  12
ENDBRANCH   9  10
ENDBRANCH   5   9
ENDBRANCH   1   7
BRANCH   2  13
ATOM     13  C   LIG    1       -4.140  -6.117  -1.147  0.00  0.00    +0.240 C 
BRANCH  13  14
ATOM     14  C   LIG    1       -4.179  -7.644  -1.050  0.00  0.00    +0.200 C 
ATOM     15  C   LIG    1       -5.614  -8.132  -1.256  0.00  0.00    +0.020 C 
BRANCH  14  16
ATOM     16  O   LIG    1       -3.717  -8.051   0.239  0.00  0.00    -0.560 OA
ATOM     17  H   LIG    1       -4.244  -7.705   0.973  0.00  0.00    +0.380 HD
ENDBRANCH  14  16
ENDBRANCH  13  14
ENDBRANCH   2  13
TORSDOF 7
ENDMDL
MODEL      673
REMARK  Name = ZINC000002477703
REMARK                            x       y       z     vdW  Elec       q    Type
REMARK                         _______ _______ _______ _____ _____    ______ ____
ROOT
ATOM      1  C   LIG    1        0.364  -4.324   2.728  0.00  0.00    +0.510 C 
ATOM      2  N   LIG    1        0.592  -5.635   2.942  0.00  0.00    -0.700 N 
ATOM      3  H   LIG    1        0.334  -6.288   2.272  0.00  0.00    +0.420 HD
ATOM      4  O   LIG    1        0.687  -3.507   3.565  0.00  0.00    -0.520 OA
ENDROOT
BRANCH   1   7
ATOM      5  N   LIG    1       -0.515  -2.565   1.245  0.00  0.00    -0.690 N 
ATOM      6  H   LIG    1       -0.257  -1.913   1.914  0.00  0.00    +0.420 HD
ATOM      7  C   LIG    1       -0.287  -3.876   1.459  0.00  0.00    +0.510 C 
ATOM      8  O   LIG    1       -0.610  -4.693   0.622  0.00  0.00    -0.520 OA
BRANCH   5   9
ATOM      9  C   LIG    1       -1.154  -2.126   0.002  0.00  0.00    +0.290 C 
BRANCH   9  10
ATOM     10  C   LIG    1       -1.295  -0.603   0.011  0.00  0.00    +0.180 C 
BRANCH  10  12
ATOM     11  C   LIG    1       -0.017   1.425   0.010  0.00  0.00    +0.200 C 
ATOM     12  O   LIG    1        0.002  -0.004   0.002  0.00  0.00    -0.390 OA
ENDBRANCH  10  12
ENDBRANCH   9  10
ENDBRANCH   5   9
ENDBRANCH   1   7
BRANCH   2  13
ATOM     13  C   LIG    1        1.230  -6.074   4.185  0.00  0.00    +0.280 C 
BRANCH  13  14
ATOM     14  C   LIG    1        1.372  -7.597   4.176  0.00  0.00    +0.020 C 
BRANCH  14  15
ATOM     15  C   LIG    1        2.039  -8.056   5.474  0.00  0.00    +0.180 C 
BRANCH  15  16
ATOM     16  O   LIG    1        2.171  -9.479   5.465  0.00  0.00    -0.570 OA
ATOM     17  H   LIG    1        2.587  -9.840   6.260  0.00  0.00    +0.380 HD
ENDBRANCH  15  16
ENDBRANCH  14  15
ENDBRANCH  13  14
ENDBRANCH   2  13
TORSDOF 8
ENDMDL
MODEL      674
REMARK  Name = ZINC000016034429
REMARK                            x       y       z     vdW  Elec       q    Type
REMARK                         _______ _______ _______ _____ _____    ______ ____
ROOT
ATOM      1  C   LIG    1       -1.438  -2.421   0.158  0.00  0.00    -0.420 C 
ATOM      2  C   LIG    1       -0.501  -2.882  -0.977  0.00  0.00    -0.270 C 
ATOM      3  S   LIG    1       -1.133  -4.561  -1.374  0.00  0.00    +2.400 S 
ATOM      4  C   LIG    1       -2.890  -4.123  -1.058  0.00  0.00    -0.310 C 
ATOM      5  O   LIG    1       -0.683  -5.489  -0.396  0.00  0.00    -0.920 OA
ATOM      6  O   LIG    1       -0.945  -4.833  -2.756  0.00  0.00    -0.920 OA
ATOM      7  C   LIG    1       -2.789  -3.124   0.108  0.00  0.00    +0.240 C 
ENDROOT
BRANCH   1   8
ATOM      8  S   LIG    1       -1.700  -0.632   0.015  0.00  0.00    +2.460 S 
ATOM      9  O   LIG    1       -2.292  -0.360  -1.248  0.00  0.00    -0.910 OA
ATOM     10  O   LIG    1       -2.343  -0.173   1.196  0.00  0.00    -0.920 OA
BRANCH   8  12
ATOM     11  C   LIG    1       -0.019   1.526   0.010  0.00  0.00    +0.090 C 
ATOM     12  C   LIG    1        0.002  -0.004   0.002  0.00  0.00    -0.450 C 
ATOM     13  C   LIG    1        0.742  -0.511   1.242  0.00  0.00    +0.080 C 
ENDBRANCH   8  12
ENDBRANCH   1   8
BRANCH   7  14
ATOM     14  O   LIG    1       -3.816  -2.140  -0.034  0.00  0.00    -0.570 OA
ATOM     15  H   LIG    1       -4.713  -2.501  -0.006  0.00  0.00    +0.410 HD
ENDBRANCH   7  14
TORSDOF 3
ENDMDL
MODEL      675
REMARK  Name = ZINC000002394223
REMARK                            x       y       z     vdW  Elec       q    Type
REMARK                         _______ _______ _______ _____ _____    ______ ____
ROOT
ATOM      1  N   LIG    1       -0.776  -2.556  -1.119  0.00  0.00    -0.690 N 
ATOM      2  H   LIG    1       -1.495  -1.912  -1.217  0.00  0.00    +0.420 HD
ATOM      3  C   LIG    1       -1.055  -3.873  -1.054  0.00  0.00    +0.510 C 
ATOM      4  O   LIG    1       -0.156  -4.678  -0.932  0.00  0.00    -0.520 OA
ENDROOT
BRANCH   3   5
ATOM      5  C   LIG    1       -2.472  -4.341  -1.134  0.00  0.00    +0.510 C 
ATOM      6  N   LIG    1       -2.751  -5.658  -1.069  0.00  0.00    -0.690 N 
ATOM      7  H   LIG    1       -2.032  -6.302  -0.971  0.00  0.00    +0.420 HD
ATOM      8  O   LIG    1       -3.371  -3.536  -1.256  0.00  0.00    -0.520 OA
BRANCH   6   9
ATOM      9  C   LIG    1       -4.140  -6.117  -1.147  0.00  0.00    +0.290 C 
BRANCH   9  10
ATOM     10  C   LIG    1       -4.179  -7.644  -1.050  0.00  0.00    +0.180 C 
BRANCH  10  11
ATOM     11  O   LIG    1       -3.717  -8.051   0.239  0.00  0.00    -0.390 OA
ATOM     12  C   LIG    1       -3.714  -9.467   0.435  0.00  0.00    +0.200 C 
ENDBRANCH  10  11
ENDBRANCH   9  10
ENDBRANCH   6   9
ENDBRANCH   3   5
BRANCH   1  13
ATOM     13  C   LIG    1        0.613  -2.097  -1.041  0.00  0.00    +0.290 C 
BRANCH  13  14
ATOM     14  C   LIG    1        0.652  -0.570  -1.138  0.00  0.00    +0.180 C 
BRANCH  14  16
ATOM     15  C   LIG    1       -0.017   1.425   0.010  0.00  0.00    +0.200 C 
ATOM     16  O   LIG    1        0.002  -0.004   0.002  0.00  0.00    -0.390 OA
ENDBRANCH  14  16
ENDBRANCH  13  14
ENDBRANCH   1  13
TORSDOF 7
ENDMDL
MODEL      676
REMARK  Name = ZINC000038490278
REMARK                            x       y       z     vdW  Elec       q    Type
REMARK                         _______ _______ _______ _____ _____    ______ ____
ROOT
ATOM      1  C   LIG    1       -2.472  -4.341  -1.134  0.00  0.00    +0.510 C 
ATOM      2  N   LIG    1       -2.751  -5.658  -1.069  0.00  0.00    -0.690 N 
ATOM      3  H   LIG    1       -2.032  -6.302  -0.971  0.00  0.00    +0.420 HD
ATOM      4  O   LIG    1       -3.371  -3.536  -1.256  0.00  0.00    -0.520 OA
ENDROOT
BRANCH   1   7
ATOM      5  N   LIG    1       -0.776  -2.556  -1.119  0.00  0.00    -0.690 N 
ATOM      6  H   LIG    1       -1.495  -1.912  -1.217  0.00  0.00    +0.420 HD
ATOM      7  C   LIG    1       -1.055  -3.873  -1.054  0.00  0.00    +0.510 C 
ATOM      8  O   LIG    1       -0.156  -4.678  -0.932  0.00  0.00    -0.520 OA
BRANCH   5   9
ATOM      9  C   LIG    1        0.613  -2.097  -1.041  0.00  0.00    +0.290 C 
BRANCH   9  10
ATOM     10  C   LIG    1        0.652  -0.570  -1.138  0.00  0.00    +0.180 C 
BRANCH  10  12
ATOM     11  C   LIG    1       -0.017   1.425   0.010  0.00  0.00    +0.200 C 
ATOM     12  O   LIG    1        0.002  -0.004   0.002  0.00  0.00    -0.390 OA
ENDBRANCH  10  12
ENDBRANCH   9  10
ENDBRANCH   5   9
ENDBRANCH   1   7
BRANCH   2  13
ATOM     13  C   LIG    1       -4.140  -6.117  -1.147  0.00  0.00    +0.240 C 
BRANCH  13  14
ATOM     14  C   LIG    1       -4.179  -7.644  -1.050  0.00  0.00    +0.200 C 
ATOM     15  C   LIG    1       -5.629  -8.123  -1.131  0.00  0.00    +0.020 C 
BRANCH  14  16
ATOM     16  O   LIG    1       -3.429  -8.209  -2.128  0.00  0.00    -0.560 OA
ATOM     17  H   LIG    1       -3.760  -7.970  -3.005  0.00  0.00    +0.380 HD
ENDBRANCH  14  16
ENDBRANCH  13  14
ENDBRANCH   2  13
TORSDOF 7
ENDMDL
MODEL      677
REMARK  Name = ZINC000016034430
REMARK                            x       y       z     vdW  Elec       q    Type
REMARK                         _______ _______ _______ _____ _____    ______ ____
ROOT
ATOM      1  C   LIG    1       -1.438  -2.421   0.158  0.00  0.00    -0.410 C 
ATOM      2  C   LIG    1       -0.501  -2.882  -0.977  0.00  0.00    -0.270 C 
ATOM      3  S   LIG    1       -1.133  -4.561  -1.374  0.00  0.00    +2.400 S 
ATOM      4  C   LIG    1       -2.890  -4.123  -1.058  0.00  0.00    -0.310 C 
ATOM      5  O   LIG    1       -0.683  -5.489  -0.396  0.00  0.00    -0.910 OA
ATOM      6  O   LIG    1       -0.945  -4.833  -2.756  0.00  0.00    -0.920 OA
ATOM      7  C   LIG    1       -2.789  -3.124   0.108  0.00  0.00    +0.220 C 
ENDROOT
BRANCH   1   8
ATOM      8  S   LIG    1       -1.700  -0.632   0.015  0.00  0.00    +2.430 S 
ATOM      9  O   LIG    1       -2.292  -0.360  -1.248  0.00  0.00    -0.920 OA
ATOM     10  O   LIG    1       -2.343  -0.173   1.196  0.00  0.00    -0.920 OA
BRANCH   8  12
ATOM     11  C   LIG    1       -0.019   1.526   0.010  0.00  0.00    +0.090 C 
ATOM     12  C   LIG    1        0.002  -0.004   0.002  0.00  0.00    -0.430 C 
ATOM     13  C   LIG    1        0.742  -0.511   1.242  0.00  0.00    +0.090 C 
ENDBRANCH   8  12
ENDBRANCH   1   8
BRANCH   7  14
ATOM     14  O   LIG    1       -2.985  -3.825   1.338  0.00  0.00    -0.550 OA
ATOM     15  H   LIG    1       -3.851  -4.248   1.416  0.00  0.00    +0.400 HD
ENDBRANCH   7  14
TORSDOF 3
ENDMDL
MODEL      678
REMARK  Name = ZINC000002565479
REMARK                            x       y       z     vdW  Elec       q    Type
REMARK                         _______ _______ _______ _____ _____    ______ ____
ROOT
ATOM      1  C1*   U A  1       -0.032   5.396   0.033  0.00  0.00    +0.460 C 
ATOM      2  O4*   U A  1        0.880   5.897  -0.969  0.00  0.00    -0.330 OA
ATOM      3  C4*   U A  1        2.196   5.752  -0.391  0.00  0.00    +0.120 C 
ATOM      4  C3*   U A  1        2.025   6.162   1.088  0.00  0.00    +0.130 C 
ATOM      5  C2*   U A  1        0.523   5.922   1.375  0.00  0.00    +0.180 C 
ENDROOT
BRANCH   1  10
ATOM      6  O4    U A  1       -0.128  -0.003   0.051  0.00  0.00    -0.520 OA
ATOM      7  C4    U A  1       -0.099   1.214   0.041  0.00  0.00    +0.550 A 
ATOM      8  C5    U A  1        0.842   1.900  -0.763  0.00  0.00    -0.120 A 
ATOM      9  C6    U A  1        0.852   3.251  -0.756  0.00  0.00    +0.350 A 
ATOM     10  N1    U A  1       -0.043   3.930   0.025  0.00  0.00    -0.530 N 
ATOM     11  C2    U A  1       -0.933   3.266   0.784  0.00  0.00    +0.710 A 
ATOM     12  O2    U A  1       -1.719   3.891   1.470  0.00  0.00    -0.520 OA
ATOM     13  N3    U A  1       -0.968   1.921   0.792  0.00  0.00    -0.660 N 
ATOM     14  H3    U A  1       -1.616   1.458   1.345  0.00  0.00    +0.430 HD
ENDBRANCH   1  10
BRANCH   4  15
ATOM     15  O3*   U A  1        2.836   5.341   1.932  0.00  0.00    -0.540 OA
ATOM     16  H3*   U A  1        3.784   5.410   1.754  0.00  0.00    +0.390 HD
ENDBRANCH   4  15
BRANCH   5  17
ATOM     17  O2*   U A  1        0.359   4.946   2.406  0.00  0.00    -0.520 OA
ATOM     18  H2*   U A  1        0.746   5.202   3.255  0.00  0.00    +0.390 HD
ENDBRANCH   5  17
BRANCH   3  19
ATOM     19  C5*   U A  1        3.190   6.681  -1.092  0.00  0.00    +0.210 C 
BRANCH  19  20
ATOM     20  O5*   U A  1        3.365   6.256  -2.445  0.00  0.00    -0.570 OA
ATOM     21  H5*   U A  1        3.984   6.801  -2.951  0.00  0.00    +0.390 HD
ENDBRANCH  19  20
ENDBRANCH   3  19
TORSDOF 5
ENDMDL
MODEL      679
REMARK  Name = ZINC000015572250
REMARK                            x       y       z     vdW  Elec       q    Type
REMARK                         _______ _______ _______ _____ _____    ______ ____
ROOT
ATOM      1  N   LIG    1        2.257  -5.742  -1.777  0.00  0.00    -0.510 NA
ATOM      2  C   LIG    1        0.895  -6.213  -2.063  0.00  0.00    +0.210 C 
ENDROOT
BRANCH   1   3
ATOM      3  C   LIG    1        2.296  -4.277  -1.669  0.00  0.00    +0.220 C 
BRANCH   3   6
ATOM      4  N   LIG    1        1.401  -2.532  -0.162  0.00  0.00    -0.730 N 
ATOM      5  H   LIG    1        1.835  -1.870  -0.723  0.00  0.00    +0.400 HD
ATOM      6  C   LIG    1        1.505  -3.841  -0.462  0.00  0.00    +0.510 C 
ATOM      7  O   LIG    1        0.963  -4.669   0.239  0.00  0.00    -0.520 OA
BRANCH   4   8
ATOM      8  C   LIG    1        0.633  -2.108   1.011  0.00  0.00    +0.280 C 
BRANCH   8   9
ATOM      9  C   LIG    1        0.673  -0.582   1.123  0.00  0.00    +0.180 C 
BRANCH   9  11
ATOM     10  C   LIG    1       -0.017   1.425   0.010  0.00  0.00    +0.200 C 
ATOM     11  O   LIG    1        0.002  -0.004   0.002  0.00  0.00    -0.390 OA
ENDBRANCH   9  11
ENDBRANCH   8   9
ENDBRANCH   4   8
ENDBRANCH   3   6
ENDBRANCH   1   3
BRANCH   1  12
ATOM     12  C   LIG    1        3.204  -6.220  -2.793  0.00  0.00    +0.220 C 
BRANCH  12  13
ATOM     13  C   LIG    1        3.317  -7.721  -2.707  0.00  0.00    +0.520 C 
ATOM     14  N   LIG    1        4.135  -8.384  -3.549  0.00  0.00    -0.710 N 
ATOM     15  H   LIG    1        4.650  -7.896  -4.210  0.00  0.00    +0.400 HD
ATOM     16  O   LIG    1        2.673  -8.331  -1.881  0.00  0.00    -0.510 OA
BRANCH  14  17
ATOM     17  C   LIG    1        4.245  -9.842  -3.465  0.00  0.00    +0.220 C 
ATOM     18  C   LIG    1        4.241 -10.627  -4.779  0.00  0.00    +0.010 C 
ATOM     19  C   LIG    1        5.537 -10.483  -3.977  0.00  0.00    +0.010 C 
ENDBRANCH  14  17
ENDBRANCH  12  13
ENDBRANCH   1  12
TORSDOF 8
ENDMDL
MODEL      680
REMARK  Name = ZINC000012418833
REMARK                            x       y       z     vdW  Elec       q    Type
REMARK                         _______ _______ _______ _____ _____    ______ ____
ROOT
ATOM      1  N   LIG    1        2.125  -0.091  -1.209  0.00  0.00    -0.690 N 
ATOM      2  H   LIG    1        2.553   0.075  -0.355  0.00  0.00    +0.420 HD
ATOM      3  C   LIG    1        2.824   0.051  -2.353  0.00  0.00    +0.510 C 
ATOM      4  O   LIG    1        2.288  -0.157  -3.421  0.00  0.00    -0.520 OA
ENDROOT
BRANCH   3   5
ATOM      5  C   LIG    1        4.259   0.466  -2.304  0.00  0.00    +0.510 C 
ATOM      6  N   LIG    1        4.958   0.609  -3.448  0.00  0.00    -0.690 N 
ATOM      7  H   LIG    1        4.530   0.442  -4.302  0.00  0.00    +0.420 HD
ATOM      8  O   LIG    1        4.795   0.674  -1.236  0.00  0.00    -0.520 OA
BRANCH   6   9
ATOM      9  CA  LIG    1        6.365   1.015  -3.400  0.00  0.00    +0.250 C 
BRANCH   9  10
ATOM     10  C   LIG    1        7.081   0.522  -4.659  0.00  0.00    +0.030 C 
ATOM     11  C   LIG    1        7.102  -1.008  -4.668  0.00  0.00    +0.020 C 
ENDBRANCH   9  10
BRANCH   9  12
ATOM     12  C   LIG    1        6.453   2.541  -3.329  0.00  0.00    +0.170 C 
BRANCH  12  13
ATOM     13  O   LIG    1        5.937   3.105  -4.536  0.00  0.00    -0.570 OA
ATOM     14  H   LIG    1        5.961   4.072  -4.560  0.00  0.00    +0.380 HD
ENDBRANCH  12  13
ENDBRANCH   9  12
ENDBRANCH   6   9
ENDBRANCH   3   5
BRANCH   1  15
ATOM     15  CA  LIG    1        0.718  -0.497  -1.257  0.00  0.00    +0.250 C 
BRANCH  15  17
ATOM     16  C   LIG    1       -0.019   1.526   0.010  0.00  0.00    +0.020 C 
ATOM     17  C   LIG    1        0.002  -0.004   0.002  0.00  0.00    +0.030 C 
ENDBRANCH  15  17
BRANCH  15  18
ATOM     18  C   LIG    1        0.630  -2.023  -1.329  0.00  0.00    +0.170 C 
BRANCH  18  19
ATOM     19  O   LIG    1        1.146  -2.587  -0.121  0.00  0.00    -0.570 OA
ATOM     20  H   LIG    1        1.122  -3.554  -0.097  0.00  0.00    +0.380 HD
ENDBRANCH  18  19
ENDBRANCH  15  18
ENDBRANCH   1  15
TORSDOF 9
ENDMDL
MODEL      681
REMARK  Name = ZINC000066152732
REMARK                            x       y       z     vdW  Elec       q    Type
REMARK                         _______ _______ _______ _____ _____    ______ ____
ROOT
ATOM      1  C   LIG    1        0.369  -4.328   2.738  0.00  0.00    +0.080 C 
ENDROOT
BRANCH   1   2
ATOM      2  C   LIG    1        0.511  -5.851   2.729  0.00  0.00    +0.210 C 
ATOM      3  N   LIG    1       -0.824  -6.465   2.733  0.00  0.00    -0.660 NA
ATOM      4  H   LIG    1       -1.416  -6.037   3.429  0.00  0.00    +0.340 HD
ATOM      5  C   LIG    1       -0.715  -7.916   2.953  0.00  0.00    +0.230 C 
ATOM      6  C   LIG    1       -0.247  -8.161   4.389  0.00  0.00    +0.220 C 
ATOM      7  N   LIG    1        0.932  -7.350   4.677  0.00  0.00    -0.720 N 
ATOM      8  H   LIG    1        1.488  -7.592   5.434  0.00  0.00    +0.400 HD
ATOM      9  C   LIG    1        1.279  -6.288   3.944  0.00  0.00    +0.490 C 
ATOM     10  O   LIG    1        2.258  -5.651   4.271  0.00  0.00    -0.550 OA
ENDBRANCH   1   2
BRANCH   1  13
ATOM     11  N   LIG    1       -0.515  -2.565   1.245  0.00  0.00    -0.730 N 
ATOM     12  H   LIG    1       -0.257  -1.913   1.914  0.00  0.00    +0.400 HD
ATOM     13  C   LIG    1       -0.287  -3.876   1.459  0.00  0.00    +0.520 C 
ATOM     14  O   LIG    1       -0.610  -4.693   0.622  0.00  0.00    -0.510 OA
BRANCH  11  15
ATOM     15  C   LIG    1       -1.154  -2.126   0.002  0.00  0.00    +0.280 C 
BRANCH  15  16
ATOM     16  C   LIG    1       -1.295  -0.603   0.011  0.00  0.00    +0.180 C 
BRANCH  16  18
ATOM     17  C   LIG    1       -0.017   1.425   0.010  0.00  0.00    +0.200 C 
ATOM     18  O   LIG    1        0.002  -0.004   0.002  0.00  0.00    -0.390 OA
ENDBRANCH  16  18
ENDBRANCH  15  16
ENDBRANCH  11  15
ENDBRANCH   1  13
TORSDOF 5
ENDMDL
MODEL      682
REMARK  Name = ZINC000095117664
REMARK                            x       y       z     vdW  Elec       q    Type
REMARK                         _______ _______ _______ _____ _____    ______ ____
ROOT
ATOM      1  C   LIG    1       -2.522  -5.872  -1.038  0.00  0.00    +0.290 C 
ATOM      2  C   LIG    1       -1.909  -6.497  -2.273  0.00  0.00    +0.540 C 
ATOM      3  N   LIG    1       -2.887  -7.222  -2.848  0.00  0.00    -0.630 N 
ATOM      4  H   LIG    1       -2.781  -7.737  -3.663  0.00  0.00    +0.440 HD
ATOM      5  C   LIG    1       -4.065  -7.137  -2.123  0.00  0.00    +0.470 A 
ATOM      6  N   LIG    1       -5.316  -7.564  -2.118  0.00  0.00    -0.530 NA
ATOM      7  C   LIG    1       -5.959  -7.070  -1.061  0.00  0.00    +0.470 A 
ATOM      8  N   LIG    1       -5.138  -6.322  -0.372  0.00  0.00    -0.270 NA
ATOM      9  O   LIG    1       -0.769  -6.370  -2.666  0.00  0.00    -0.420 OA
ATOM     10  N   LIG    1       -3.909  -6.351  -1.037  0.00  0.00    -0.410 N 
ENDROOT
BRANCH   1  11
ATOM     11  C   LIG    1       -2.484  -4.345  -1.134  0.00  0.00    +0.090 C 
BRANCH  11  14
ATOM     12  N   LIG    1       -0.776  -2.556  -1.119  0.00  0.00    -0.720 N 
ATOM     13  H   LIG    1       -1.495  -1.912  -1.217  0.00  0.00    +0.400 HD
ATOM     14  C   LIG    1       -1.055  -3.873  -1.054  0.00  0.00    +0.510 C 
ATOM     15  O   LIG    1       -0.156  -4.678  -0.932  0.00  0.00    -0.510 OA
BRANCH  12  16
ATOM     16  C   LIG    1        0.613  -2.097  -1.041  0.00  0.00    +0.290 C 
BRANCH  16  17
ATOM     17  C   LIG    1        0.652  -0.570  -1.138  0.00  0.00    +0.180 C 
BRANCH  17  19
ATOM     18  C   LIG    1       -0.017   1.425   0.010  0.00  0.00    +0.200 C 
ATOM     19  O   LIG    1        0.002  -0.004   0.002  0.00  0.00    -0.390 OA
ENDBRANCH  17  19
ENDBRANCH  16  17
ENDBRANCH  12  16
ENDBRANCH  11  14
ENDBRANCH   1  11
TORSDOF 5
ENDMDL
MODEL      683
REMARK  Name = ZINC000012296772
REMARK                            x       y       z     vdW  Elec       q    Type
REMARK                         _______ _______ _______ _____ _____    ______ ____
ROOT
ATOM      1  C   LIG    1        0.594  -0.675  -1.034  0.00  0.00    +0.220 C 
ATOM      2  C   LIG    1        0.692  -2.051  -1.192  0.00  0.00    -0.270 C 
ATOM      3  C   LIG    1        1.414  -2.269  -2.462  0.00  0.00    +0.580 C 
ATOM      4  N   LIG    1        1.714  -1.076  -3.001  0.00  0.00    -0.580 N 
ATOM      5  C   LIG    1        2.431  -0.888  -4.265  0.00  0.00    +0.340 C 
ATOM      6  O   LIG    1        1.691  -3.351  -2.941  0.00  0.00    -0.460 OA
ATOM      7  C   LIG    1        1.259  -0.079  -2.223  0.00  0.00    +0.570 C 
ATOM      8  O   LIG    1        1.378   1.108  -2.449  0.00  0.00    -0.450 OA
ENDROOT
BRANCH   2   9
ATOM      9  C   LIG    1        0.179  -3.082  -0.281  0.00  0.00    -0.010 C 
ATOM     10  C   LIG    1       -1.121  -3.276   0.088  0.00  0.00    +0.030 C 
ATOM     11  C   LIG    1       -1.132  -4.419   1.006  0.00  0.00    +0.550 C 
ATOM     12  N   LIG    1        0.125  -4.868   1.160  0.00  0.00    -0.590 N 
ATOM     13  C   LIG    1        0.516  -6.000   2.003  0.00  0.00    +0.340 C 
ATOM     14  O   LIG    1       -2.119  -4.886   1.542  0.00  0.00    -0.460 OA
ATOM     15  C   LIG    1        0.972  -4.128   0.421  0.00  0.00    +0.550 C 
ATOM     16  O   LIG    1        2.173  -4.282   0.346  0.00  0.00    -0.440 OA
ENDBRANCH   2   9
BRANCH   1  18
ATOM     17  C   LIG    1       -0.018   1.461   0.010  0.00  0.00    +0.320 C 
ATOM     18  N   LIG    1        0.002  -0.004   0.002  0.00  0.00    -0.660 N 
ATOM     19  H   LIG    1       -0.404  -0.499   0.731  0.00  0.00    +0.420 HD
ENDBRANCH   1  18
TORSDOF 2
ENDMDL
MODEL      684
REMARK  Name = ZINC000066152731
REMARK                            x       y       z     vdW  Elec       q    Type
REMARK                         _______ _______ _______ _____ _____    ______ ____
ROOT
ATOM      1  C   LIG    1        0.369  -4.328   2.738  0.00  0.00    +0.090 C 
ENDROOT
BRANCH   1   2
ATOM      2  C   LIG    1        0.511  -5.851   2.729  0.00  0.00    +0.170 C 
ATOM      3  N   LIG    1        1.429  -6.249   1.653  0.00  0.00    -0.680 NA
ATOM      4  H   LIG    1        1.037  -6.040   0.747  0.00  0.00    +0.370 HD
ATOM      5  C   LIG    1        1.757  -7.679   1.768  0.00  0.00    +0.180 C 
ATOM      6  C   LIG    1        2.619  -7.887   3.015  0.00  0.00    +0.270 C 
ATOM      7  N   LIG    1        1.992  -7.248   4.169  0.00  0.00    -0.720 N 
ATOM      8  H   LIG    1        2.274  -7.517   5.057  0.00  0.00    +0.400 HD
ATOM      9  C   LIG    1        1.048  -6.311   4.055  0.00  0.00    +0.530 C 
ATOM     10  O   LIG    1        0.601  -5.809   5.065  0.00  0.00    -0.550 OA
ENDBRANCH   1   2
BRANCH   1  13
ATOM     11  N   LIG    1       -0.515  -2.565   1.245  0.00  0.00    -0.720 N 
ATOM     12  H   LIG    1       -0.257  -1.913   1.914  0.00  0.00    +0.410 HD
ATOM     13  C   LIG    1       -0.287  -3.876   1.459  0.00  0.00    +0.520 C 
ATOM     14  O   LIG    1       -0.610  -4.693   0.622  0.00  0.00    -0.550 OA
BRANCH  11  15
ATOM     15  C   LIG    1       -1.154  -2.126   0.002  0.00  0.00    +0.280 C 
BRANCH  15  16
ATOM     16  C   LIG    1       -1.295  -0.603   0.011  0.00  0.00    +0.180 C 
BRANCH  16  18
ATOM     17  C   LIG    1       -0.017   1.425   0.010  0.00  0.00    +0.200 C 
ATOM     18  O   LIG    1        0.002  -0.004   0.002  0.00  0.00    -0.390 OA
ENDBRANCH  16  18
ENDBRANCH  15  16
ENDBRANCH  11  15
ENDBRANCH   1  13
TORSDOF 5
ENDMDL
MODEL      685
REMARK  Name = ZINC000012503151
REMARK                            x       y       z     vdW  Elec       q    Type
REMARK                         _______ _______ _______ _____ _____    ______ ____
ROOT
ATOM      1  N   LIG    1       -1.137  -0.683   0.009  0.00  0.00    -0.590 NA
ATOM      2  C   LIG    1       -1.119  -2.018   0.002  0.00  0.00    +0.360 A 
ATOM      3  S   LIG    1        0.265  -3.042  -0.009  0.00  0.00    +0.260 S 
ATOM      4  C   LIG    1       -0.663  -4.551  -0.013  0.00  0.00    -0.560 A 
ATOM      5  N   LIG    1       -1.906  -4.198  -0.006  0.00  0.00    -0.090 NA
ATOM      6  N   LIG    1       -2.179  -2.848   0.008  0.00  0.00    -0.380 N 
ATOM      7  C   LIG    1       -3.554  -2.340   0.017  0.00  0.00    +0.400 C 
ENDROOT
BRANCH   1   9
ATOM      8  C   LIG    1       -0.018   1.503   0.010  0.00  0.00    +0.130 C 
ATOM      9  C   LIG    1        0.002  -0.004   0.002  0.00  0.00    +0.480 C 
ATOM     10  O   LIG    1        1.064  -0.598  -0.011  0.00  0.00    -0.530 OA
ENDBRANCH   1   9
BRANCH   4  11
ATOM     11  S   LIG    1       -0.024  -6.193  -0.024  0.00  0.00    +2.740 S 
ATOM     12  O   LIG    1       -1.146  -7.061   0.061  0.00  0.00    -0.920 OA
ATOM     13  O   LIG    1        1.046  -6.213   0.911  0.00  0.00    -0.920 OA
BRANCH  11  14
ATOM     14  N   LIG    1        0.651  -6.447  -1.514  0.00  0.00    -1.240 NA
ATOM     15  H   LIG    1        0.296  -5.988  -2.292  0.00  0.00    +0.420 HD
ATOM     16  H   LIG    1        1.402  -7.054  -1.610  0.00  0.00    +0.430 HD
ENDBRANCH  11  14
ENDBRANCH   4  11
TORSDOF 3
ENDMDL
MODEL      686
REMARK  Name = ZINC000095117665
REMARK                            x       y       z     vdW  Elec       q    Type
REMARK                         _______ _______ _______ _____ _____    ______ ____
ROOT
ATOM      1  C   LIG    1       -2.522  -5.872  -1.038  0.00  0.00    +0.290 C 
ATOM      2  C   LIG    1       -2.113  -6.325   0.348  0.00  0.00    +0.540 C 
ATOM      3  N   LIG    1       -3.175  -6.980   0.855  0.00  0.00    -0.630 N 
ATOM      4  H   LIG    1       -3.200  -7.384   1.736  0.00  0.00    +0.440 HD
ATOM      5  C   LIG    1       -4.226  -7.002  -0.048  0.00  0.00    +0.470 A 
ATOM      6  N   LIG    1       -5.465  -7.439  -0.190  0.00  0.00    -0.530 NA
ATOM      7  C   LIG    1       -5.933  -7.092  -1.388  0.00  0.00    +0.470 A 
ATOM      8  N   LIG    1       -5.008  -6.431  -2.033  0.00  0.00    -0.270 NA
ATOM      9  O   LIG    1       -1.045  -6.136   0.892  0.00  0.00    -0.420 OA
ATOM     10  N   LIG    1       -3.897  -6.361  -1.189  0.00  0.00    -0.410 N 
ENDROOT
BRANCH   1  11
ATOM     11  C   LIG    1       -2.484  -4.345  -1.134  0.00  0.00    +0.090 C 
BRANCH  11  14
ATOM     12  N   LIG    1       -0.776  -2.556  -1.119  0.00  0.00    -0.720 N 
ATOM     13  H   LIG    1       -1.495  -1.912  -1.217  0.00  0.00    +0.400 HD
ATOM     14  C   LIG    1       -1.055  -3.873  -1.054  0.00  0.00    +0.510 C 
ATOM     15  O   LIG    1       -0.156  -4.678  -0.932  0.00  0.00    -0.510 OA
BRANCH  12  16
ATOM     16  C   LIG    1        0.613  -2.097  -1.041  0.00  0.00    +0.290 C 
BRANCH  16  17
ATOM     17  C   LIG    1        0.652  -0.570  -1.138  0.00  0.00    +0.180 C 
BRANCH  17  19
ATOM     18  C   LIG    1       -0.017   1.425   0.010  0.00  0.00    +0.200 C 
ATOM     19  O   LIG    1        0.002  -0.004   0.002  0.00  0.00    -0.390 OA
ENDBRANCH  17  19
ENDBRANCH  16  17
ENDBRANCH  12  16
ENDBRANCH  11  14
ENDBRANCH   1  11
TORSDOF 5
ENDMDL
MODEL      687
REMARK  Name = ZINC000014137971
REMARK                            x       y       z     vdW  Elec       q    Type
REMARK                         _______ _______ _______ _____ _____    ______ ____
ROOT
ATOM      1  N   LIG    1       -2.206  -0.231  -1.200  0.00  0.00    -0.530 NA
ATOM      2  C   LIG    1       -1.971   1.158  -1.615  0.00  0.00    +0.180 C 
ATOM      3  C   LIG    1       -2.625   1.397  -2.979  0.00  0.00    +0.300 C 
ATOM      4  N   LIG    1       -4.040   1.005  -2.894  0.00  0.00    -0.580 N 
ATOM      5  C   LIG    1       -4.362  -0.326  -2.357  0.00  0.00    +0.300 C 
ATOM      6  C   LIG    1       -3.639  -0.498  -1.017  0.00  0.00    +0.200 C 
ENDROOT
BRANCH   4   7
ATOM      7  C   LIG    1       -5.047   1.869  -3.310  0.00  0.00    +0.410 A 
ATOM      8  N   LIG    1       -4.730   3.005  -3.891  0.00  0.00    -0.300 NA
ATOM      9  N   LIG    1       -5.727   3.884  -4.315  0.00  0.00    -0.160 N 
ATOM     10  N   LIG    1       -5.726   5.134  -4.946  0.00  0.00    -0.050 NA
ATOM     11  N   LIG    1       -6.960   5.481  -5.096  0.00  0.00    -0.030 NA
ATOM     12  N   LIG    1       -7.749   4.581  -4.626  0.00  0.00    -0.290 NA
ATOM     13  C   LIG    1       -7.046   3.571  -4.130  0.00  0.00    +0.170 A 
ATOM     14  C   LIG    1       -7.386   2.356  -3.510  0.00  0.00    +0.180 A 
ATOM     15  C   LIG    1       -6.394   1.515  -3.111  0.00  0.00    +0.020 A 
ENDBRANCH   4   7
BRANCH   1  16
ATOM     16  C   LIG    1       -1.451  -0.551   0.019  0.00  0.00    +0.240 C 
BRANCH  16  17
ATOM     17  C   LIG    1       -1.673   0.548   1.060  0.00  0.00    +0.130 C 
BRANCH  17  18
ATOM     18  O   LIG    1       -3.045   0.557   1.459  0.00  0.00    -0.570 OA
ATOM     19  H   LIG    1       -3.258   1.231   2.119  0.00  0.00    +0.380 HD
ENDBRANCH  17  18
ENDBRANCH  16  17
ENDBRANCH   1  16
TORSDOF 4
ENDMDL
MODEL      688
REMARK  Name = ZINC000014141033
REMARK                            x       y       z     vdW  Elec       q    Type
REMARK                         _______ _______ _______ _____ _____    ______ ____
ROOT
ATOM      1  C   LIG    1       -1.285  -0.770  -0.003  0.00  0.00    +0.170 C 
ATOM      2  C   LIG    1       -1.870  -0.820  -1.419  0.00  0.00    +0.280 C 
ATOM      3  N   LIG    1       -3.052  -1.694  -1.405  0.00  0.00    -0.580 N 
ATOM      4  C   LIG    1       -2.918  -3.037  -0.819  0.00  0.00    +0.260 C 
ATOM      5  C   LIG    1       -2.291  -2.900   0.573  0.00  0.00    +0.230 C 
ATOM      6  N   LIG    1       -1.039  -2.138   0.471  0.00  0.00    -0.660 NA
ATOM      7  H   LIG    1       -0.375  -2.612  -0.123  0.00  0.00    +0.360 HD
ENDROOT
BRANCH   3   8
ATOM      8  C   LIG    1       -4.264  -1.264  -1.933  0.00  0.00    +0.410 A 
ATOM      9  N   LIG    1       -4.388  -0.024  -2.350  0.00  0.00    -0.300 NA
ATOM     10  N   LIG    1       -5.597   0.424  -2.883  0.00  0.00    -0.170 N 
ATOM     11  N   LIG    1       -6.045   1.646  -3.401  0.00  0.00    -0.050 NA
ATOM     12  N   LIG    1       -7.276   1.478  -3.752  0.00  0.00    -0.020 NA
ATOM     13  N   LIG    1       -7.659   0.274  -3.512  0.00  0.00    -0.290 NA
ATOM     14  C   LIG    1       -6.667  -0.423  -2.976  0.00  0.00    +0.180 A 
ATOM     15  C   LIG    1       -6.535  -1.751  -2.529  0.00  0.00    +0.180 A 
ATOM     16  C   LIG    1       -5.344  -2.163  -2.019  0.00  0.00    +0.020 A 
ENDBRANCH   3   8
BRANCH   1  20
ATOM     17  N   LIG    1       -0.000   1.344  -0.027  0.00  0.00    -0.850 N 
ATOM     18  H   LIG    1       -0.845   1.821  -0.022  0.00  0.00    +0.400 HD
ATOM     19  H   LIG    1        0.835   1.837  -0.039  0.00  0.00    +0.410 HD
ATOM     20  C   LIG    1        0.013  -0.004  -0.022  0.00  0.00    +0.530 C 
ATOM     21  O   LIG    1        1.069  -0.600  -0.034  0.00  0.00    -0.530 OA
ENDBRANCH   1  20
TORSDOF 2
ENDMDL
MODEL      689
REMARK  Name = ZINC000014141031
REMARK                            x       y       z     vdW  Elec       q    Type
REMARK                         _______ _______ _______ _____ _____    ______ ____
ROOT
ATOM      1  C   LIG    1       -1.147  -0.699   0.268  0.00  0.00    +0.130 C 
ATOM      2  C   LIG    1       -1.790  -0.934   1.639  0.00  0.00    +0.330 C 
ATOM      3  N   LIG    1       -3.025  -1.710   1.449  0.00  0.00    -0.580 N 
ATOM      4  C   LIG    1       -2.954  -2.947   0.656  0.00  0.00    +0.310 C 
ATOM      5  C   LIG    1       -2.265  -2.633  -0.676  0.00  0.00    +0.180 C 
ATOM      6  N   LIG    1       -0.972  -1.988  -0.415  0.00  0.00    -0.670 NA
ATOM      7  H   LIG    1       -0.444  -1.877  -1.268  0.00  0.00    +0.360 HD
ENDROOT
BRANCH   3   8
ATOM      8  C   LIG    1       -4.227  -1.285   2.003  0.00  0.00    +0.410 A 
ATOM      9  N   LIG    1       -4.287  -0.122   2.613  0.00  0.00    -0.300 NA
ATOM     10  N   LIG    1       -5.485   0.320   3.174  0.00  0.00    -0.170 N 
ATOM     11  N   LIG    1       -5.874   1.471   3.870  0.00  0.00    -0.050 NA
ATOM     12  N   LIG    1       -7.125   1.336   4.153  0.00  0.00    -0.030 NA
ATOM     13  N   LIG    1       -7.576   0.217   3.709  0.00  0.00    -0.290 NA
ATOM     14  C   LIG    1       -6.611  -0.454   3.096  0.00  0.00    +0.180 A 
ATOM     15  C   LIG    1       -6.547  -1.698   2.444  0.00  0.00    +0.180 A 
ATOM     16  C   LIG    1       -5.368  -2.102   1.901  0.00  0.00    +0.020 A 
ENDBRANCH   3   8
BRANCH   1  20
ATOM     17  N   LIG    1        0.270   1.288   0.672  0.00  0.00    -0.850 N 
ATOM     18  H   LIG    1       -0.541   1.819   0.712  0.00  0.00    +0.400 HD
ATOM     19  H   LIG    1        1.134   1.713   0.788  0.00  0.00    +0.410 HD
ATOM     20  C   LIG    1        0.196  -0.039   0.449  0.00  0.00    +0.520 C 
ATOM     21  O   LIG    1        1.210  -0.702   0.394  0.00  0.00    -0.520 OA
ENDBRANCH   1  20
TORSDOF 2
ENDMDL
MODEL      690
REMARK  Name = ZINC000065534795
REMARK                            x       y       z     vdW  Elec       q    Type
REMARK                         _______ _______ _______ _____ _____    ______ ____
ROOT
ATOM      1  C   LIG    1       -0.019   1.463  -0.075  0.00  0.00    +0.200 C 
ATOM      2  N   LIG    1        0.002  -0.004   0.002  0.00  0.00    -0.520 NA
ENDROOT
BRANCH   2   3
ATOM      3  C   LIG    1       -1.362  -0.549   0.037  0.00  0.00    +0.190 C 
ATOM      4  C   LIG    1       -1.284  -2.078   0.222  0.00  0.00    -0.290 C 
ATOM      5  S   LIG    1       -2.721  -2.681  -0.753  0.00  0.00    +2.390 S 
ATOM      6  C   LIG    1       -2.561  -1.386  -2.047  0.00  0.00    -0.320 C 
ATOM      7  O   LIG    1       -3.921  -2.482  -0.017  0.00  0.00    -0.920 OA
ATOM      8  O   LIG    1       -2.427  -3.956  -1.308  0.00  0.00    -0.930 OA
ATOM      9  C   LIG    1       -2.083  -0.160  -1.248  0.00  0.00    +0.210 C 
BRANCH   9  10
ATOM     10  O   LIG    1       -3.215   0.644  -0.911  0.00  0.00    -0.560 OA
ATOM     11  H   LIG    1       -3.694   0.989  -1.677  0.00  0.00    +0.390 HD
ENDBRANCH   9  10
ENDBRANCH   2   3
BRANCH   2  12
ATOM     12  C   LIG    1        0.781  -0.459   1.161  0.00  0.00    +0.310 C 
BRANCH  12  13
ATOM     13  C   LIG    1        2.229  -0.089   0.970  0.00  0.00    +0.210 A 
ATOM     14  N   LIG    1        3.111  -0.786   0.308  0.00  0.00    -0.470 NA
ATOM     15  C   LIG    1        4.294  -0.155   0.346  0.00  0.00    +0.140 A 
ATOM     16  C   LIG    1        4.139   0.977   1.059  0.00  0.00    +0.130 A 
ATOM     17  N   LIG    1        2.828   1.022   1.451  0.00  0.00    -0.570 N 
ATOM     18  H   LIG    1        2.409   1.719   1.980  0.00  0.00    +0.420 HD
ENDBRANCH  12  13
ENDBRANCH   2  12
TORSDOF 4
ENDMDL
MODEL      691
REMARK  Name = ZINC000019320721
REMARK                            x       y       z     vdW  Elec       q    Type
REMARK                         _______ _______ _______ _____ _____    ______ ____
ROOT
ATOM      1  O   LIG    1        0.073  -0.050   2.417  0.00  0.00    -0.320 OA
ENDROOT
BRANCH   1   2
ATOM      2  C   LIG    1        0.742  -0.511   1.242  0.00  0.00    +0.170 C 
BRANCH   2   3
ATOM      3  C   LIG    1        0.002  -0.004   0.002  0.00  0.00    +0.310 C 
BRANCH   3   4
ATOM      4  N   LIG    1       -0.018   1.465   0.010  0.00  0.00    -0.810 NA
ATOM      5  H   LIG    1       -0.556   1.823  -0.764  0.00  0.00    +0.350 HD
ATOM      6  H   LIG    1        0.919   1.839   0.003  0.00  0.00    +0.340 HD
ENDBRANCH   3   4
BRANCH   3   7
ATOM      7  N   LIG    1       -1.376  -0.512   0.012  0.00  0.00    -0.820 NA
ATOM      8  H   LIG    1       -1.389  -1.521   0.007  0.00  0.00    +0.340 HD
ATOM      9  H   LIG    1       -1.905  -0.140  -0.762  0.00  0.00    +0.350 HD
ENDBRANCH   3   7
BRANCH   3  10
ATOM     10  C   LIG    1        0.718  -0.497  -1.257  0.00  0.00    +0.100 C 
BRANCH  10  11
ATOM     11  O   LIG    1        0.027  -0.024  -2.414  0.00  0.00    -0.570 OA
ATOM     12  H   LIG    1        0.426  -0.299  -3.251  0.00  0.00    +0.390 HD
ENDBRANCH  10  11
ENDBRANCH   3  10
ENDBRANCH   2   3
ENDBRANCH   1   2
BRANCH   1  13
ATOM     13  C   LIG    1        0.687  -0.470   3.638  0.00  0.00    +0.420 C 
BRANCH  13  14
ATOM     14  O   LIG    1        1.874   0.294   3.861  0.00  0.00    -0.400 OA
BRANCH  14  15
ATOM     15  C   LIG    1        1.629   1.632   4.299  0.00  0.00    +0.460 C 
BRANCH  15  16
ATOM     16  N   LIG    1        0.886   1.605   5.565  0.00  0.00    -0.840 NA
ATOM     17  H   LIG    1        0.644   2.539   5.863  0.00  0.00    +0.360 HD
ATOM     18  H   LIG    1        1.407   1.121   6.281  0.00  0.00    +0.350 HD
ENDBRANCH  15  16
BRANCH  15  19
ATOM     19  N   LIG    1        0.842   2.343   3.283  0.00  0.00    -0.810 NA
ATOM     20  H   LIG    1        1.332   2.375   2.402  0.00  0.00    +0.350 HD
ATOM     21  H   LIG    1        0.601   3.271   3.597  0.00  0.00    +0.350 HD
ENDBRANCH  15  19
BRANCH  15  22
ATOM     22  C   LIG    1        2.963   2.352   4.506  0.00  0.00    +0.120 C 
BRANCH  22  23
ATOM     23  O   LIG    1        2.719   3.691   4.943  0.00  0.00    -0.570 OA
ATOM     24  H   LIG    1        3.522   4.208   5.095  0.00  0.00    +0.390 HD
ENDBRANCH  22  23
ENDBRANCH  15  22
ENDBRANCH  14  15
ENDBRANCH  13  14
ENDBRANCH   1  13
TORSDOF 13
ENDMDL
MODEL      692
REMARK  Name = ZINC000004337188
REMARK                            x       y       z     vdW  Elec       q    Type
REMARK                         _______ _______ _______ _____ _____    ______ ____
ROOT
ATOM      1  C   LIG    1       -0.066   1.500  -0.053  0.00  0.00    +0.160 C 
ATOM      2  C   LIG    1        0.002  -0.004   0.002  0.00  0.00    +0.370 C 
ATOM      3  C   LIG    1       -0.123  -0.744  -1.159  0.00  0.00    -0.440 C 
ATOM      4  C   LIG    1       -0.218  -2.215  -1.127  0.00  0.00    +0.580 C 
ATOM      5  N   LIG    1       -0.339  -2.871  -2.299  0.00  0.00    -0.560 N 
ATOM      6  C   LIG    1       -0.371  -2.217  -3.469  0.00  0.00    +0.710 C 
ATOM      7  N   LIG    1       -0.290  -0.883  -3.572  0.00  0.00    -0.560 N 
ATOM      8  C   LIG    1       -0.337  -0.264  -4.899  0.00  0.00    +0.340 C 
ATOM      9  O   LIG    1       -0.481  -2.868  -4.489  0.00  0.00    -0.540 OA
ATOM     10  C   LIG    1       -0.436  -4.333  -2.294  0.00  0.00    +0.330 C 
ATOM     11  O   LIG    1       -0.190  -2.820  -0.072  0.00  0.00    -0.530 OA
ATOM     12  C   LIG    1       -0.172  -0.097  -2.482  0.00  0.00    +0.590 C 
ATOM     13  O   LIG    1       -0.100   1.113  -2.589  0.00  0.00    -0.510 OA
ENDROOT
BRANCH   2  14
ATOM     14  N   LIG    1        0.185  -0.628   1.183  0.00  0.00    -0.650 N 
ATOM     15  H   LIG    1        0.312  -1.589   1.209  0.00  0.00    +0.430 HD
BRANCH  14  16
ATOM     16  C   LIG    1        0.190   0.145   2.427  0.00  0.00    +0.280 C 
BRANCH  16  17
ATOM     17  C   LIG    1        0.414  -0.796   3.612  0.00  0.00    +0.190 C 
BRANCH  17  18
ATOM     18  O   LIG    1        1.718  -1.374   3.521  0.00  0.00    -0.570 OA
ATOM     19  H   LIG    1        1.929  -1.984   4.241  0.00  0.00    +0.390 HD
ENDBRANCH  17  18
ENDBRANCH  16  17
ENDBRANCH  14  16
ENDBRANCH   2  14
TORSDOF 4
ENDMDL
MODEL      693
REMARK  Name = ZINC000075158321
REMARK                            x       y       z     vdW  Elec       q    Type
REMARK                         _______ _______ _______ _____ _____    ______ ____
ROOT
ATOM      1  N   LIG    1       -0.776  -2.556  -1.119  0.00  0.00    -0.740 N 
ATOM      2  H   LIG    1       -1.495  -1.912  -1.217  0.00  0.00    +0.400 HD
ATOM      3  C   LIG    1       -1.055  -3.873  -1.054  0.00  0.00    +0.710 C 
ATOM      4  N   LIG    1       -2.333  -4.295  -1.126  0.00  0.00    -0.740 N 
ATOM      5  H   LIG    1       -3.052  -3.651  -1.224  0.00  0.00    +0.400 HD
ATOM      6  O   LIG    1       -0.154  -4.680  -0.932  0.00  0.00    -0.590 OA
ENDROOT
BRANCH   4   7
ATOM      7  C   LIG    1       -2.636  -5.727  -1.056  0.00  0.00    +0.270 C 
ATOM      8  C   LIG    1       -2.849  -6.176   0.407  0.00  0.00    +0.270 C 
ATOM      9  N   LIG    1       -4.293  -6.066   0.644  0.00  0.00    -0.730 N 
ATOM     10  H   LIG    1       -4.705  -6.050   1.522  0.00  0.00    +0.410 HD
ATOM     11  C   LIG    1       -4.974  -5.989  -0.513  0.00  0.00    +0.520 C 
ATOM     12  O   LIG    1       -6.179  -5.897  -0.606  0.00  0.00    -0.530 OA
ATOM     13  C   LIG    1       -4.015  -6.032  -1.685  0.00  0.00    +0.070 C 
ENDBRANCH   4   7
BRANCH   1  14
ATOM     14  C   LIG    1        0.613  -2.097  -1.041  0.00  0.00    +0.300 C 
BRANCH  14  15
ATOM     15  C   LIG    1        0.652  -0.570  -1.138  0.00  0.00    +0.180 C 
BRANCH  15  17
ATOM     16  C   LIG    1       -0.017   1.425   0.010  0.00  0.00    +0.200 C 
ATOM     17  O   LIG    1        0.002  -0.004   0.002  0.00  0.00    -0.390 OA
ENDBRANCH  15  17
ENDBRANCH  14  15
ENDBRANCH   1  14
TORSDOF 4
ENDMDL
MODEL      694
REMARK  Name = ZINC000075158322
REMARK                            x       y       z     vdW  Elec       q    Type
REMARK                         _______ _______ _______ _____ _____    ______ ____
ROOT
ATOM      1  N   LIG    1       -0.776  -2.556  -1.119  0.00  0.00    -0.740 N 
ATOM      2  H   LIG    1       -1.495  -1.912  -1.217  0.00  0.00    +0.400 HD
ATOM      3  C   LIG    1       -1.055  -3.873  -1.054  0.00  0.00    +0.710 C 
ATOM      4  N   LIG    1       -2.333  -4.295  -1.126  0.00  0.00    -0.740 N 
ATOM      5  H   LIG    1       -3.052  -3.651  -1.224  0.00  0.00    +0.400 HD
ATOM      6  O   LIG    1       -0.154  -4.680  -0.932  0.00  0.00    -0.590 OA
ENDROOT
BRANCH   4   7
ATOM      7  C   LIG    1       -2.636  -5.727  -1.056  0.00  0.00    +0.280 C 
ATOM      8  C   LIG    1       -2.627  -6.364  -2.463  0.00  0.00    +0.260 C 
ATOM      9  N   LIG    1       -3.698  -7.366  -2.447  0.00  0.00    -0.730 N 
ATOM     10  H   LIG    1       -3.786  -8.084  -3.093  0.00  0.00    +0.410 HD
ATOM     11  C   LIG    1       -4.543  -7.161  -1.421  0.00  0.00    +0.520 C 
ATOM     12  O   LIG    1       -5.519  -7.839  -1.179  0.00  0.00    -0.530 OA
ATOM     13  C   LIG    1       -4.099  -5.962  -0.612  0.00  0.00    +0.060 C 
ENDBRANCH   4   7
BRANCH   1  14
ATOM     14  C   LIG    1        0.613  -2.097  -1.041  0.00  0.00    +0.300 C 
BRANCH  14  15
ATOM     15  C   LIG    1        0.652  -0.570  -1.138  0.00  0.00    +0.180 C 
BRANCH  15  17
ATOM     16  C   LIG    1       -0.017   1.425   0.010  0.00  0.00    +0.200 C 
ATOM     17  O   LIG    1        0.002  -0.004   0.002  0.00  0.00    -0.390 OA
ENDBRANCH  15  17
ENDBRANCH  14  15
ENDBRANCH   1  14
TORSDOF 4
ENDMDL
MODEL      695
REMARK  Name = ZINC000077010925
REMARK                            x       y       z     vdW  Elec       q    Type
REMARK                         _______ _______ _______ _____ _____    ______ ____
ROOT
ATOM      1  O   LIG    1        0.002  -0.004   0.002  0.00  0.00    -0.510 OA
ATOM      2  C   LIG    1       -0.014   1.209   0.009  0.00  0.00    +0.520 C 
ATOM      3  N   LIG    1       -1.191   1.867   0.018  0.00  0.00    -0.620 N 
ATOM      4  C   LIG    1       -1.236   3.337   0.020  0.00  0.00    +0.250 C 
ATOM      5  C   LIG    1       -2.182   3.793  -1.096  0.00  0.00    +0.220 C 
ATOM      6  O   LIG    1       -3.435   3.120  -0.956  0.00  0.00    -0.380 OA
ATOM      7  C   LIG    1       -3.354   1.699  -1.091  0.00  0.00    +0.220 C 
ATOM      8  C   LIG    1       -2.468   1.135   0.020  0.00  0.00    +0.260 C 
ENDROOT
BRANCH   2   9
ATOM      9  C   LIG    1        1.280   1.980   0.001  0.00  0.00    +0.110 C 
ATOM     10  C   LIG    1        1.579   2.462  -1.421  0.00  0.00    +0.240 C 
ATOM     11  O   LIG    1        2.844   3.128  -1.438  0.00  0.00    -0.380 OA
ATOM     12  C   LIG    1        3.932   2.309  -1.000  0.00  0.00    +0.220 C 
ATOM     13  C   LIG    1        3.657   1.825   0.426  0.00  0.00    +0.160 C 
ATOM     14  N   LIG    1        2.373   1.109   0.457  0.00  0.00    -0.670 NA
ATOM     15  H   LIG    1        2.185   0.744   1.379  0.00  0.00    +0.350 HD
ENDBRANCH   2   9
TORSDOF 1
ENDMDL
MODEL      696
REMARK  Name = ZINC000087616857
REMARK                            x       y       z     vdW  Elec       q    Type
REMARK                         _______ _______ _______ _____ _____    ______ ____
ROOT
ATOM      1  C   LIG    1        1.322  -2.665  -2.285  0.00  0.00    +0.083 C 
ATOM      2  C   LIG    1        1.456  -4.190  -2.229  0.00  0.00    +0.185 C 
ATOM      3  S   LIG    1        2.381  -4.747  -3.692  0.00  0.00    -0.028 S 
ATOM      4  C   LIG    1        1.433  -3.952  -5.026  0.00  0.00    +0.181 C 
ATOM      5  C   LIG    1        1.302  -2.459  -4.712  0.00  0.00    +0.104 C 
ATOM      6  O   LIG    1        2.243  -6.156  -3.809  0.00  0.00    -0.174 OA
ATOM      7  O   LIG    1        3.681  -4.175  -3.654  0.00  0.00    -0.174 OA
ATOM      8  N   LIG    1        0.549  -2.277  -3.468  0.00  0.00    -0.310 NA
ATOM      9  H   LIG    1       -0.332  -2.767  -3.503  0.00  0.00    +0.122 HD
ENDROOT
BRANCH   1  10
ATOM     10  C   LIG    1        0.606  -2.171  -1.026  0.00  0.00    +0.116 C 
BRANCH  10  14
ATOM     11  C   LIG    1       -0.018   1.461   0.010  0.00  0.00    +0.128 C 
ATOM     12  N   LIG    1        0.002  -0.004   0.002  0.00  0.00    -0.318 N 
ATOM     13  H   LIG    1       -0.404  -0.499   0.731  0.00  0.00    +0.148 HD
ATOM     14  C   LIG    1        0.585  -0.664  -1.018  0.00  0.00    +0.214 C 
ATOM     15  O   LIG    1        1.093  -0.046  -1.929  0.00  0.00    -0.276 OA
ENDBRANCH  10  14
ENDBRANCH   1  10
TORSDOF 2
ENDMDL
MODEL      697
REMARK  Name = ZINC000100496103
REMARK                            x       y       z     vdW  Elec       q    Type
REMARK                         _______ _______ _______ _____ _____    ______ ____
ROOT
ATOM      1  C   LIG    1        0.002  -0.004   0.002  0.00  0.00    +0.530 A 
ATOM      2  C   LIG    1       -1.200  -0.732   0.004  0.00  0.00    -0.120 A 
ATOM      3  N   LIG    1       -2.506  -0.417   0.013  0.00  0.00    -0.510 NA
ATOM      4  C   LIG    1       -3.198  -1.536   0.010  0.00  0.00    +0.400 A 
ATOM      5  N   LIG    1       -2.380  -2.582  -0.001  0.00  0.00    -0.540 NA
ATOM      6  C   LIG    1       -1.130  -2.143  -0.005  0.00  0.00    +0.230 A 
ATOM      7  N   LIG    1        0.111  -2.736  -0.015  0.00  0.00    -0.420 N 
ATOM      8  C   LIG    1        1.216  -1.972  -0.017  0.00  0.00    +0.620 A 
ATOM      9  N   LIG    1        1.163  -0.665  -0.013  0.00  0.00    -0.570 NA
ENDROOT
BRANCH   1  10
ATOM     10  N   LIG    1       -0.017   1.368   0.010  0.00  0.00    -0.790 N 
ATOM     11  H   LIG    1       -0.863   1.842   0.016  0.00  0.00    +0.430 HD
ATOM     12  H   LIG    1        0.817   1.865   0.004  0.00  0.00    +0.410 HD
ENDBRANCH   1  10
BRANCH   7  13
ATOM     13  C   LIG    1        0.228  -4.197  -0.025  0.00  0.00    +0.270 C 
BRANCH  13  14
ATOM     14  C   LIG    1        0.261  -4.696  -1.470  0.00  0.00    +0.200 C 
BRANCH  14  15
ATOM     15  O   LIG    1       -0.944  -4.310  -2.135  0.00  0.00    -0.540 OA
ATOM     16  H   LIG    1       -1.747  -4.663  -1.730  0.00  0.00    +0.380 HD
ENDBRANCH  14  15
BRANCH  14  17
ATOM     17  C   LIG    1        0.383  -6.221  -1.480  0.00  0.00    +0.170 C 
BRANCH  17  18
ATOM     18  O   LIG    1        0.531  -6.679  -2.826  0.00  0.00    -0.560 OA
ATOM     19  H   LIG    1        0.614  -7.639  -2.908  0.00  0.00    +0.380 HD
ENDBRANCH  17  18
ENDBRANCH  14  17
ENDBRANCH  13  14
ENDBRANCH   7  13
TORSDOF 6
ENDMDL
MODEL      698
REMARK  Name = ZINC000087616855
REMARK                            x       y       z     vdW  Elec       q    Type
REMARK                         _______ _______ _______ _____ _____    ______ ____
ROOT
ATOM      1  C   LIG    1        1.322  -2.665  -2.285  0.00  0.00    +0.083 C 
ATOM      2  C   LIG    1        1.229  -4.192  -2.358  0.00  0.00    +0.185 C 
ATOM      3  S   LIG    1        2.013  -4.750  -3.900  0.00  0.00    -0.028 S 
ATOM      4  C   LIG    1        3.631  -3.929  -3.784  0.00  0.00    +0.181 C 
ATOM      5  C   LIG    1        3.406  -2.437  -3.523  0.00  0.00    +0.104 C 
ATOM      6  O   LIG    1        1.298  -4.202  -4.999  0.00  0.00    -0.174 OA
ATOM      7  O   LIG    1        2.209  -6.156  -3.829  0.00  0.00    -0.174 OA
ATOM      8  N   LIG    1        2.727  -2.254  -2.238  0.00  0.00    -0.310 NA
ATOM      9  H   LIG    1        2.813  -1.302  -1.915  0.00  0.00    +0.122 HD
ENDROOT
BRANCH   1  10
ATOM     10  C   LIG    1        0.606  -2.171  -1.026  0.00  0.00    +0.116 C 
BRANCH  10  14
ATOM     11  C   LIG    1       -0.018   1.461   0.010  0.00  0.00    +0.128 C 
ATOM     12  N   LIG    1        0.002  -0.004   0.002  0.00  0.00    -0.318 N 
ATOM     13  H   LIG    1       -0.404  -0.499   0.731  0.00  0.00    +0.148 HD
ATOM     14  C   LIG    1        0.585  -0.664  -1.018  0.00  0.00    +0.214 C 
ATOM     15  O   LIG    1        1.093  -0.046  -1.929  0.00  0.00    -0.276 OA
ENDBRANCH  10  14
ENDBRANCH   1  10
TORSDOF 2
ENDMDL
MODEL      699
REMARK  Name = ZINC000002168275
REMARK                            x       y       z     vdW  Elec       q    Type
REMARK                         _______ _______ _______ _____ _____    ______ ____
ROOT
ATOM      1  C   LIG    1        0.710  -1.985  -1.215  0.00  0.00    +0.259 C 
ATOM      2  N   LIG    1        1.293  -2.645  -2.235  0.00  0.00    -0.302 N 
ATOM      3  H   LIG    1        1.700  -2.151  -2.964  0.00  0.00    +0.149 HD
ATOM      4  O   LIG    1        0.202  -2.603  -0.304  0.00  0.00    -0.270 OA
ENDROOT
BRANCH   1   5
ATOM      5  C   LIG    1        0.690  -0.478  -1.207  0.00  0.00    +0.226 C 
BRANCH   5   7
ATOM      6  C   LIG    1       -0.018   1.465   0.010  0.00  0.00    +0.189 C 
ATOM      7  N   LIG    1        0.002  -0.004   0.002  0.00  0.00    +0.231 N 
ATOM      8  H   LIG    1       -0.945  -0.353   0.009  0.00  0.00    +0.202 HD
ATOM      9  H   LIG    1        0.490  -0.338   0.820  0.00  0.00    +0.202 HD
ENDBRANCH   5   7
ENDBRANCH   1   5
BRANCH   2  10
ATOM     10  C   LIG    1        1.313  -4.110  -2.243  0.00  0.00    +0.200 C 
BRANCH  10  11
ATOM     11  C   LIG    1        2.018  -4.596  -3.483  0.00  0.00    +0.231 C 
ATOM     12  N   LIG    1        2.157  -5.918  -3.704  0.00  0.00    -0.303 N 
ATOM     13  H   LIG    1        1.803  -6.557  -3.066  0.00  0.00    +0.149 HD
ATOM     14  O   LIG    1        2.461  -3.797  -4.281  0.00  0.00    -0.274 OA
BRANCH  12  15
ATOM     15  C   LIG    1        2.843  -6.391  -4.910  0.00  0.00    +0.229 C 
BRANCH  15  16
ATOM     16  C   LIG    1        2.864  -7.897  -4.918  0.00  0.00    +0.373 C 
ATOM     17  O   LIG    1        3.391  -8.495  -5.841  0.00  0.00    -0.245 OA
ATOM     18  O   LIG    1        2.353  -8.519  -4.002  0.00  0.00    -0.245 OA
ENDBRANCH  15  16
ENDBRANCH  12  15
ENDBRANCH  10  11
ENDBRANCH   2  10
TORSDOF 6
ENDMDL
MODEL      700
REMARK  Name = ZINC000095933637
REMARK                            x       y       z     vdW  Elec       q    Type
REMARK                         _______ _______ _______ _____ _____    ______ ____
ROOT
ATOM      1  C   LIG    1       -2.108   1.549   1.768  0.00  0.00    +0.080 C 
ENDROOT
BRANCH   1   2
ATOM      2  C   LIG    1       -0.657   2.004   1.603  0.00  0.00    -0.230 C 
BRANCH   2   4
ATOM      3  O   LIG    1        0.002  -0.004   0.002  0.00  0.00    -0.840 OA
ATOM      4  S   LIG    1       -0.017   1.417   0.010  0.00  0.00    +1.250 S 
BRANCH   4   5
ATOM      5  C   LIG    1        1.685   2.045  -0.003  0.00  0.00    -0.250 C 
BRANCH   5   6
ATOM      6  C   LIG    1        2.373   1.627  -1.304  0.00  0.00    +0.210 C 
BRANCH   6   7
ATOM      7  O   LIG    1        3.713   2.121  -1.314  0.00  0.00    -0.570 OA
ATOM      8  H   LIG    1        4.211   1.893  -2.112  0.00  0.00    +0.380 HD
ENDBRANCH   6   7
ENDBRANCH   5   6
ENDBRANCH   4   5
ENDBRANCH   2   4
ENDBRANCH   1   2
BRANCH   1   9
ATOM      9  C   LIG    1       -2.647   2.044   3.112  0.00  0.00    -0.230 C 
BRANCH   9  10
ATOM     10  S   LIG    1       -4.368   1.505   3.308  0.00  0.00    +1.250 S 
ATOM     11  O   LIG    1       -5.172   2.108   2.304  0.00  0.00    -0.840 OA
BRANCH  10  12
ATOM     12  C   LIG    1       -4.823   2.176   4.931  0.00  0.00    -0.250 C 
BRANCH  12  13
ATOM     13  C   LIG    1       -6.272   1.801   5.250  0.00  0.00    +0.210 C 
BRANCH  13  14
ATOM     14  O   LIG    1       -6.631   2.330   6.528  0.00  0.00    -0.570 OA
ATOM     15  H   LIG    1       -7.538   2.131   6.796  0.00  0.00    +0.380 HD
ENDBRANCH  13  14
ENDBRANCH  12  13
ENDBRANCH  10  12
ENDBRANCH   9  10
ENDBRANCH   1   9
TORSDOF 10
ENDMDL
MODEL      701
REMARK  Name = ZINC000019912527
REMARK                            x       y       z     vdW  Elec       q    Type
REMARK                         _______ _______ _______ _____ _____    ______ ____
ROOT
ATOM      1  N   LIG    1       -2.490  -0.261   0.016  0.00  0.00    -0.313 N 
ATOM      2  C   LIG    1       -2.675   1.189  -0.143  0.00  0.00    +0.122 C 
ATOM      3  C   LIG    1       -3.707   1.429  -1.251  0.00  0.00    +0.103 C 
ATOM      4  N   LIG    1       -4.931   0.676  -0.947  0.00  0.00    -0.297 NA
ATOM      5  C   LIG    1       -4.676  -0.771  -0.933  0.00  0.00    +0.103 C 
ATOM      6  C   LIG    1       -3.685  -1.101   0.182  0.00  0.00    +0.122 C 
ENDROOT
BRANCH   1   9
ATOM      7  C   LIG    1       -1.094  -0.496   2.495  0.00  0.00    +0.071 C 
ATOM      8  C   LIG    1       -0.509  -0.954   1.184  0.00  0.00    +0.099 A 
ATOM      9  C   LIG    1       -1.237  -0.815   0.006  0.00  0.00    +0.126 A 
ATOM     10  N   LIG    1       -0.671  -1.243  -1.161  0.00  0.00    -0.292 N 
ATOM     11  H   LIG    1       -1.149  -1.161  -2.002  0.00  0.00    +0.172 HD
ATOM     12  C   LIG    1        0.565  -1.781  -1.123  0.00  0.00    +0.365 A 
ATOM     13  N   LIG    1        1.217  -1.890   0.040  0.00  0.00    -0.090 NA
ATOM     14  O   LIG    1        1.091  -2.170  -2.152  0.00  0.00    -0.243 OA
ATOM     15  N   LIG    1        0.699  -1.486   1.145  0.00  0.00    -0.146 NA
ENDBRANCH   1   9
BRANCH   4  16
ATOM     16  C   LIG    1       -6.004   1.012  -1.892  0.00  0.00    +0.112 C 
BRANCH  16  17
ATOM     17  C   LIG    1       -7.322   0.408  -1.403  0.00  0.00    +0.171 C 
BRANCH  17  18
ATOM     18  O   LIG    1       -7.698   1.022  -0.169  0.00  0.00    -0.394 OA
ATOM     19  H   LIG    1       -8.527   0.687   0.200  0.00  0.00    +0.209 HD
ENDBRANCH  17  18
ENDBRANCH  16  17
ENDBRANCH   4  16
TORSDOF 4
ENDMDL
MODEL      702
REMARK  Name = ZINC000100496105
REMARK                            x       y       z     vdW  Elec       q    Type
REMARK                         _______ _______ _______ _____ _____    ______ ____
ROOT
ATOM      1  C   LIG    1        0.002  -0.004   0.002  0.00  0.00    +0.540 A 
ATOM      2  C   LIG    1       -1.200  -0.732   0.004  0.00  0.00    -0.120 A 
ATOM      3  N   LIG    1       -2.506  -0.417   0.013  0.00  0.00    -0.510 NA
ATOM      4  C   LIG    1       -3.198  -1.536   0.010  0.00  0.00    +0.400 A 
ATOM      5  N   LIG    1       -2.380  -2.582  -0.001  0.00  0.00    -0.540 NA
ATOM      6  C   LIG    1       -1.130  -2.143  -0.005  0.00  0.00    +0.220 A 
ATOM      7  N   LIG    1        0.111  -2.736  -0.015  0.00  0.00    -0.420 N 
ATOM      8  C   LIG    1        1.216  -1.972  -0.017  0.00  0.00    +0.640 A 
ATOM      9  N   LIG    1        1.163  -0.665  -0.013  0.00  0.00    -0.570 NA
ENDROOT
BRANCH   1  10
ATOM     10  N   LIG    1       -0.017   1.368   0.010  0.00  0.00    -0.790 N 
ATOM     11  H   LIG    1       -0.863   1.842   0.016  0.00  0.00    +0.430 HD
ATOM     12  H   LIG    1        0.817   1.865   0.004  0.00  0.00    +0.410 HD
ENDBRANCH   1  10
BRANCH   7  13
ATOM     13  C   LIG    1        0.228  -4.197  -0.025  0.00  0.00    +0.290 C 
BRANCH  13  14
ATOM     14  C   LIG    1        0.261  -4.696  -1.470  0.00  0.00    +0.210 C 
BRANCH  14  15
ATOM     15  O   LIG    1        1.445  -4.218  -2.112  0.00  0.00    -0.550 OA
ATOM     16  H   LIG    1        2.265  -4.509  -1.691  0.00  0.00    +0.370 HD
ENDBRANCH  14  15
BRANCH  14  17
ATOM     17  C   LIG    1        0.257  -6.226  -1.481  0.00  0.00    +0.160 C 
BRANCH  17  18
ATOM     18  O   LIG    1        0.170  -6.693  -2.829  0.00  0.00    -0.560 OA
ATOM     19  H   LIG    1        0.163  -7.656  -2.913  0.00  0.00    +0.390 HD
ENDBRANCH  17  18
ENDBRANCH  14  17
ENDBRANCH  13  14
ENDBRANCH   7  13
TORSDOF 6
ENDMDL
MODEL      703
REMARK  Name = ZINC000044845901
REMARK                            x       y       z     vdW  Elec       q    Type
REMARK                         _______ _______ _______ _____ _____    ______ ____
ROOT
ATOM      1  C   LIG    1       -2.683  -2.582   0.014  0.00  0.00    +0.160 A 
ATOM      2  C   LIG    1       -3.314  -2.881  -1.143  0.00  0.00    -0.100 A 
ATOM      3  C   LIG    1       -4.668  -3.299  -1.098  0.00  0.00    +0.500 A 
ATOM      4  N   LIG    1       -5.294  -3.390   0.084  0.00  0.00    -0.590 NA
ATOM      5  C   LIG    1       -4.662  -3.094   1.203  0.00  0.00    +0.390 A 
ATOM      6  O   LIG    1       -5.261  -3.575  -2.130  0.00  0.00    -0.570 OA
ATOM      7  N   LIG    1       -3.360  -2.695   1.192  0.00  0.00    -0.480 NA
ENDROOT
BRANCH   5   8
ATOM      8  N   LIG    1       -5.322  -3.195   2.391  0.00  0.00    +0.110 NA
ATOM      9  N   LIG    1       -6.554  -3.577   2.415  0.00  0.00    +0.120 N 
BRANCH   9  10
ATOM     10  O   LIG    1       -7.239  -3.682   3.650  0.00  0.00    -0.240 OA
ATOM     11  H   LIG    1       -8.157  -3.975   3.567  0.00  0.00    +0.440 HD
ENDBRANCH   9  10
BRANCH   9  12
ATOM     12  O   LIG    1       -7.221  -3.891   1.206  0.00  0.00    -0.250 OA
ATOM     13  H   LIG    1       -8.140  -4.167   1.324  0.00  0.00    +0.410 HD
ENDBRANCH   9  12
ENDBRANCH   5   8
BRANCH   1  14
ATOM     14  C   LIG    1       -1.244  -2.135   0.003  0.00  0.00    +0.200 C 
BRANCH  14  15
ATOM     15  C   LIG    1       -1.185  -0.630   0.010  0.00  0.00    +0.470 C 
ATOM     16  O   LIG    1       -2.208   0.015   0.023  0.00  0.00    -0.500 OA
BRANCH  15  18
ATOM     17  C   LIG    1       -0.018   1.448   0.010  0.00  0.00    +0.260 C 
ATOM     18  O   LIG    1        0.002  -0.004   0.002  0.00  0.00    -0.360 OA
ENDBRANCH  15  18
ENDBRANCH  14  15
ENDBRANCH   1  14
TORSDOF 6
ENDMDL
MODEL      704
REMARK  Name = ZINC000034924895
REMARK                            x       y       z     vdW  Elec       q    Type
REMARK                         _______ _______ _______ _____ _____    ______ ____
ROOT
ATOM      1  C   LIG    1       -2.461  -4.338  -1.133  0.00  0.00    +0.313 A 
ATOM      2  N   LIG    1       -2.881  -5.585  -1.079  0.00  0.00    -0.187 NA
ATOM      3  C   LIG    1       -4.216  -5.522  -1.189  0.00  0.00    +0.186 A 
ATOM      4  N   LIG    1       -4.542  -4.268  -1.303  0.00  0.00    -0.059 NA
ATOM      5  O   LIG    1       -3.552  -3.569  -1.268  0.00  0.00    -0.328 OA
ENDROOT
BRANCH   1   8
ATOM      6  N   LIG    1       -0.776  -2.556  -1.119  0.00  0.00    -0.305 N 
ATOM      7  H   LIG    1       -1.495  -1.912  -1.217  0.00  0.00    +0.149 HD
ATOM      8  C   LIG    1       -1.055  -3.873  -1.054  0.00  0.00    +0.302 C 
ATOM      9  O   LIG    1       -0.154  -4.679  -0.932  0.00  0.00    -0.265 OA
BRANCH   6  10
ATOM     10  C   LIG    1        0.613  -2.097  -1.041  0.00  0.00    +0.132 C 
BRANCH  10  11
ATOM     11  C   LIG    1        0.652  -0.570  -1.138  0.00  0.00    +0.178 C 
BRANCH  11  13
ATOM     12  C   LIG    1       -0.017   1.425   0.010  0.00  0.00    +0.194 C 
ATOM     13  O   LIG    1        0.002  -0.004   0.002  0.00  0.00    -0.381 OA
ENDBRANCH  11  13
ENDBRANCH  10  11
ENDBRANCH   6  10
ENDBRANCH   1   8
BRANCH   3  14
ATOM     14  C   LIG    1       -5.166  -6.692  -1.181  0.00  0.00    +0.158 C 
BRANCH  14  15
ATOM     15  N   LIG    1       -5.583  -6.974   0.198  0.00  0.00    -0.324 NA
ATOM     16  H   LIG    1       -6.221  -7.755   0.230  0.00  0.00    +0.119 HD
ATOM     17  H   LIG    1       -5.991  -6.157   0.627  0.00  0.00    +0.119 HD
ENDBRANCH  14  15
ENDBRANCH   3  14
TORSDOF 6
ENDMDL
MODEL      705
REMARK  Name = ZINC000257355275
REMARK                            x       y       z     vdW  Elec       q    Type
REMARK                         _______ _______ _______ _____ _____    ______ ____
ROOT
ATOM      1  C   LIG    1       -2.571  -2.688   0.012  0.00  0.00    +0.200 C 
ATOM      2  O   LIG    1       -3.240  -2.228   1.188  0.00  0.00    -0.390 OA
ATOM      3  C   LIG    1       -4.603  -2.646   1.286  0.00  0.00    +0.300 C 
ATOM      4  C   LIG    1       -4.664  -4.175   1.329  0.00  0.00    +0.130 C 
ATOM      5  C   LIG    1       -3.989  -4.742   0.076  0.00  0.00    +0.160 C 
ATOM      6  C   LIG    1       -2.551  -4.219   0.004  0.00  0.00    +0.170 C 
ENDROOT
BRANCH   5   7
ATOM      7  O   LIG    1       -4.709  -4.324  -1.085  0.00  0.00    -0.550 OA
ATOM      8  H   LIG    1       -5.631  -4.616  -1.102  0.00  0.00    +0.390 HD
ENDBRANCH   5   7
BRANCH   4   9
ATOM      9  O   LIG    1       -3.985  -4.647   2.494  0.00  0.00    -0.530 OA
ATOM     10  H   LIG    1       -4.358  -4.324   3.325  0.00  0.00    +0.390 HD
ENDBRANCH   4   9
BRANCH   3  11
ATOM     11  O   LIG    1       -5.182  -2.112   2.478  0.00  0.00    -0.540 OA
ATOM     12  H   LIG    1       -5.176  -1.146   2.519  0.00  0.00    +0.390 HD
ENDBRANCH   3  11
BRANCH   6  13
ATOM     13  O   LIG    1       -1.813  -4.693   1.133  0.00  0.00    -0.520 OA
ATOM     14  H   LIG    1       -1.764  -5.657   1.193  0.00  0.00    +0.380 HD
ENDBRANCH   6  13
BRANCH   1  15
ATOM     15  C   LIG    1       -1.136  -2.159   0.001  0.00  0.00    +0.300 C 
BRANCH  15  18
ATOM     16  C   LIG    1       -0.018   1.503   0.010  0.00  0.00    +0.100 C 
ATOM     17  C   LIG    1        0.002  -0.004   0.002  0.00  0.00    +0.510 C 
ATOM     18  N   LIG    1       -1.156  -0.694   0.009  0.00  0.00    -0.730 N 
ATOM     19  H   LIG    1       -2.002  -0.220   0.020  0.00  0.00    +0.400 HD
ATOM     20  O   LIG    1        1.060  -0.596  -0.011  0.00  0.00    -0.550 OA
ENDBRANCH  15  18
ENDBRANCH   1  15
TORSDOF 6
ENDMDL
MODEL      706
REMARK  Name = ZINC000003340654
REMARK                            x       y       z     vdW  Elec       q    Type
REMARK                         _______ _______ _______ _____ _____    ______ ____
ROOT
ATOM      1  N   LIG    1        2.212  -4.231  -1.541  0.00  0.00    -0.500 N 
ATOM      2  H   LIG    1        2.288  -5.174  -1.757  0.00  0.00    +0.450 HD
ENDROOT
BRANCH   1   3
ATOM      3  C   LIG    1        1.505  -3.841  -0.462  0.00  0.00    +0.560 C 
ATOM      4  S   LIG    1        0.739  -5.010   0.527  0.00  0.00    -0.570 S 
BRANCH   3   5
ATOM      5  N   LIG    1        1.401  -2.532  -0.162  0.00  0.00    -0.670 N 
ATOM      6  H   LIG    1        1.835  -1.870  -0.723  0.00  0.00    +0.400 HD
BRANCH   5   7
ATOM      7  C   LIG    1        0.633  -2.108   1.011  0.00  0.00    +0.330 C 
BRANCH   7   8
ATOM      8  C   LIG    1        0.673  -0.582   1.123  0.00  0.00    +0.180 C 
BRANCH   8  10
ATOM      9  C   LIG    1       -0.017   1.425   0.010  0.00  0.00    +0.210 C 
ATOM     10  O   LIG    1        0.002  -0.004   0.002  0.00  0.00    -0.390 OA
ENDBRANCH   8  10
ENDBRANCH   7   8
ENDBRANCH   5   7
ENDBRANCH   3   5
ENDBRANCH   1   3
BRANCH   1  11
ATOM     11  N   LIG    1        2.839  -3.275  -2.351  0.00  0.00    -0.500 N 
ATOM     12  H   LIG    1        2.764  -2.333  -2.135  0.00  0.00    +0.450 HD
BRANCH  11  13
ATOM     13  C   LIG    1        3.546  -3.665  -3.430  0.00  0.00    +0.570 C 
ATOM     14  S   LIG    1        4.312  -2.497  -4.420  0.00  0.00    -0.570 S 
BRANCH  13  15
ATOM     15  N   LIG    1        3.651  -4.975  -3.730  0.00  0.00    -0.790 N 
ATOM     16  H   LIG    1        4.160  -5.256  -4.507  0.00  0.00    +0.440 HD
ATOM     17  H   LIG    1        3.217  -5.637  -3.170  0.00  0.00    +0.390 HD
ENDBRANCH  13  15
ENDBRANCH  11  13
ENDBRANCH   1  11
TORSDOF 8
ENDMDL
MODEL      707
REMARK  Name = ZINC000247918603
REMARK                            x       y       z     vdW  Elec       q    Type
REMARK                         _______ _______ _______ _____ _____    ______ ____
ROOT
ATOM      1  C   LIG    1       -0.018   1.503   0.010  0.00  0.00    +0.110 C 
ATOM      2  C   LIG    1        0.002  -0.004   0.002  0.00  0.00    +0.520 C 
ATOM      3  N   LIG    1       -1.156  -0.694   0.009  0.00  0.00    -0.610 N 
ATOM      4  C   LIG    1       -2.470  -0.018   0.019  0.00  0.00    +0.290 C 
ATOM      5  C   LIG    1       -3.346  -0.593   1.132  0.00  0.00    +0.180 C 
ATOM      6  N   LIG    1       -3.375  -2.067   1.075  0.00  0.00    -0.670 NA
ATOM      7  H   LIG    1       -3.991  -2.444   1.780  0.00  0.00    +0.360 HD
ATOM      8  C   LIG    1       -2.024  -2.587   1.230  0.00  0.00    +0.140 C 
ATOM      9  C   LIG    1       -1.922  -4.108   1.349  0.00  0.00    -0.300 C 
ATOM     10  S   LIG    1       -0.247  -4.497   0.708  0.00  0.00    +2.380 S 
ATOM     11  C   LIG    1        0.203  -2.786   0.208  0.00  0.00    -0.250 C 
ATOM     12  O   LIG    1       -0.364  -5.314  -0.450  0.00  0.00    -0.930 OA
ATOM     13  O   LIG    1        0.586  -4.909   1.783  0.00  0.00    -0.930 OA
ATOM     14  C   LIG    1       -1.187  -2.156   0.002  0.00  0.00    +0.260 C 
ATOM     15  O   LIG    1        1.060  -0.596  -0.011  0.00  0.00    -0.530 OA
ENDROOT
TORSDOF 0
ENDMDL
MODEL      708
REMARK  Name = ZINC000012443953
REMARK                            x       y       z     vdW  Elec       q    Type
REMARK                         _______ _______ _______ _____ _____    ______ ____
ROOT
ATOM      1  C   LIG    1       -0.018   1.461   0.010  0.00  0.00    +0.380 C 
ATOM      2  N   LIG    1        0.002  -0.004   0.002  0.00  0.00    -0.350 N 
ATOM      3  N   LIG    1        0.009  -0.836  -1.128  0.00  0.00    -0.040 NA
ATOM      4  N   LIG    1        0.027  -2.066  -0.748  0.00  0.00    -0.160 NA
ATOM      5  C   LIG    1        0.033  -2.132   0.591  0.00  0.00    -0.150 A 
ATOM      6  C   LIG    1        0.052  -3.232   1.558  0.00  0.00    +0.590 A 
ATOM      7  O   LIG    1        0.062  -4.394   1.192  0.00  0.00    -0.480 OA
ATOM      8  N   LIG    1        0.051  -2.912   2.872  0.00  0.00    -0.530 N 
ATOM      9  C   LIG    1        0.040  -1.612   3.261  0.00  0.00    +0.650 A 
ATOM     10  N   LIG    1        0.027  -0.623   2.416  0.00  0.00    -0.520 NA
ATOM     11  C   LIG    1        0.024  -0.823   1.090  0.00  0.00    +0.300 A 
ENDROOT
BRANCH   8  12
ATOM     12  C   LIG    1        0.065  -3.974   3.881  0.00  0.00    +0.360 C 
BRANCH  12  13
ATOM     13  C   LIG    1       -1.351  -4.351   4.233  0.00  0.00    +0.500 C 
ATOM     14  N   LIG    1       -1.585  -5.314   5.146  0.00  0.00    -0.700 N 
ATOM     15  H   LIG    1       -0.842  -5.764   5.578  0.00  0.00    +0.410 HD
ATOM     16  O   LIG    1       -2.281  -3.788   3.694  0.00  0.00    -0.520 OA
BRANCH  14  17
ATOM     17  C   LIG    1       -2.962  -5.681   5.488  0.00  0.00    +0.220 C 
ATOM     18  C   LIG    1       -3.286  -7.171   5.611  0.00  0.00    +0.010 C 
ATOM     19  C   LIG    1       -3.207  -6.300   6.866  0.00  0.00    +0.030 C 
ENDBRANCH  14  17
ENDBRANCH  12  13
ENDBRANCH   8  12
TORSDOF 3
ENDMDL
MODEL      709
REMARK  Name = ZINC000252438250
REMARK                            x       y       z     vdW  Elec       q    Type
REMARK                         _______ _______ _______ _____ _____    ______ ____
ROOT
ATOM      1  C   LIG    1       -1.136  -2.159   0.001  0.00  0.00    +0.250 C 
ATOM      2  C   LIG    1       -1.146  -2.662  -1.444  0.00  0.00    +0.350 C 
ATOM      3  O   LIG    1       -2.353  -2.243  -2.085  0.00  0.00    -0.400 OA
ATOM      4  C   LIG    1       -3.542  -2.750  -1.477  0.00  0.00    +0.150 C 
ATOM      5  C   LIG    1       -3.629  -2.250  -0.033  0.00  0.00    +0.120 C 
ATOM      6  C   LIG    1       -2.374  -2.691   0.729  0.00  0.00    +0.180 C 
ENDROOT
BRANCH   1   9
ATOM      7  C   LIG    1       -0.670   1.488   1.069  0.00  0.00    +0.100 C 
ATOM      8  C   LIG    1       -0.649  -0.019   1.060  0.00  0.00    +0.520 C 
ATOM      9  N   LIG    1       -1.156  -0.694   0.009  0.00  0.00    -0.700 N 
ATOM     10  H   LIG    1       -1.533  -0.210  -0.742  0.00  0.00    +0.410 HD
ATOM     11  O   LIG    1       -0.177  -0.624   1.999  0.00  0.00    -0.550 OA
ENDBRANCH   1   9
BRANCH   2  12
ATOM     12  N   LIG    1        0.009  -2.109  -2.164  0.00  0.00    -0.800 NA
ATOM     13  H   LIG    1        0.015  -1.101  -2.118  0.00  0.00    +0.350 HD
ATOM     14  H   LIG    1        0.025  -2.427  -3.121  0.00  0.00    +0.350 HD
ENDBRANCH   2  12
BRANCH   5  15
ATOM     15  O   LIG    1       -3.716  -0.824  -0.026  0.00  0.00    -0.540 OA
ATOM     16  H   LIG    1       -4.486  -0.474  -0.495  0.00  0.00    +0.380 HD
ENDBRANCH   5  15
BRANCH   6  17
ATOM     17  O   LIG    1       -2.323  -4.119   0.781  0.00  0.00    -0.550 OA
ATOM     18  H   LIG    1       -3.082  -4.523   1.223  0.00  0.00    +0.390 HD
ENDBRANCH   6  17
BRANCH   4  19
ATOM     19  C   LIG    1       -4.763  -2.263  -2.260  0.00  0.00    +0.200 C 
BRANCH  19  20
ATOM     20  O   LIG    1       -4.742  -2.824  -3.574  0.00  0.00    -0.560 OA
ATOM     21  H   LIG    1       -5.488  -2.557  -4.128  0.00  0.00    +0.380 HD
ENDBRANCH  19  20
ENDBRANCH   4  19
TORSDOF 6
ENDMDL
MODEL      710
REMARK  Name = ZINC000247918601
REMARK                            x       y       z     vdW  Elec       q    Type
REMARK                         _______ _______ _______ _____ _____    ______ ____
ROOT
ATOM      1  C   LIG    1       -0.018   1.503   0.010  0.00  0.00    +0.110 C 
ATOM      2  C   LIG    1        0.002  -0.004   0.002  0.00  0.00    +0.510 C 
ATOM      3  N   LIG    1       -1.156  -0.694   0.009  0.00  0.00    -0.600 N 
ATOM      4  C   LIG    1       -2.445   0.014   0.019  0.00  0.00    +0.240 C 
ATOM      5  C   LIG    1       -3.313  -0.568  -1.103  0.00  0.00    +0.230 C 
ATOM      6  N   LIG    1       -3.425  -2.019  -0.915  0.00  0.00    -0.680 NA
ATOM      7  H   LIG    1       -3.855  -2.236  -0.028  0.00  0.00    +0.340 HD
ATOM      8  C   LIG    1       -2.127  -2.692  -1.049  0.00  0.00    +0.210 C 
ATOM      9  C   LIG    1       -2.337  -4.201  -0.796  0.00  0.00    -0.280 C 
ATOM     10  S   LIG    1       -2.070  -4.423   1.000  0.00  0.00    +2.390 S 
ATOM     11  C   LIG    1       -1.634  -2.683   1.379  0.00  0.00    -0.320 C 
ATOM     12  O   LIG    1       -0.935  -5.253   1.208  0.00  0.00    -0.920 OA
ATOM     13  O   LIG    1       -3.306  -4.745   1.623  0.00  0.00    -0.930 OA
ATOM     14  C   LIG    1       -1.147  -2.157   0.001  0.00  0.00    +0.240 C 
ATOM     15  O   LIG    1        1.060  -0.596  -0.011  0.00  0.00    -0.530 OA
ENDROOT
TORSDOF 0
ENDMDL
MODEL      711
REMARK  Name = ZINC000000093092
REMARK                            x       y       z     vdW  Elec       q    Type
REMARK                         _______ _______ _______ _____ _____    ______ ____
ROOT
ATOM      1  C   LIG    1       -0.018   1.503   0.010  0.00  0.00    +0.190 C 
ATOM      2  C   LIG    1        0.002  -0.004   0.002  0.00  0.00    +0.350 A 
ATOM      3  C   LIG    1       -1.156  -0.698   0.004  0.00  0.00    -0.870 A 
ATOM      4  C   LIG    1       -1.111  -2.113  -0.005  0.00  0.00    +0.600 A 
ATOM      5  N   LIG    1        0.084  -2.737  -0.014  0.00  0.00    -0.650 N 
ATOM      6  H   LIG    1        0.123  -3.706  -0.020  0.00  0.00    +0.440 HD
ATOM      7  C   LIG    1        1.224  -2.020  -0.016  0.00  0.00    +0.700 A 
ATOM      8  O   LIG    1        2.294  -2.597  -0.024  0.00  0.00    -0.520 OA
ATOM      9  O   LIG    1       -2.142  -2.761  -0.004  0.00  0.00    -0.490 OA
ATOM     10  N   LIG    1        1.194  -0.675  -0.013  0.00  0.00    -0.630 N 
ATOM     11  H   LIG    1        2.026  -0.177  -0.014  0.00  0.00    +0.440 HD
ENDROOT
BRANCH   3  12
ATOM     12  S   LIG    1       -2.703   0.146   0.016  0.00  0.00    +2.730 S 
ATOM     13  O   LIG    1       -2.403   1.532   0.106  0.00  0.00    -0.960 OA
ATOM     14  O   LIG    1       -3.524  -0.534   0.955  0.00  0.00    -0.930 OA
BRANCH  12  15
ATOM     15  N   LIG    1       -3.399  -0.086  -1.469  0.00  0.00    -1.080 NA
ATOM     16  H   LIG    1       -3.542   0.669  -2.061  0.00  0.00    +0.420 HD
BRANCH  15  17
ATOM     17  C   LIG    1       -3.800  -1.431  -1.888  0.00  0.00    +0.230 C 
ATOM     18  C   LIG    1       -5.043  -1.555  -2.771  0.00  0.00    +0.020 C 
ATOM     19  C   LIG    1       -3.654  -1.783  -3.369  0.00  0.00    +0.010 C 
ENDBRANCH  15  17
ENDBRANCH  12  15
ENDBRANCH   3  12
TORSDOF 3
ENDMDL
MODEL      712
REMARK  Name = ZINC000046258993
REMARK                            x       y       z     vdW  Elec       q    Type
REMARK                         _______ _______ _______ _____ _____    ______ ____
ROOT
ATOM      1  C   LIG    1       -0.026   1.526   0.017  0.00  0.00    +0.070 C 
ATOM      2  C   LIG    1       -0.002  -0.003   0.005  0.00  0.00    +0.200 C 
ATOM      3  C   LIG    1       -1.429  -0.543   0.157  0.00  0.00    +0.220 C 
ATOM      4  O   LIG    1       -1.379  -1.962   0.332  0.00  0.00    -0.370 OA
ATOM      5  C   LIG    1       -0.691  -2.382   1.512  0.00  0.00    +0.220 C 
ATOM      6  C   LIG    1        0.773  -1.936   1.430  0.00  0.00    +0.250 C 
ATOM      7  N   LIG    1        0.804  -0.495   1.134  0.00  0.00    -0.610 N 
ATOM      8  C   LIG    1        1.548   0.349   1.876  0.00  0.00    +0.510 C 
ATOM      9  O   LIG    1        1.494   1.544   1.672  0.00  0.00    -0.490 OA
ENDROOT
BRANCH   8  10
ATOM     10  C   LIG    1        2.446  -0.190   2.958  0.00  0.00    +0.370 C 
BRANCH  10  11
ATOM     11  N   LIG    1        3.142   0.920   3.614  0.00  0.00    -0.300 N 
ATOM     12  C   LIG    1        3.151   1.190   4.933  0.00  0.00    +0.400 A 
ATOM     13  N   LIG    1        3.888   2.262   5.092  0.00  0.00    -0.300 NA
ATOM     14  N   LIG    1        4.310   2.631   3.931  0.00  0.00    -0.070 NA
ATOM     15  N   LIG    1        3.865   1.819   3.037  0.00  0.00    -0.060 NA
ENDBRANCH  10  11
ENDBRANCH   8  10
TORSDOF 2
ENDMDL
MODEL      713
REMARK  Name = ZINC000071261228
REMARK                            x       y       z     vdW  Elec       q    Type
REMARK                         _______ _______ _______ _____ _____    ______ ____
ROOT
ATOM      1  C   LIG    1       -0.186  -0.059   2.835  0.00  0.00    +0.160 C 
ATOM      2  O   LIG    1       -0.207   1.369   2.880  0.00  0.00    -0.330 OA
ATOM      3  C   LIG    1       -1.042   1.908   3.907  0.00  0.00    +0.180 C 
ATOM      4  C   LIG    1       -0.530   1.445   5.273  0.00  0.00    +0.160 C 
ATOM      5  C   LIG    1       -0.509  -0.086   5.309  0.00  0.00    +0.160 C 
ATOM      6  C   LIG    1        0.360  -0.602   4.158  0.00  0.00    +0.140 C 
ENDROOT
BRANCH   5   7
ATOM      7  O   LIG    1        0.034  -0.528   6.555  0.00  0.00    -0.550 OA
ATOM      8  H   LIG    1        0.077  -1.490   6.647  0.00  0.00    +0.390 HD
ENDBRANCH   5   7
BRANCH   4   9
ATOM      9  O   LIG    1        0.791   1.947   5.484  0.00  0.00    -0.530 OA
ATOM     10  H   LIG    1        1.178   1.691   6.333  0.00  0.00    +0.380 HD
ENDBRANCH   4   9
BRANCH   6  11
ATOM     11  O   LIG    1        1.706  -0.156   4.339  0.00  0.00    -0.520 OA
ATOM     12  H   LIG    1        2.313  -0.446   3.645  0.00  0.00    +0.380 HD
ENDBRANCH   6  11
BRANCH   1  13
ATOM     13  S   LIG    1        0.879  -0.605   1.472  0.00  0.00    -0.210 S 
BRANCH  13  15
ATOM     14  C   LIG    1       -0.019   1.526   0.010  0.00  0.00    +0.060 C 
ATOM     15  C   LIG    1        0.002  -0.004   0.002  0.00  0.00    +0.040 C 
ATOM     16  C   LIG    1        0.718  -0.497  -1.257  0.00  0.00    +0.060 C 
ENDBRANCH  13  15
ENDBRANCH   1  13
BRANCH   3  17
ATOM     17  C   LIG    1       -1.009   3.437   3.841  0.00  0.00    +0.220 C 
BRANCH  17  18
ATOM     18  O   LIG    1       -1.593   3.873   2.612  0.00  0.00    -0.570 OA
ATOM     19  H   LIG    1       -1.606   4.834   2.502  0.00  0.00    +0.380 HD
ENDBRANCH  17  18
ENDBRANCH   3  17
TORSDOF 7
ENDMDL
MODEL      714
REMARK  Name = ZINC000004261913
REMARK                            x       y       z     vdW  Elec       q    Type
REMARK                         _______ _______ _______ _____ _____    ______ ____
ROOT
ATOM      1  C   LIG    1       -0.186  -0.059   2.835  0.00  0.00    +0.170 C 
ATOM      2  O   LIG    1       -0.207   1.369   2.880  0.00  0.00    -0.330 OA
ATOM      3  C   LIG    1       -1.042   1.908   3.907  0.00  0.00    +0.170 C 
ATOM      4  C   LIG    1       -0.530   1.445   5.273  0.00  0.00    +0.170 C 
ATOM      5  C   LIG    1       -0.509  -0.086   5.309  0.00  0.00    +0.160 C 
ATOM      6  C   LIG    1        0.360  -0.602   4.158  0.00  0.00    +0.160 C 
ENDROOT
BRANCH   5   7
ATOM      7  O   LIG    1        0.034  -0.528   6.555  0.00  0.00    -0.560 OA
ATOM      8  H   LIG    1        0.077  -1.490   6.647  0.00  0.00    +0.390 HD
ENDBRANCH   5   7
BRANCH   4   9
ATOM      9  O   LIG    1        0.791   1.947   5.484  0.00  0.00    -0.550 OA
ATOM     10  H   LIG    1        1.178   1.691   6.333  0.00  0.00    +0.390 HD
ENDBRANCH   4   9
BRANCH   6  11
ATOM     11  O   LIG    1        0.329  -2.030   4.139  0.00  0.00    -0.560 OA
ATOM     12  H   LIG    1        0.860  -2.425   3.433  0.00  0.00    +0.390 HD
ENDBRANCH   6  11
BRANCH   1  13
ATOM     13  S   LIG    1        0.879  -0.605   1.472  0.00  0.00    -0.210 S 
BRANCH  13  15
ATOM     14  C   LIG    1       -0.019   1.526   0.010  0.00  0.00    +0.060 C 
ATOM     15  C   LIG    1        0.002  -0.004   0.002  0.00  0.00    +0.040 C 
ATOM     16  C   LIG    1        0.718  -0.497  -1.257  0.00  0.00    +0.070 C 
ENDBRANCH  13  15
ENDBRANCH   1  13
BRANCH   3  17
ATOM     17  C   LIG    1       -1.009   3.437   3.841  0.00  0.00    +0.220 C 
BRANCH  17  18
ATOM     18  O   LIG    1       -1.593   3.873   2.612  0.00  0.00    -0.570 OA
ATOM     19  H   LIG    1       -1.606   4.834   2.502  0.00  0.00    +0.380 HD
ENDBRANCH  17  18
ENDBRANCH   3  17
TORSDOF 7
ENDMDL
MODEL      715
REMARK  Name = ZINC000004301042
REMARK                            x       y       z     vdW  Elec       q    Type
REMARK                         _______ _______ _______ _____ _____    ______ ____
ROOT
ATOM      1  C   LIG    1       -0.186  -0.059   2.835  0.00  0.00    +0.170 C 
ATOM      2  O   LIG    1       -0.207   1.369   2.880  0.00  0.00    -0.340 OA
ATOM      3  C   LIG    1       -1.042   1.908   3.907  0.00  0.00    +0.170 C 
ATOM      4  C   LIG    1       -0.530   1.445   5.273  0.00  0.00    +0.170 C 
ATOM      5  C   LIG    1       -0.509  -0.086   5.309  0.00  0.00    +0.170 C 
ATOM      6  C   LIG    1        0.360  -0.602   4.158  0.00  0.00    +0.150 C 
ENDROOT
BRANCH   5   7
ATOM      7  O   LIG    1        0.034  -0.528   6.555  0.00  0.00    -0.560 OA
ATOM      8  H   LIG    1        0.077  -1.490   6.647  0.00  0.00    +0.390 HD
ENDBRANCH   5   7
BRANCH   4   9
ATOM      9  O   LIG    1       -1.396   1.936   6.299  0.00  0.00    -0.550 OA
ATOM     10  H   LIG    1       -1.132   1.680   7.193  0.00  0.00    +0.390 HD
ENDBRANCH   4   9
BRANCH   6  11
ATOM     11  O   LIG    1        0.329  -2.030   4.139  0.00  0.00    -0.550 OA
ATOM     12  H   LIG    1        0.860  -2.425   3.433  0.00  0.00    +0.390 HD
ENDBRANCH   6  11
BRANCH   1  13
ATOM     13  S   LIG    1        0.879  -0.605   1.472  0.00  0.00    -0.210 S 
BRANCH  13  15
ATOM     14  C   LIG    1       -0.019   1.526   0.010  0.00  0.00    +0.060 C 
ATOM     15  C   LIG    1        0.002  -0.004   0.002  0.00  0.00    +0.040 C 
ATOM     16  C   LIG    1        0.718  -0.497  -1.257  0.00  0.00    +0.070 C 
ENDBRANCH  13  15
ENDBRANCH   1  13
BRANCH   3  17
ATOM     17  C   LIG    1       -1.009   3.437   3.841  0.00  0.00    +0.230 C 
BRANCH  17  18
ATOM     18  O   LIG    1       -1.593   3.873   2.612  0.00  0.00    -0.570 OA
ATOM     19  H   LIG    1       -1.606   4.834   2.502  0.00  0.00    +0.380 HD
ENDBRANCH  17  18
ENDBRANCH   3  17
TORSDOF 7
ENDMDL
MODEL      716
REMARK  Name = ZINC000015206439
REMARK                            x       y       z     vdW  Elec       q    Type
REMARK                         _______ _______ _______ _____ _____    ______ ____
ROOT
ATOM      1  C   LIG    1       -0.186  -0.059   2.835  0.00  0.00    +0.180 C 
ATOM      2  O   LIG    1       -0.207   1.369   2.880  0.00  0.00    -0.340 OA
ATOM      3  C   LIG    1       -1.042   1.908   3.907  0.00  0.00    +0.190 C 
ATOM      4  C   LIG    1       -0.530   1.445   5.273  0.00  0.00    +0.180 C 
ATOM      5  C   LIG    1       -0.509  -0.086   5.309  0.00  0.00    +0.170 C 
ATOM      6  C   LIG    1        0.360  -0.602   4.158  0.00  0.00    +0.160 C 
ENDROOT
BRANCH   5   7
ATOM      7  O   LIG    1       -1.841  -0.586   5.166  0.00  0.00    -0.560 OA
ATOM      8  H   LIG    1       -1.902  -1.551   5.180  0.00  0.00    +0.390 HD
ENDBRANCH   5   7
BRANCH   4   9
ATOM      9  O   LIG    1        0.791   1.947   5.484  0.00  0.00    -0.540 OA
ATOM     10  H   LIG    1        1.178   1.691   6.333  0.00  0.00    +0.380 HD
ENDBRANCH   4   9
BRANCH   6  11
ATOM     11  O   LIG    1        0.329  -2.030   4.139  0.00  0.00    -0.560 OA
ATOM     12  H   LIG    1        0.860  -2.425   3.433  0.00  0.00    +0.390 HD
ENDBRANCH   6  11
BRANCH   1  13
ATOM     13  S   LIG    1        0.879  -0.605   1.472  0.00  0.00    -0.220 S 
BRANCH  13  15
ATOM     14  C   LIG    1       -0.019   1.526   0.010  0.00  0.00    +0.060 C 
ATOM     15  C   LIG    1        0.002  -0.004   0.002  0.00  0.00    +0.040 C 
ATOM     16  C   LIG    1        0.718  -0.497  -1.257  0.00  0.00    +0.060 C 
ENDBRANCH  13  15
ENDBRANCH   1  13
BRANCH   3  17
ATOM     17  C   LIG    1       -1.009   3.437   3.841  0.00  0.00    +0.220 C 
BRANCH  17  18
ATOM     18  O   LIG    1       -1.593   3.873   2.612  0.00  0.00    -0.570 OA
ATOM     19  H   LIG    1       -1.606   4.834   2.502  0.00  0.00    +0.380 HD
ENDBRANCH  17  18
ENDBRANCH   3  17
TORSDOF 7
ENDMDL
MODEL      717
REMARK  Name = ZINC000025721466
REMARK                            x       y       z     vdW  Elec       q    Type
REMARK                         _______ _______ _______ _____ _____    ______ ____
ROOT
ATOM      1  C   LIG    1       -0.186  -0.059   2.835  0.00  0.00    +0.170 C 
ATOM      2  O   LIG    1       -0.207   1.369   2.880  0.00  0.00    -0.330 OA
ATOM      3  C   LIG    1       -1.042   1.908   3.907  0.00  0.00    +0.180 C 
ATOM      4  C   LIG    1       -0.530   1.445   5.273  0.00  0.00    +0.160 C 
ATOM      5  C   LIG    1       -0.509  -0.086   5.309  0.00  0.00    +0.160 C 
ATOM      6  C   LIG    1        0.360  -0.602   4.158  0.00  0.00    +0.140 C 
ENDROOT
BRANCH   5   7
ATOM      7  O   LIG    1       -1.841  -0.586   5.166  0.00  0.00    -0.550 OA
ATOM      8  H   LIG    1       -1.902  -1.551   5.180  0.00  0.00    +0.390 HD
ENDBRANCH   5   7
BRANCH   4   9
ATOM      9  O   LIG    1        0.791   1.947   5.484  0.00  0.00    -0.520 OA
ATOM     10  H   LIG    1        1.178   1.691   6.333  0.00  0.00    +0.380 HD
ENDBRANCH   4   9
BRANCH   6  11
ATOM     11  O   LIG    1        1.706  -0.156   4.339  0.00  0.00    -0.530 OA
ATOM     12  H   LIG    1        2.313  -0.446   3.645  0.00  0.00    +0.380 HD
ENDBRANCH   6  11
BRANCH   1  13
ATOM     13  S   LIG    1        0.879  -0.605   1.472  0.00  0.00    -0.220 S 
BRANCH  13  15
ATOM     14  C   LIG    1       -0.019   1.526   0.010  0.00  0.00    +0.060 C 
ATOM     15  C   LIG    1        0.002  -0.004   0.002  0.00  0.00    +0.040 C 
ATOM     16  C   LIG    1        0.718  -0.497  -1.257  0.00  0.00    +0.060 C 
ENDBRANCH  13  15
ENDBRANCH   1  13
BRANCH   3  17
ATOM     17  C   LIG    1       -1.009   3.437   3.841  0.00  0.00    +0.220 C 
BRANCH  17  18
ATOM     18  O   LIG    1       -1.593   3.873   2.612  0.00  0.00    -0.570 OA
ATOM     19  H   LIG    1       -1.606   4.834   2.502  0.00  0.00    +0.380 HD
ENDBRANCH  17  18
ENDBRANCH   3  17
TORSDOF 7
ENDMDL
MODEL      718
REMARK  Name = ZINC000002314938
REMARK                            x       y       z     vdW  Elec       q    Type
REMARK                         _______ _______ _______ _____ _____    ______ ____
ROOT
ATOM      1  N   LIG    1       -0.057  -0.113  -2.444  0.00  0.00    -0.480 N 
ATOM      2  H1  LIG    1       -0.214   0.884  -2.435  0.00  0.00    +0.410 HD
ATOM      3  H2  LIG    1       -0.945  -0.593  -2.436  0.00  0.00    +0.430 HD
ENDROOT
BRANCH   1   4
ATOM      4  C   LIG    1        0.688  -0.480  -3.655  0.00  0.00    +0.220 C 
ATOM      5  C   LIG    1        1.991   0.342  -3.710  0.00  0.00    -0.290 C 
ATOM      6  S   LIG    1        2.224   0.621  -5.512  0.00  0.00    +2.410 S 
ATOM      7  C   LIG    1        0.425   0.765  -5.861  0.00  0.00    -0.310 C 
ATOM      8  O   LIG    1        2.740  -0.556  -6.119  0.00  0.00    -0.890 OA
ATOM      9  O   LIG    1        2.858   1.874  -5.728  0.00  0.00    -0.910 OA
ATOM     10  C   LIG    1       -0.197  -0.238  -4.872  0.00  0.00    +0.200 C 
BRANCH  10  11
ATOM     11  O   LIG    1       -0.403  -1.483  -5.543  0.00  0.00    -0.540 OA
ATOM     12  H   LIG    1       -1.010  -1.430  -6.294  0.00  0.00    +0.400 HD
ENDBRANCH  10  11
ENDBRANCH   1   4
BRANCH   1  13
ATOM     13  CA  LIG    1        0.718  -0.497  -1.257  0.00  0.00    +0.070 C 
BRANCH  13  14
ATOM     14  C   LIG    1        0.847  -1.998  -1.206  0.00  0.00    +0.490 C 
ATOM     15  OXT LIG    1        1.829  -2.508  -0.694  0.00  0.00    -0.630 OA
ATOM     16  O   LIG    1       -0.030  -2.702  -1.676  0.00  0.00    -0.660 OA
ENDBRANCH  13  14
BRANCH  13  18
ATOM     17  C   LIG    1       -0.019   1.526   0.010  0.00  0.00    +0.030 C 
ATOM     18  C   LIG    1        0.002  -0.004   0.002  0.00  0.00    +0.060 C 
ENDBRANCH  13  18
ENDBRANCH   1  13
TORSDOF 5
ENDMDL
MODEL      719
REMARK  Name = ZINC000051456377
REMARK                            x       y       z     vdW  Elec       q    Type
REMARK                         _______ _______ _______ _____ _____    ______ ____
ROOT
ATOM      1  S   LIG    1       -1.105  -4.152  -1.413  0.00  0.00    +2.790 S 
ATOM      2  O   LIG    1       -0.306  -4.528  -2.526  0.00  0.00    -0.970 OA
ATOM      3  O   LIG    1       -2.520  -4.280  -1.394  0.00  0.00    -0.970 OA
ENDROOT
BRANCH   1   4
ATOM      4  N   LIG    1       -0.540  -5.016  -0.118  0.00  0.00    -1.010 NA
ATOM      5  C   LIG    1        0.838  -5.531  -0.095  0.00  0.00    +0.260 C 
ATOM      6  C   LIG    1        1.487  -5.116   1.231  0.00  0.00    +0.220 C 
ATOM      7  O   LIG    1        0.642  -5.513   2.313  0.00  0.00    -0.380 OA
ATOM      8  C   LIG    1       -0.643  -4.887   2.313  0.00  0.00    +0.220 C 
ATOM      9  C   LIG    1       -1.399  -5.286   1.045  0.00  0.00    +0.270 C 
ENDBRANCH   1   4
BRANCH   1  10
ATOM     10  N   LIG    1       -0.776  -2.556  -1.119  0.00  0.00    -1.120 NA
ATOM     11  H   LIG    1       -1.503  -1.925  -0.998  0.00  0.00    +0.420 HD
BRANCH  10  12
ATOM     12  C   LIG    1        0.613  -2.097  -1.041  0.00  0.00    +0.280 C 
BRANCH  12  13
ATOM     13  C   LIG    1        0.652  -0.570  -1.138  0.00  0.00    +0.180 C 
BRANCH  13  15
ATOM     14  C   LIG    1       -0.017   1.425   0.010  0.00  0.00    +0.200 C 
ATOM     15  O   LIG    1        0.002  -0.004   0.002  0.00  0.00    -0.390 OA
ENDBRANCH  13  15
ENDBRANCH  12  13
ENDBRANCH  10  12
ENDBRANCH   1  10
TORSDOF 5
ENDMDL
MODEL      720
REMARK  Name = ZINC000005500106
REMARK                            x       y       z     vdW  Elec       q    Type
REMARK                         _______ _______ _______ _____ _____    ______ ____
ROOT
ATOM      1  C   LIG    1       -0.019   1.526   0.010  0.00  0.00    +0.030 C 
ATOM      2  C   LIG    1        0.002  -0.004   0.002  0.00  0.00    +0.250 C 
ATOM      3  O   LIG    1        0.749  -0.486  -1.135  0.00  0.00    -0.360 OA
ATOM      4  C   LIG    1        2.125  -0.305  -0.732  0.00  0.00    +0.350 C 
ATOM      5  O   LIG    1        2.924  -1.333  -1.380  0.00  0.00    -0.330 OA
ATOM      6  C   LIG    1        3.579  -2.025  -0.362  0.00  0.00    +0.130 C 
ATOM      7  C   LIG    1        4.030  -3.465  -0.388  0.00  0.00    +0.200 C 
ATOM      8  C   LIG    1        3.812  -3.902   1.093  0.00  0.00    +0.340 C 
ATOM      9  O   LIG    1        3.188  -2.771   1.772  0.00  0.00    -0.360 OA
ATOM     10  C   LIG    1        2.461  -2.134   0.745  0.00  0.00    +0.130 C 
ATOM     11  C   LIG    1        2.078  -0.646   0.801  0.00  0.00    +0.180 C 
ATOM     12  C   LIG    1       -1.427  -0.551  -0.032  0.00  0.00    +0.090 C 
ATOM     13  O   LIG    1        0.695  -0.497   1.161  0.00  0.00    -0.360 OA
ENDROOT
BRANCH   8  14
ATOM     14  O   LIG    1        2.953  -5.043   1.145  0.00  0.00    -0.560 OA
ATOM     15  H   LIG    1        2.779  -5.363   2.041  0.00  0.00    +0.400 HD
ENDBRANCH   8  14
BRANCH   7  16
ATOM     16  O   LIG    1        5.408  -3.560  -0.753  0.00  0.00    -0.540 OA
ATOM     17  H   LIG    1        5.745  -4.466  -0.784  0.00  0.00    +0.390 HD
ENDBRANCH   7  16
TORSDOF 2
ENDMDL
MODEL      721
REMARK  Name = ZINC000003956918
REMARK                            x       y       z     vdW  Elec       q    Type
REMARK                         _______ _______ _______ _____ _____    ______ ____
ROOT
ATOM      1  N   LIG    1       -0.016   1.298   0.009  0.00  0.00    -0.750 NA
ATOM      2  H   LIG    1        0.818   1.794   0.004  0.00  0.00    +0.360 HD
ATOM      3  C   LIG    1        0.002  -0.004   0.002  0.00  0.00    +0.630 C 
ATOM      4  N   LIG    1        1.215  -0.678  -0.007  0.00  0.00    -0.710 N 
ATOM      5  H   LIG    1        1.993  -0.283   0.415  0.00  0.00    +0.420 HD
ATOM      6  C   LIG    1        1.310  -1.905  -0.617  0.00  0.00    +0.550 C 
ATOM      7  C   LIG    1        0.016  -2.392  -1.177  0.00  0.00    +0.120 C 
ATOM      8  N   LIG    1       -0.207  -3.789  -1.459  0.00  0.00    -0.520 NA
ATOM      9  C   LIG    1       -1.418  -4.090  -1.075  0.00  0.00    +0.580 C 
ATOM     10  N   LIG    1       -2.094  -3.007  -0.530  0.00  0.00    -0.670 N 
ATOM     11  C   LIG    1       -1.030  -2.156  -0.037  0.00  0.00    +0.430 C 
ATOM     12  O   LIG    1        2.346  -2.531  -0.692  0.00  0.00    -0.470 OA
ATOM     13  N   LIG    1       -1.201  -0.716   0.010  0.00  0.00    -0.710 N 
ATOM     14  H   LIG    1       -2.070  -0.286   0.040  0.00  0.00    +0.430 HD
ENDROOT
BRANCH  10  15
ATOM     15  C   LIG    1       -3.540  -2.787  -0.462  0.00  0.00    +0.510 C 
BRANCH  15  16
ATOM     16  O   LIG    1       -4.102  -3.624   0.551  0.00  0.00    -0.380 OA
BRANCH  16  17
ATOM     17  C   LIG    1       -3.942  -3.117   1.878  0.00  0.00    +0.190 C 
BRANCH  17  18
ATOM     18  C   LIG    1       -4.578  -4.089   2.874  0.00  0.00    +0.200 C 
BRANCH  18  19
ATOM     19  O   LIG    1       -3.864  -5.327   2.854  0.00  0.00    -0.570 OA
ATOM     20  H   LIG    1       -4.213  -5.992   3.463  0.00  0.00    +0.380 HD
ENDBRANCH  18  19
ENDBRANCH  17  18
ENDBRANCH  16  17
ENDBRANCH  15  16
ENDBRANCH  10  15
TORSDOF 5
ENDMDL
MODEL      722
REMARK  Name = ZINC000003956917
REMARK                            x       y       z     vdW  Elec       q    Type
REMARK                         _______ _______ _______ _____ _____    ______ ____
ROOT
ATOM      1  N   LIG    1       -0.016   1.298   0.009  0.00  0.00    -0.750 NA
ATOM      2  H   LIG    1        0.818   1.794   0.004  0.00  0.00    +0.350 HD
ATOM      3  C   LIG    1        0.002  -0.004   0.002  0.00  0.00    +0.630 C 
ATOM      4  N   LIG    1        1.200  -0.692  -0.007  0.00  0.00    -0.690 N 
ATOM      5  H   LIG    1        2.026  -0.221   0.188  0.00  0.00    +0.420 HD
ATOM      6  C   LIG    1        1.233  -1.999  -0.283  0.00  0.00    +0.530 C 
ATOM      7  C   LIG    1        0.021  -2.845  -0.509  0.00  0.00    +0.180 C 
ATOM      8  N   LIG    1        0.120  -3.472  -1.843  0.00  0.00    -0.540 NA
ATOM      9  C   LIG    1       -0.728  -2.928  -2.643  0.00  0.00    +0.570 C 
ATOM     10  N   LIG    1       -1.443  -1.905  -2.078  0.00  0.00    -0.680 N 
ATOM     11  C   LIG    1       -1.272  -2.026  -0.595  0.00  0.00    +0.460 C 
ATOM     12  O   LIG    1        2.318  -2.535  -0.354  0.00  0.00    -0.500 OA
ATOM     13  N   LIG    1       -1.169  -0.719   0.009  0.00  0.00    -0.710 N 
ATOM     14  H   LIG    1       -1.952  -0.332   0.432  0.00  0.00    +0.430 HD
ENDROOT
BRANCH  10  15
ATOM     15  C   LIG    1       -2.228  -0.891  -2.786  0.00  0.00    +0.490 C 
BRANCH  15  16
ATOM     16  O   LIG    1       -3.444  -1.474  -3.259  0.00  0.00    -0.380 OA
BRANCH  16  17
ATOM     17  C   LIG    1       -4.459  -1.591  -2.260  0.00  0.00    +0.180 C 
BRANCH  17  18
ATOM     18  C   LIG    1       -5.708  -2.225  -2.875  0.00  0.00    +0.200 C 
BRANCH  18  19
ATOM     19  O   LIG    1       -5.415  -3.565  -3.275  0.00  0.00    -0.570 OA
ATOM     20  H   LIG    1       -6.164  -4.029  -3.674  0.00  0.00    +0.380 HD
ENDBRANCH  18  19
ENDBRANCH  17  18
ENDBRANCH  16  17
ENDBRANCH  15  16
ENDBRANCH  10  15
TORSDOF 5
ENDMDL
MODEL      723
REMARK  Name = ZINC000003956916
REMARK                            x       y       z     vdW  Elec       q    Type
REMARK                         _______ _______ _______ _____ _____    ______ ____
ROOT
ATOM      1  N   LIG    1        0.048   0.925   1.047  0.00  0.00    -0.760 NA
ATOM      2  H   LIG    1        0.904   1.336   1.244  0.00  0.00    +0.350 HD
ATOM      3  C   LIG    1       -0.049  -0.371   0.970  0.00  0.00    +0.630 C 
ATOM      4  N   LIG    1        1.060  -1.169   1.173  0.00  0.00    -0.690 N 
ATOM      5  H   LIG    1        1.868  -0.786   1.549  0.00  0.00    +0.420 HD
ATOM      6  C   LIG    1        1.024  -2.468   0.853  0.00  0.00    +0.540 C 
ATOM      7  C   LIG    1       -0.186  -3.172   0.348  0.00  0.00    +0.170 C 
ATOM      8  N   LIG    1       -0.780  -4.030   1.383  0.00  0.00    -0.530 NA
ATOM      9  C   LIG    1       -2.054  -3.850   1.412  0.00  0.00    +0.550 C 
ATOM     10  N   LIG    1       -2.510  -2.974   0.464  0.00  0.00    -0.660 N 
ATOM     11  C   LIG    1       -1.339  -2.228  -0.015  0.00  0.00    +0.470 C 
ATOM     12  O   LIG    1        2.043  -3.113   0.982  0.00  0.00    -0.500 OA
ATOM     13  N   LIG    1       -1.255  -0.961   0.692  0.00  0.00    -0.730 N 
ATOM     14  H   LIG    1       -2.072  -0.518   0.969  0.00  0.00    +0.420 HD
ENDROOT
BRANCH  10  15
ATOM     15  C   LIG    1       -3.899  -2.808   0.026  0.00  0.00    +0.510 C 
BRANCH  15  16
ATOM     16  O   LIG    1       -4.066  -3.404  -1.262  0.00  0.00    -0.380 OA
BRANCH  16  17
ATOM     17  C   LIG    1       -4.172  -4.829  -1.234  0.00  0.00    +0.190 C 
BRANCH  17  18
ATOM     18  C   LIG    1       -4.446  -5.348  -2.647  0.00  0.00    +0.200 C 
BRANCH  18  19
ATOM     19  O   LIG    1       -3.320  -5.069  -3.483  0.00  0.00    -0.570 OA
ATOM     20  H   LIG    1       -3.424  -5.371  -4.396  0.00  0.00    +0.380 HD
ENDBRANCH  18  19
ENDBRANCH  17  18
ENDBRANCH  16  17
ENDBRANCH  15  16
ENDBRANCH  10  15
TORSDOF 5
ENDMDL
MODEL      724
REMARK  Name = ZINC000002577329
REMARK                            x       y       z     vdW  Elec       q    Type
REMARK                         _______ _______ _______ _____ _____    ______ ____
ROOT
ATOM      1  N   LIG    1       -0.016   1.298   0.009  0.00  0.00    -0.750 NA
ATOM      2  H   LIG    1        0.818   1.794   0.004  0.00  0.00    +0.360 HD
ATOM      3  C   LIG    1        0.002  -0.004   0.002  0.00  0.00    +0.630 C 
ATOM      4  N   LIG    1        1.214  -0.678  -0.007  0.00  0.00    -0.710 N 
ATOM      5  H   LIG    1        1.989  -0.279  -0.434  0.00  0.00    +0.420 HD
ATOM      6  C   LIG    1        1.317  -1.911   0.588  0.00  0.00    +0.550 C 
ATOM      7  C   LIG    1        0.027  -2.405   1.157  0.00  0.00    +0.120 C 
ATOM      8  N   LIG    1       -0.183  -3.811   1.422  0.00  0.00    -0.520 NA
ATOM      9  C   LIG    1       -1.414  -4.091   1.091  0.00  0.00    +0.580 C 
ATOM     10  N   LIG    1       -2.085  -3.027   0.513  0.00  0.00    -0.660 N 
ATOM     11  C   LIG    1       -1.029  -2.157   0.030  0.00  0.00    +0.440 C 
ATOM     12  O   LIG    1        2.353  -2.538   0.646  0.00  0.00    -0.470 OA
ATOM     13  N   LIG    1       -1.201  -0.716   0.010  0.00  0.00    -0.710 N 
ATOM     14  H   LIG    1       -2.070  -0.287  -0.001  0.00  0.00    +0.420 HD
ENDROOT
BRANCH  10  15
ATOM     15  C   LIG    1       -3.532  -2.827   0.410  0.00  0.00    +0.510 C 
BRANCH  15  16
ATOM     16  O   LIG    1       -4.051  -2.441   1.684  0.00  0.00    -0.380 OA
BRANCH  16  17
ATOM     17  C   LIG    1       -3.862  -1.059   1.994  0.00  0.00    +0.180 C 
BRANCH  17  18
ATOM     18  C   LIG    1       -4.453  -0.760   3.373  0.00  0.00    +0.200 C 
BRANCH  18  19
ATOM     19  O   LIG    1       -3.721  -1.474   4.371  0.00  0.00    -0.570 OA
ATOM     20  H   LIG    1       -4.041  -1.332   5.272  0.00  0.00    +0.380 HD
ENDBRANCH  18  19
ENDBRANCH  17  18
ENDBRANCH  16  17
ENDBRANCH  15  16
ENDBRANCH  10  15
TORSDOF 5
ENDMDL
MODEL      725
REMARK  Name = ZINC000019943987
REMARK                            x       y       z     vdW  Elec       q    Type
REMARK                         _______ _______ _______ _____ _____    ______ ____
ROOT
ATOM      1  C   LIG    1       -0.236  -3.862   1.547  0.00  0.00    +0.530 A 
ATOM      2  C   LIG    1        0.332  -4.200   2.788  0.00  0.00    -0.370 A 
ATOM      3  C   LIG    1        0.612  -5.617   3.051  0.00  0.00    +0.560 A 
ATOM      4  N   LIG    1        0.314  -6.523   2.097  0.00  0.00    -0.560 N 
ATOM      5  C   LIG    1       -0.228  -6.141   0.929  0.00  0.00    +0.700 A 
ATOM      6  O   LIG    1       -0.482  -6.988   0.096  0.00  0.00    -0.530 OA
ATOM      7  C   LIG    1        0.584  -7.943   2.338  0.00  0.00    +0.340 C 
ATOM      8  O   LIG    1        1.103  -5.968   4.108  0.00  0.00    -0.470 OA
ATOM      9  N   LIG    1       -0.505  -4.857   0.651  0.00  0.00    -0.530 N 
ATOM     10  C   LIG    1       -1.097  -4.515  -0.645  0.00  0.00    +0.350 C 
ENDROOT
BRANCH   1  11
ATOM     11  N   LIG    1       -0.518  -2.566   1.246  0.00  0.00    -0.780 N 
ATOM     12  H   LIG    1        0.124  -2.032   0.752  0.00  0.00    +0.420 HD
BRANCH  11  13
ATOM     13  C   LIG    1       -1.790  -1.976   1.668  0.00  0.00    +0.290 C 
BRANCH  13  14
ATOM     14  C   LIG    1       -1.804  -0.487   1.316  0.00  0.00    +0.180 C 
BRANCH  14  16
ATOM     15  C   LIG    1       -1.779   1.027  -0.542  0.00  0.00    +0.200 C 
ATOM     16  O   LIG    1       -1.769  -0.333  -0.104  0.00  0.00    -0.390 OA
ENDBRANCH  14  16
ENDBRANCH  13  14
ENDBRANCH  11  13
ENDBRANCH   1  11
BRANCH   2  17
ATOM     17  C   LIG    1        0.623  -3.209   3.750  0.00  0.00    +0.500 C 
ATOM     18  O   LIG    1        1.114  -3.523   4.815  0.00  0.00    -0.450 OA
ENDBRANCH   2  17
TORSDOF 5
ENDMDL
MODEL      726
REMARK  Name = ZINC000012811933
REMARK                            x       y       z     vdW  Elec       q    Type
REMARK                         _______ _______ _______ _____ _____    ______ ____
ROOT
ATOM      1  C   LIG    1       -1.065  -3.919  -1.052  0.00  0.00    +0.320 A 
ATOM      2  N   LIG    1       -0.104  -4.796  -0.915  0.00  0.00    -0.280 NA
ATOM      3  N   LIG    1       -0.411  -6.160  -0.849  0.00  0.00    -0.430 N 
ATOM      4  C   LIG    1       -1.683  -6.587  -0.925  0.00  0.00    +0.670 A 
ATOM      5  N   LIG    1       -2.702  -5.719  -1.066  0.00  0.00    -0.550 N 
ATOM      6  C   LIG    1       -4.079  -6.212  -1.146  0.00  0.00    +0.350 C 
ATOM      7  O   LIG    1       -1.918  -7.779  -0.865  0.00  0.00    -0.540 OA
ATOM      8  C   LIG    1        0.670  -7.136  -0.695  0.00  0.00    +0.380 C 
ATOM      9  C   LIG    1       -2.456  -4.394  -1.129  0.00  0.00    +0.530 A 
ATOM     10  O   LIG    1       -3.372  -3.602  -1.256  0.00  0.00    -0.480 OA
ENDROOT
BRANCH   1  11
ATOM     11  N   LIG    1       -0.776  -2.556  -1.119  0.00  0.00    -0.680 N 
ATOM     12  H   LIG    1       -1.495  -1.912  -1.217  0.00  0.00    +0.420 HD
BRANCH  11  13
ATOM     13  C   LIG    1        0.613  -2.097  -1.041  0.00  0.00    +0.300 C 
BRANCH  13  14
ATOM     14  C   LIG    1        0.652  -0.570  -1.138  0.00  0.00    +0.170 C 
BRANCH  14  16
ATOM     15  C   LIG    1       -0.017   1.425   0.010  0.00  0.00    +0.200 C 
ATOM     16  O   LIG    1        0.002  -0.004   0.002  0.00  0.00    -0.390 OA
ENDBRANCH  14  16
ENDBRANCH  13  14
ENDBRANCH  11  13
ENDBRANCH   1  11
TORSDOF 4
ENDMDL
MODEL      727
REMARK  Name = ZINC000035681314
REMARK                            x       y       z     vdW  Elec       q    Type
REMARK                         _______ _______ _______ _____ _____    ______ ____
ROOT
ATOM      1  C   LIG    1       -2.334  -5.948  -1.018  0.00  0.00    +0.220 C 
ATOM      2  N   LIG    1       -1.636  -6.497  -2.188  0.00  0.00    -0.660 NA
ATOM      3  H   LIG    1       -1.974  -6.078  -3.041  0.00  0.00    +0.340 HD
ATOM      4  C   LIG    1       -1.783  -7.961  -2.226  0.00  0.00    +0.230 C 
ATOM      5  C   LIG    1       -3.241  -8.301  -2.538  0.00  0.00    +0.230 C 
ATOM      6  N   LIG    1       -4.129  -7.562  -1.644  0.00  0.00    -0.720 N 
ATOM      7  H   LIG    1       -5.044  -7.868  -1.543  0.00  0.00    +0.400 HD
ATOM      8  C   LIG    1       -3.737  -6.482  -0.963  0.00  0.00    +0.490 C 
ATOM      9  O   LIG    1       -4.548  -5.910  -0.265  0.00  0.00    -0.540 OA
ENDROOT
BRANCH   1  10
ATOM     10  C   LIG    1       -2.375  -4.422  -1.121  0.00  0.00    +0.140 C 
BRANCH  10  11
ATOM     11  C   LIG    1       -0.973  -3.876  -1.048  0.00  0.00    +0.460 C 
ATOM     12  O   LIG    1       -0.036  -4.630  -0.926  0.00  0.00    -0.480 OA
BRANCH  11  13
ATOM     13  O   LIG    1       -0.764  -2.552  -1.118  0.00  0.00    -0.350 OA
BRANCH  13  14
ATOM     14  C   LIG    1        0.613  -2.097  -1.041  0.00  0.00    +0.240 C 
BRANCH  14  15
ATOM     15  C   LIG    1        0.652  -0.570  -1.138  0.00  0.00    +0.190 C 
BRANCH  15  17
ATOM     16  C   LIG    1       -0.017   1.425   0.010  0.00  0.00    +0.200 C 
ATOM     17  O   LIG    1        0.002  -0.004   0.002  0.00  0.00    -0.390 OA
ENDBRANCH  15  17
ENDBRANCH  14  15
ENDBRANCH  13  14
ENDBRANCH  11  13
ENDBRANCH  10  11
ENDBRANCH   1  10
TORSDOF 6
ENDMDL
MODEL      728
REMARK  Name = ZINC000035681313
REMARK                            x       y       z     vdW  Elec       q    Type
REMARK                         _______ _______ _______ _____ _____    ______ ____
ROOT
ATOM      1  C   LIG    1       -2.334  -5.948  -1.018  0.00  0.00    +0.170 C 
ATOM      2  N   LIG    1       -1.829  -6.334   0.307  0.00  0.00    -0.680 NA
ATOM      3  H   LIG    1       -0.865  -6.061   0.420  0.00  0.00    +0.370 HD
ATOM      4  C   LIG    1       -1.995  -7.782   0.511  0.00  0.00    +0.190 C 
ATOM      5  C   LIG    1       -3.488  -8.093   0.636  0.00  0.00    +0.270 C 
ATOM      6  N   LIG    1       -4.220  -7.485  -0.471  0.00  0.00    -0.710 N 
ATOM      7  H   LIG    1       -5.111  -7.811  -0.672  0.00  0.00    +0.400 HD
ATOM      8  C   LIG    1       -3.717  -6.499  -1.219  0.00  0.00    +0.530 C 
ATOM      9  O   LIG    1       -4.406  -6.029  -2.100  0.00  0.00    -0.550 OA
ENDROOT
BRANCH   1  10
ATOM     10  C   LIG    1       -2.375  -4.422  -1.121  0.00  0.00    +0.150 C 
BRANCH  10  11
ATOM     11  C   LIG    1       -0.973  -3.876  -1.048  0.00  0.00    +0.470 C 
ATOM     12  O   LIG    1       -0.036  -4.630  -0.926  0.00  0.00    -0.520 OA
BRANCH  11  13
ATOM     13  O   LIG    1       -0.764  -2.552  -1.118  0.00  0.00    -0.340 OA
BRANCH  13  14
ATOM     14  C   LIG    1        0.613  -2.097  -1.041  0.00  0.00    +0.240 C 
BRANCH  14  15
ATOM     15  C   LIG    1        0.652  -0.570  -1.138  0.00  0.00    +0.200 C 
BRANCH  15  17
ATOM     16  C   LIG    1       -0.017   1.425   0.010  0.00  0.00    +0.200 C 
ATOM     17  O   LIG    1        0.002  -0.004   0.002  0.00  0.00    -0.390 OA
ENDBRANCH  15  17
ENDBRANCH  14  15
ENDBRANCH  13  14
ENDBRANCH  11  13
ENDBRANCH  10  11
ENDBRANCH   1  10
TORSDOF 6
ENDMDL
MODEL      729
REMARK  Name = ZINC000257346032
REMARK                            x       y       z     vdW  Elec       q    Type
REMARK                         _______ _______ _______ _____ _____    ______ ____
ROOT
ATOM      1  C   LIG    1        0.633  -2.108   1.011  0.00  0.00    +0.190 C 
ATOM      2  O   LIG    1       -0.720  -2.557   1.108  0.00  0.00    -0.370 OA
ATOM      3  C   LIG    1       -0.875  -3.972   0.989  0.00  0.00    +0.340 C 
ATOM      4  C   LIG    1       -0.112  -4.665   2.121  0.00  0.00    +0.150 C 
ATOM      5  C   LIG    1        1.362  -4.252   2.060  0.00  0.00    +0.180 C 
ATOM      6  C   LIG    1        1.457  -2.725   2.143  0.00  0.00    +0.160 C 
ENDROOT
BRANCH   5   7
ATOM      7  O   LIG    1        2.068  -4.837   3.155  0.00  0.00    -0.560 OA
ATOM      8  H   LIG    1        2.044  -5.804   3.168  0.00  0.00    +0.390 HD
ENDBRANCH   5   7
BRANCH   4   9
ATOM      9  O   LIG    1       -0.219  -6.082   1.972  0.00  0.00    -0.550 OA
ATOM     10  H   LIG    1       -1.127  -6.413   1.996  0.00  0.00    +0.390 HD
ENDBRANCH   4   9
BRANCH   3  11
ATOM     11  O   LIG    1       -0.356  -4.404  -0.270  0.00  0.00    -0.560 OA
ATOM     12  H   LIG    1       -0.793  -4.004  -1.034  0.00  0.00    +0.390 HD
ENDBRANCH   3  11
BRANCH   6  13
ATOM     13  O   LIG    1        2.822  -2.324   2.016  0.00  0.00    -0.370 OA
ATOM     14  C   LIG    1        3.522  -2.241   3.259  0.00  0.00    +0.220 C 
ENDBRANCH   6  13
BRANCH   1  15
ATOM     15  C   LIG    1        0.673  -0.582   1.123  0.00  0.00    +0.210 C 
BRANCH  15  17
ATOM     16  C   LIG    1       -0.017   1.425   0.010  0.00  0.00    +0.200 C 
ATOM     17  O   LIG    1        0.002  -0.004   0.002  0.00  0.00    -0.380 OA
ENDBRANCH  15  17
ENDBRANCH   1  15
TORSDOF 6
ENDMDL
MODEL      730
REMARK  Name = ZINC000012322351
REMARK                            x       y       z     vdW  Elec       q    Type
REMARK                         _______ _______ _______ _____ _____    ______ ____
ROOT
ATOM      1  O   LIG    1        0.030   0.005  -0.309  0.00  0.00    -0.490 OA
ATOM      2  C   LIG    1       -0.003   1.209  -0.155  0.00  0.00    +0.520 C 
ATOM      3  N   LIG    1        1.143   1.900   0.001  0.00  0.00    -0.620 N 
ATOM      4  H   LIG    1        1.123   2.868   0.051  0.00  0.00    +0.430 HD
ENDROOT
BRANCH   3   5
ATOM      5  C   LIG    1        2.366   1.218   0.092  0.00  0.00    -0.030 A 
ATOM      6  C   LIG    1        3.369   1.472  -0.786  0.00  0.00    +0.360 A 
ATOM      7  N   LIG    1        4.553   0.791  -0.673  0.00  0.00    -0.630 N 
ATOM      8  H   LIG    1        5.268   0.975  -1.302  0.00  0.00    +0.440 HD
ATOM      9  C   LIG    1        4.742  -0.124   0.291  0.00  0.00    +0.700 A 
ATOM     10  N   LIG    1        3.783  -0.415   1.187  0.00  0.00    -0.650 N 
ATOM     11  H   LIG    1        3.948  -1.081   1.873  0.00  0.00    +0.440 HD
ATOM     12  O   LIG    1        5.808  -0.705   0.355  0.00  0.00    -0.530 OA
ATOM     13  C   LIG    1        2.593   0.220   1.141  0.00  0.00    +0.550 A 
ATOM     14  O   LIG    1        1.720  -0.038   1.950  0.00  0.00    -0.490 OA
ENDBRANCH   3   5
BRANCH   2  15
ATOM     15  C   LIG    1       -1.313   1.924  -0.146  0.00  0.00    +0.520 C 
ATOM     16  N   LIG    1       -2.459   1.234  -0.308  0.00  0.00    -0.670 N 
ATOM     17  H   LIG    1       -2.433   0.272  -0.431  0.00  0.00    +0.420 HD
ATOM     18  O   LIG    1       -1.346   3.128   0.007  0.00  0.00    -0.510 OA
BRANCH  16  19
ATOM     19  C   LIG    1       -3.745   1.936  -0.299  0.00  0.00    +0.210 C 
ATOM     20  C   LIG    1       -4.773   1.542  -1.362  0.00  0.00    +0.020 C 
ATOM     21  C   LIG    1       -4.986   1.134   0.097  0.00  0.00    +0.030 C 
ENDBRANCH  16  19
ENDBRANCH   2  15
TORSDOF 3
ENDMDL
MODEL      731
REMARK  Name = ZINC000308455713
REMARK                            x       y       z     vdW  Elec       q    Type
REMARK                         _______ _______ _______ _____ _____    ______ ____
ROOT
ATOM      1  C   LIG    1        0.842  -3.882  -0.024  0.00  0.00    +0.310 C 
ENDROOT
BRANCH   1   5
ATOM      2  C   LIG    1        0.002  -0.004   0.002  0.00  0.00    +0.310 A 
ATOM      3  N   LIG    1       -1.039  -0.787   0.002  0.00  0.00    -0.340 NA
ATOM      4  N   LIG    1       -0.835  -2.031  -0.006  0.00  0.00    -0.200 NA
ATOM      5  C   LIG    1        0.391  -2.445  -0.014  0.00  0.00    -0.040 A 
ATOM      6  S   LIG    1        1.441  -1.026  -0.017  0.00  0.00    +0.050 S 
BRANCH   2   7
ATOM      7  N   LIG    1       -0.017   1.383   0.010  0.00  0.00    -0.800 N 
ATOM      8  H   LIG    1       -0.863   1.856   0.016  0.00  0.00    +0.420 HD
ATOM      9  H   LIG    1        0.817   1.879   0.004  0.00  0.00    +0.420 HD
ENDBRANCH   2   7
ENDBRANCH   1   5
BRANCH   1  10
ATOM     10  O   LIG    1        0.071  -4.617  -0.978  0.00  0.00    -0.530 OA
ATOM     11  H   LIG    1       -0.879  -4.617  -0.799  0.00  0.00    +0.380 HD
ENDBRANCH   1  10
BRANCH   1  12
ATOM     12  C   LIG    1        0.645  -4.489   1.366  0.00  0.00    +0.160 C 
BRANCH  12  13
ATOM     13  O   LIG    1       -0.716  -4.322   1.771  0.00  0.00    -0.540 OA
ATOM     14  H   LIG    1       -1.356  -4.744   1.182  0.00  0.00    +0.380 HD
ENDBRANCH  12  13
BRANCH  12  15
ATOM     15  C   LIG    1        0.985  -5.980   1.325  0.00  0.00    +0.210 C 
BRANCH  15  16
ATOM     16  O   LIG    1        2.345  -6.148   0.921  0.00  0.00    -0.540 OA
ATOM     17  H   LIG    1        2.985  -5.725   1.510  0.00  0.00    +0.370 HD
ENDBRANCH  15  16
BRANCH  15  18
ATOM     18  C   LIG    1        0.788  -6.587   2.716  0.00  0.00    +0.160 C 
BRANCH  18  19
ATOM     19  O   LIG    1        0.992  -8.000   2.652  0.00  0.00    -0.560 OA
ATOM     20  H   LIG    1        0.883  -8.451   3.501  0.00  0.00    +0.380 HD
ENDBRANCH  18  19
ENDBRANCH  15  18
ENDBRANCH  12  15
ENDBRANCH   1  12
TORSDOF 9
ENDMDL
MODEL      732
REMARK  Name = ZINC000254622989
REMARK                            x       y       z     vdW  Elec       q    Type
REMARK                         _______ _______ _______ _____ _____    ______ ____
ROOT
ATOM      1  C   LIG    1        0.680  -2.077   1.092  0.00  0.00    +0.170 C 
ATOM      2  C   LIG    1        1.303  -2.690   2.129  0.00  0.00    -0.160 A 
ATOM      3  S   LIG    1        2.102  -1.935   3.520  0.00  0.00    +0.280 S 
ATOM      4  C   LIG    1        2.574  -3.468   4.267  0.00  0.00    +0.250 A 
ATOM      5  N   LIG    1        3.195  -3.983   5.304  0.00  0.00    -0.490 NA
ATOM      6  C   LIG    1        3.174  -5.318   5.216  0.00  0.00    +0.500 A 
ATOM      7  N   LIG    1        2.542  -5.667   4.127  0.00  0.00    -0.320 NA
ATOM      8  N   LIG    1        2.132  -4.474   3.474  0.00  0.00    -0.410 N 
ATOM      9  C   LIG    1        1.464  -4.141   2.362  0.00  0.00    +0.580 A 
ATOM     10  O   LIG    1        1.024  -4.974   1.596  0.00  0.00    -0.410 OA
ENDROOT
BRANCH   6  11
ATOM     11  N   LIG    1        3.736  -6.197   6.140  0.00  0.00    -0.800 N 
ATOM     12  H   LIG    1        3.674  -7.154   5.998  0.00  0.00    +0.420 HD
ATOM     13  H   LIG    1        4.189  -5.851   6.925  0.00  0.00    +0.420 HD
ENDBRANCH   6  11
BRANCH   1  14
ATOM     14  C   LIG    1        0.621  -0.614   1.034  0.00  0.00    +0.490 C 
ATOM     15  O   LIG    1        1.130   0.051   1.915  0.00  0.00    -0.480 OA
BRANCH  14  17
ATOM     16  C   LIG    1       -0.018   1.448   0.010  0.00  0.00    +0.280 C 
ATOM     17  O   LIG    1        0.002  -0.004   0.002  0.00  0.00    -0.340 OA
ENDBRANCH  14  17
ENDBRANCH   1  14
TORSDOF 3
ENDMDL
MODEL      733
REMARK  Name = ZINC000003123977
REMARK                            x       y       z     vdW  Elec       q    Type
REMARK                         _______ _______ _______ _____ _____    ______ ____
ROOT
ATOM      1  C   LIG    1        1.443   0.720   1.893  0.00  0.00    +0.000 C 
ENDROOT
BRANCH   1   9
ATOM      2  C   LIG    1       -0.151   1.413   0.076  0.00  0.00    +0.040 C 
ATOM      3  C   LIG    1       -0.052  -0.114   0.093  0.00  0.00    +0.020 C 
ATOM      4  C   LIG    1       -1.461  -0.705   0.298  0.00  0.00    -0.290 C 
ATOM      5  S   LIG    1       -1.132  -2.210   1.300  0.00  0.00    +2.380 S 
ATOM      6  C   LIG    1        0.252  -1.448   2.240  0.00  0.00    -0.290 C 
ATOM      7  O   LIG    1       -0.634  -3.246   0.464  0.00  0.00    -0.940 OA
ATOM      8  O   LIG    1       -2.227  -2.459   2.171  0.00  0.00    -0.930 OA
ATOM      9  C   LIG    1        0.915  -0.534   1.194  0.00  0.00    +0.050 C 
ENDBRANCH   1   9
BRANCH   1  10
ATOM     10  C   LIG    1        2.561   0.340   2.829  0.00  0.00    +0.520 C 
ATOM     11  O   LIG    1        2.327   0.133   4.000  0.00  0.00    -0.520 OA
ATOM     12  N   LIG    1        3.821   0.231   2.364  0.00  0.00    -0.850 N 
ATOM     13  H   LIG    1        4.528  -0.084   2.948  0.00  0.00    +0.410 HD
ATOM     14  H   LIG    1        4.021   0.467   1.444  0.00  0.00    +0.400 HD
ENDBRANCH   1  10
BRANCH   1  15
ATOM     15  C   LIG    1        0.329   1.365   2.676  0.00  0.00    +0.550 C 
ATOM     16  O   LIG    1       -0.765   0.843   2.717  0.00  0.00    -0.530 OA
ATOM     17  N   LIG    1        0.548   2.522   3.332  0.00  0.00    -0.840 N 
ATOM     18  H   LIG    1       -0.145   2.899   3.895  0.00  0.00    +0.410 HD
ATOM     19  H   LIG    1        1.400   2.977   3.241  0.00  0.00    +0.400 HD
ENDBRANCH   1  15
TORSDOF 3
ENDMDL
MODEL      734
REMARK  Name = ZINC000003123975
REMARK                            x       y       z     vdW  Elec       q    Type
REMARK                         _______ _______ _______ _____ _____    ______ ____
ROOT
ATOM      1  C   LIG    1        2.013  -1.301   0.639  0.00  0.00    -0.020 C 
ENDROOT
BRANCH   1   9
ATOM      2  C   LIG    1       -1.057  -0.882  -1.064  0.00  0.00    +0.050 C 
ATOM      3  C   LIG    1        0.117  -1.843  -0.867  0.00  0.00    +0.000 C 
ATOM      4  C   LIG    1       -0.320  -3.260  -1.288  0.00  0.00    -0.290 C 
ATOM      5  S   LIG    1        0.602  -4.338  -0.118  0.00  0.00    +2.370 S 
ATOM      6  C   LIG    1        0.471  -3.157   1.285  0.00  0.00    -0.290 C 
ATOM      7  O   LIG    1        1.957  -4.448  -0.531  0.00  0.00    -0.930 OA
ATOM      8  O   LIG    1       -0.159  -5.505   0.162  0.00  0.00    -0.930 OA
ATOM      9  C   LIG    1        0.563  -1.787   0.589  0.00  0.00    +0.060 C 
ENDBRANCH   1   9
BRANCH   1  10
ATOM     10  C   LIG    1        2.439  -1.139   2.075  0.00  0.00    +0.530 C 
ATOM     11  O   LIG    1        1.641  -0.759   2.906  0.00  0.00    -0.510 OA
ATOM     12  N   LIG    1        3.708  -1.416   2.437  0.00  0.00    -0.850 N 
ATOM     13  H   LIG    1        4.002  -1.241   3.345  0.00  0.00    +0.410 HD
ATOM     14  H   LIG    1        4.326  -1.789   1.790  0.00  0.00    +0.400 HD
ENDBRANCH   1  10
BRANCH   1  15
ATOM     15  C   LIG    1        2.123   0.024  -0.070  0.00  0.00    +0.530 C 
ATOM     16  O   LIG    1        1.458   0.968   0.301  0.00  0.00    -0.510 OA
ATOM     17  N   LIG    1        2.961   0.160  -1.117  0.00  0.00    -0.850 N 
ATOM     18  H   LIG    1        3.084   1.029  -1.530  0.00  0.00    +0.410 HD
ATOM     19  H   LIG    1        3.440  -0.611  -1.458  0.00  0.00    +0.410 HD
ENDBRANCH   1  15
TORSDOF 3
ENDMDL
MODEL      735
REMARK  Name = ZINC000109235479
REMARK                            x       y       z     vdW  Elec       q    Type
REMARK                         _______ _______ _______ _____ _____    ______ ____
ROOT
ATOM      1  N   LIG    1        1.410  -0.193   2.982  0.00  0.00    -0.650 NA
ATOM      2  H   LIG    1        1.934  -1.046   2.858  0.00  0.00    +0.360 HD
ENDROOT
BRANCH   1   3
ATOM      3  C   LIG    1        1.451   0.253   4.381  0.00  0.00    +0.200 C 
ATOM      4  C   LIG    1        2.790   0.953   4.689  0.00  0.00    +0.110 C 
ATOM      5  C   LIG    1        3.404   0.088   5.767  0.00  0.00    +0.530 C 
ATOM      6  N   LIG    1        2.577  -0.930   6.039  0.00  0.00    -0.680 N 
ATOM      7  H   LIG    1        2.778  -1.607   6.704  0.00  0.00    +0.420 HD
ATOM      8  O   LIG    1        4.474   0.284   6.301  0.00  0.00    -0.480 OA
ATOM      9  C   LIG    1        1.445  -0.935   5.318  0.00  0.00    +0.500 C 
ATOM     10  O   LIG    1        0.562  -1.762   5.404  0.00  0.00    -0.470 OA
ENDBRANCH   1   3
BRANCH   1  11
ATOM     11  C   LIG    1        0.025  -0.354   2.521  0.00  0.00    +0.310 C 
BRANCH  11  17
ATOM     12  C   LIG    1       -0.018   1.461   0.010  0.00  0.00    +0.330 C 
ATOM     13  N   LIG    1        0.002  -0.004   0.002  0.00  0.00    -0.450 N 
ATOM     14  C   LIG    1        0.009  -0.810  -1.104  0.00  0.00    +0.130 A 
ATOM     15  C   LIG    1        0.029  -2.081  -0.660  0.00  0.00    +0.140 A 
ATOM     16  N   LIG    1        0.034  -2.052   0.681  0.00  0.00    -0.480 NA
ATOM     17  C   LIG    1        0.023  -0.811   1.085  0.00  0.00    +0.200 A 
ENDBRANCH  11  17
ENDBRANCH   1  11
TORSDOF 3
ENDMDL
MODEL      736
REMARK  Name = ZINC000001569725
REMARK                            x       y       z     vdW  Elec       q    Type
REMARK                         _______ _______ _______ _____ _____    ______ ____
ROOT
ATOM      1  C   GLY A  2       -2.028   5.597   3.492  0.00  0.00    +0.510 C 
ATOM      2  N   GLY A  3       -2.167   6.919   3.714  0.00  0.00    -0.700 N 
ATOM      3  H   GLY A  3       -1.813   7.558   3.076  0.00  0.00    +0.420 HD
ATOM      4  O   GLY A  2       -2.470   4.798   4.291  0.00  0.00    -0.540 OA
ENDROOT
BRANCH   1   5
ATOM      5  CA  GLY A  2       -1.323   5.111   2.252  0.00  0.00    +0.320 C 
BRANCH   5   7
ATOM      6  C   GLY A  1       -0.720   2.985   1.224  0.00  0.00    +0.500 C 
ATOM      7  N   GLY A  2       -1.303   3.646   2.244  0.00  0.00    -0.690 N 
ATOM      8  H   GLY A  2       -1.709   3.151   2.973  0.00  0.00    +0.420 HD
ATOM      9  O   GLY A  1       -0.211   3.604   0.313  0.00  0.00    -0.530 OA
BRANCH   6  10
ATOM     10  CA  GLY A  1       -0.699   1.479   1.216  0.00  0.00    +0.320 C 
BRANCH  10  11
ATOM     11  N   GLY A  1       -0.012   1.005   0.008  0.00  0.00    -0.620 N 
ATOM     12  H1  GLY A  1       -0.500   1.339  -0.810  0.00  0.00    +0.440 HD
ATOM     13  H2  GLY A  1        0.935   1.354   0.000  0.00  0.00    +0.440 HD
ATOM     14  H3  GLY A  1        0.002  -0.004   0.002  0.00  0.00    +0.440 HD
ENDBRANCH  10  11
ENDBRANCH   6  10
ENDBRANCH   5   7
ENDBRANCH   1   5
BRANCH   2  15
ATOM     15  CA  GLY A  3       -2.853   7.391   4.919  0.00  0.00    +0.300 C 
BRANCH  15  16
ATOM     16  C   GLY A  3       -2.873   8.898   4.928  0.00  0.00    +0.490 C 
ATOM     17  N   GLY A  4       -3.456   9.559   5.948  0.00  0.00    -0.690 N 
ATOM     18  H   GLY A  4       -3.862   9.064   6.676  0.00  0.00    +0.410 HD
ATOM     19  O   GLY A  3       -2.365   9.517   4.016  0.00  0.00    -0.560 OA
BRANCH  17  20
ATOM     20  CA  GLY A  4       -3.476  11.023   5.956  0.00  0.00    +0.190 C 
BRANCH  20  21
ATOM     21  C   GLY A  4       -4.181  11.509   7.196  0.00  0.00    +0.490 C 
ATOM     22  OXT GLY A  4       -4.307  12.705   7.396  0.00  0.00    -0.680 OA
ATOM     23  O   GLY A  4       -4.626  10.707   7.998  0.00  0.00    -0.690 OA
ENDBRANCH  20  21
ENDBRANCH  17  20
ENDBRANCH  15  16
ENDBRANCH   2  15
TORSDOF 8
ENDMDL
MODEL      737
REMARK  Name = ZINC000002555108
REMARK                            x       y       z     vdW  Elec       q    Type
REMARK                         _______ _______ _______ _____ _____    ______ ____
ROOT
ATOM      1  CA  GLN A  2       -2.307  -3.058   0.008  0.00  0.00    +0.160 C 
ENDROOT
BRANCH   1   2
ATOM      2  N   GLN A  2       -3.013  -2.814   1.268  0.00  0.00    -0.660 N 
ATOM      3  H   GLN A  2       -2.517  -2.551   2.059  0.00  0.00    +0.400 HD
ATOM      4  C   GLY A  1       -4.353  -2.952   1.327  0.00  0.00    +0.490 C 
ATOM      5  O   GLY A  1       -4.973  -3.280   0.338  0.00  0.00    -0.540 OA
BRANCH   4   6
ATOM      6  CA  GLY A  1       -5.079  -2.701   2.623  0.00  0.00    +0.290 C 
BRANCH   6   7
ATOM      7  N   GLY A  1       -6.519  -2.917   2.428  0.00  0.00    -0.620 N 
ATOM      8  H1  GLY A  1       -7.005  -2.748   3.296  0.00  0.00    +0.440 HD
ATOM      9  H2  GLY A  1       -6.679  -3.868   2.132  0.00  0.00    +0.440 HD
ATOM     10  H3  GLY A  1       -6.862  -2.283   1.722  0.00  0.00    +0.440 HD
ENDBRANCH   6   7
ENDBRANCH   4   6
ENDBRANCH   1   2
BRANCH   1  11
ATOM     11  C   GLN A  2       -2.016  -4.531  -0.127  0.00  0.00    +0.490 C 
ATOM     12  OXT GLN A  2       -1.598  -4.976  -1.182  0.00  0.00    -0.680 OA
ATOM     13  O   GLN A  2       -2.198  -5.277   0.820  0.00  0.00    -0.690 OA
ENDBRANCH   1  11
BRANCH   1  14
ATOM     14  CB  GLN A  2       -0.993  -2.276  -0.001  0.00  0.00    +0.080 C 
BRANCH  14  15
ATOM     15  CG  GLN A  2       -1.293  -0.775   0.010  0.00  0.00    +0.030 C 
BRANCH  15  19
ATOM     16  NE2 GLN A  2       -0.016   1.344   0.009  0.00  0.00    -0.860 N 
ATOM     17 HE21 GLN A  2       -0.863   1.817   0.016  0.00  0.00    +0.400 HD
ATOM     18 HE22 GLN A  2        0.817   1.840   0.004  0.00  0.00    +0.400 HD
ATOM     19  CD  GLN A  2        0.002  -0.004   0.002  0.00  0.00    +0.510 C 
ATOM     20  OE1 GLN A  2        1.060  -0.596  -0.011  0.00  0.00    -0.530 OA
ENDBRANCH  15  19
ENDBRANCH  14  15
ENDBRANCH   1  14
TORSDOF 7
ENDMDL
MODEL      738
REMARK  Name = ZINC000004533504
REMARK                            x       y       z     vdW  Elec       q    Type
REMARK                         _______ _______ _______ _____ _____    ______ ____
ROOT
ATOM      1  CA  HIS A  2        0.285   0.807   4.854  0.00  0.00    +0.180 C 
ENDROOT
BRANCH   1   3
ATOM      2  C   GLY A  1        0.030   0.979   2.437  0.00  0.00    +0.490 C 
ATOM      3  N   HIS A  2       -0.423   1.292   3.667  0.00  0.00    -0.640 N 
ATOM      4  H   HIS A  2       -1.219   1.839   3.767  0.00  0.00    +0.410 HD
ATOM      5  O   GLY A  1        1.024   0.296   2.313  0.00  0.00    -0.550 OA
BRANCH   2   6
ATOM      6  CA  GLY A  1       -0.699   1.479   1.216  0.00  0.00    +0.290 C 
BRANCH   6   7
ATOM      7  N   GLY A  1       -0.012   1.005   0.008  0.00  0.00    -0.620 N 
ATOM      8  H1  GLY A  1       -0.500   1.339  -0.810  0.00  0.00    +0.440 HD
ATOM      9  H2  GLY A  1        0.935   1.354   0.000  0.00  0.00    +0.440 HD
ATOM     10  H3  GLY A  1        0.002  -0.004   0.002  0.00  0.00    +0.440 HD
ENDBRANCH   6   7
ENDBRANCH   2   6
ENDBRANCH   1   3
BRANCH   1  11
ATOM     11  C   HIS A  2        1.412   1.750   5.187  0.00  0.00    +0.490 C 
ATOM     12  OXT HIS A  2        2.420   1.329   5.728  0.00  0.00    -0.680 OA
ATOM     13  O   HIS A  2        1.316   2.935   4.916  0.00  0.00    -0.690 OA
ENDBRANCH   1  11
BRANCH   1  14
ATOM     14  CB  HIS A  2       -0.686   0.736   6.034  0.00  0.00    +0.150 C 
BRANCH  14  15
ATOM     15  CG  HIS A  2       -1.745  -0.298   5.752  0.00  0.00    +0.010 A 
ATOM     16  CD2 HIS A  2       -2.061  -1.344   6.540  0.00  0.00    +0.130 A 
ATOM     17  NE2 HIS A  2       -3.070  -2.023   5.912  0.00  0.00    -0.570 N 
ATOM     18  HE2 HIS A  2       -3.511  -2.825   6.233  0.00  0.00    +0.420 HD
ATOM     19  CE1 HIS A  2       -3.335  -1.369   4.760  0.00  0.00    +0.380 A 
ATOM     20  ND1 HIS A  2       -2.542  -0.336   4.674  0.00  0.00    -0.490 NA
ENDBRANCH  14  15
ENDBRANCH   1  14
TORSDOF 6
ENDMDL
MODEL      739
REMARK  Name = ZINC000004533503
REMARK                            x       y       z     vdW  Elec       q    Type
REMARK                         _______ _______ _______ _____ _____    ______ ____
ROOT
ATOM      1  CA  HIS A  2        0.285   0.807   4.854  0.00  0.00    +0.180 C 
ENDROOT
BRANCH   1   3
ATOM      2  C   GLY A  1        0.030   0.979   2.437  0.00  0.00    +0.490 C 
ATOM      3  N   HIS A  2       -0.423   1.292   3.667  0.00  0.00    -0.660 N 
ATOM      4  H   HIS A  2       -1.219   1.839   3.767  0.00  0.00    +0.400 HD
ATOM      5  O   GLY A  1        1.024   0.296   2.313  0.00  0.00    -0.540 OA
BRANCH   2   6
ATOM      6  CA  GLY A  1       -0.699   1.479   1.216  0.00  0.00    +0.280 C 
BRANCH   6   7
ATOM      7  N   GLY A  1       -0.012   1.005   0.008  0.00  0.00    -0.620 N 
ATOM      8  H1  GLY A  1       -0.500   1.339  -0.810  0.00  0.00    +0.440 HD
ATOM      9  H2  GLY A  1        0.935   1.354   0.000  0.00  0.00    +0.440 HD
ATOM     10  H3  GLY A  1        0.002  -0.004   0.002  0.00  0.00    +0.440 HD
ENDBRANCH   6   7
ENDBRANCH   2   6
ENDBRANCH   1   3
BRANCH   1  11
ATOM     11  C   HIS A  2       -0.191  -0.583   5.190  0.00  0.00    +0.490 C 
ATOM     12  OXT HIS A  2        0.276  -1.172   6.150  0.00  0.00    -0.680 OA
ATOM     13  O   HIS A  2       -1.043  -1.119   4.502  0.00  0.00    -0.690 OA
ENDBRANCH   1  11
BRANCH   1  14
ATOM     14  CB  HIS A  2        0.004   1.741   6.033  0.00  0.00    +0.150 C 
BRANCH  14  15
ATOM     15  CG  HIS A  2        0.589   3.100   5.748  0.00  0.00    +0.020 A 
ATOM     16  CD2 HIS A  2       -0.077   4.270   5.775  0.00  0.00    +0.110 A 
ATOM     17  NE2 HIS A  2        0.826   5.248   5.458  0.00  0.00    -0.570 N 
ATOM     18  HE2 HIS A  2        0.647   6.199   5.395  0.00  0.00    +0.420 HD
ATOM     19  CE1 HIS A  2        2.014   4.641   5.248  0.00  0.00    +0.390 A 
ATOM     20  ND1 HIS A  2        1.866   3.357   5.428  0.00  0.00    -0.480 NA
ENDBRANCH  14  15
ENDBRANCH   1  14
TORSDOF 6
ENDMDL
MODEL      740
REMARK  Name = ZINC000070817017
REMARK                            x       y       z     vdW  Elec       q    Type
REMARK                         _______ _______ _______ _____ _____    ______ ____
ROOT
ATOM      1  C   LIG    1        0.021  -2.178  -1.177  0.00  0.00    -0.020 C 
ATOM      2  C   LIG    1       -1.369  -2.818  -1.004  0.00  0.00    +0.330 C 
ATOM      3  N   LIG    1       -0.952  -3.767  -2.054  0.00  0.00    -1.040 NA
ATOM      4  C   LIG    1        0.015  -2.791  -2.590  0.00  0.00    +0.350 C 
ENDROOT
BRANCH   1   7
ATOM      5  C   LIG    1       -0.018   1.461   0.010  0.00  0.00    +0.290 C 
ATOM      6  N   LIG    1        0.002  -0.004   0.002  0.00  0.00    -0.620 N 
ATOM      7  C   LIG    1        0.000  -0.672  -1.169  0.00  0.00    +0.520 C 
ATOM      8  O   LIG    1       -0.018  -0.060  -2.216  0.00  0.00    -0.530 OA
ATOM      9  C   LIG    1        0.024  -0.743   1.267  0.00  0.00    +0.290 C 
ENDBRANCH   1   7
BRANCH   3  10
ATOM     10  S   LIG    1       -1.394  -5.309  -2.466  0.00  0.00    +2.630 S 
ATOM     11  O   LIG    1       -1.874  -5.872  -1.253  0.00  0.00    -0.950 OA
ATOM     12  O   LIG    1       -0.247  -5.840  -3.116  0.00  0.00    -0.950 OA
ATOM     13  C   LIG    1       -2.752  -5.091  -3.648  0.00  0.00    -0.290 C 
ENDBRANCH   3  10
TORSDOF 2
ENDMDL
MODEL      741
REMARK  Name = ZINC000029723412
REMARK                            x       y       z     vdW  Elec       q    Type
REMARK                         _______ _______ _______ _____ _____    ______ ____
ROOT
ATOM      1  N   LIG    1       -2.073  -4.208   0.912  0.00  0.00    -0.730 N 
ATOM      2  H   LIG    1       -2.400  -3.636   1.624  0.00  0.00    +0.400 HD
ATOM      3  C   LIG    1       -0.926  -4.898   1.076  0.00  0.00    +0.710 C 
ATOM      4  N   LIG    1       -0.235  -4.792   2.228  0.00  0.00    -0.720 N 
ATOM      5  H   LIG    1       -0.562  -4.220   2.939  0.00  0.00    +0.410 HD
ATOM      6  O   LIG    1       -0.516  -5.616   0.185  0.00  0.00    -0.590 OA
ENDROOT
BRANCH   1   7
ATOM      7  C   LIG    1       -2.824  -4.324  -0.340  0.00  0.00    +0.250 C 
ATOM      8  C   LIG    1       -3.741  -5.546  -0.274  0.00  0.00    +0.020 C 
BRANCH   7   9
ATOM      9  C   LIG    1       -3.668  -3.064  -0.546  0.00  0.00    +0.020 C 
BRANCH   9  11
ATOM     10  C   LIG    1       -3.590  -0.598  -0.942  0.00  0.00    +0.000 C 
ATOM     11  C   LIG    1       -2.746  -1.858  -0.736  0.00  0.00    -0.010 C 
ENDBRANCH   9  11
ENDBRANCH   7   9
ENDBRANCH   1   7
BRANCH   4  12
ATOM     12  C   LIG    1        1.011  -5.542   2.406  0.00  0.00    +0.260 C 
BRANCH  12  13
ATOM     13  C   LIG    1        1.259  -5.763   3.876  0.00  0.00    +0.530 C 
ATOM     14  O   LIG    1        0.767  -5.013   4.693  0.00  0.00    -0.520 OA
ATOM     15  N   LIG    1        2.027  -6.793   4.283  0.00  0.00    -0.840 N 
ATOM     16  H   LIG    1        2.245  -6.894   5.223  0.00  0.00    +0.410 HD
ATOM     17  H   LIG    1        2.362  -7.433   3.636  0.00  0.00    +0.400 HD
ENDBRANCH  12  13
BRANCH  12  18
ATOM     18  C   LIG    1        2.156  -4.760   1.815  0.00  0.00    +0.510 C 
ATOM     19  O   LIG    1        2.085  -3.553   1.728  0.00  0.00    -0.510 OA
ATOM     20  N   LIG    1        3.260  -5.403   1.384  0.00  0.00    -0.850 N 
ATOM     21  H   LIG    1        4.025  -4.896   1.071  0.00  0.00    +0.410 HD
ATOM     22  H   LIG    1        3.288  -6.373   1.387  0.00  0.00    +0.400 HD
ENDBRANCH  12  18
ENDBRANCH   4  12
TORSDOF 6
ENDMDL
MODEL      742
REMARK  Name = ZINC000037898636
REMARK                            x       y       z     vdW  Elec       q    Type
REMARK                         _______ _______ _______ _____ _____    ______ ____
ROOT
ATOM      1  S   LIG    1       -0.000  -0.824  -1.437  0.00  0.00    +2.780 S 
ATOM      2  O   LIG    1       -0.566   0.055  -2.399  0.00  0.00    -0.970 OA
ATOM      3  O   LIG    1       -0.525  -2.116  -1.161  0.00  0.00    -0.940 OA
ENDROOT
BRANCH   1   4
ATOM      4  N   LIG    1        1.581  -1.046  -1.877  0.00  0.00    -1.010 NA
ATOM      5  C   LIG    1        2.285  -0.048  -2.699  0.00  0.00    +0.270 C 
ATOM      6  C   LIG    1        3.614   0.291  -2.014  0.00  0.00    +0.220 C 
ATOM      7  O   LIG    1        4.323  -0.919  -1.738  0.00  0.00    -0.380 OA
ATOM      8  C   LIG    1        3.650  -1.800  -0.835  0.00  0.00    +0.210 C 
ATOM      9  C   LIG    1        2.324  -2.243  -1.454  0.00  0.00    +0.270 C 
ENDBRANCH   1   4
BRANCH   1  11
ATOM     10  C   LIG    1       -0.018   1.461   0.010  0.00  0.00    +0.290 C 
ATOM     11  N   LIG    1        0.002  -0.004   0.002  0.00  0.00    -1.010 NA
BRANCH  11  12
ATOM     12  C   LIG    1        0.024  -0.743   1.267  0.00  0.00    +0.310 C 
BRANCH  12  13
ATOM     13  C   LIG    1       -1.406  -0.912   1.784  0.00  0.00    +0.160 C 
BRANCH  13  14
ATOM     14  O   LIG    1       -2.146  -1.733   0.879  0.00  0.00    -0.560 OA
ATOM     15  H   LIG    1       -3.064  -1.883   1.144  0.00  0.00    +0.380 HD
ENDBRANCH  13  14
ENDBRANCH  12  13
ENDBRANCH  11  12
ENDBRANCH   1  11
TORSDOF 5
ENDMDL
MODEL      743
REMARK  Name = ZINC000001393686
REMARK                            x       y       z     vdW  Elec       q    Type
REMARK                         _______ _______ _______ _____ _____    ______ ____
ROOT
ATOM      1  C   LIG    1       -0.018   1.503   0.010  0.00  0.00    +0.180 C 
ATOM      2  C   LIG    1        0.002  -0.004   0.002  0.00  0.00    +0.170 A 
ATOM      3  C   LIG    1        0.008  -0.786  -1.096  0.00  0.00    -0.250 A 
ATOM      4  C   LIG    1        0.029  -2.136  -0.674  0.00  0.00    +0.550 A 
ATOM      5  N   LIG    1        0.035  -2.142   0.675  0.00  0.00    -0.410 N 
ATOM      6  C   LIG    1        0.057  -3.328   1.534  0.00  0.00    +0.370 C 
ATOM      7  O   LIG    1        0.040  -3.116  -1.397  0.00  0.00    -0.520 OA
ATOM      8  N   LIG    1        0.024  -0.808   1.106  0.00  0.00    -0.730 N 
ENDROOT
BRANCH   8   9
ATOM      9  S   LIG    1        0.026  -0.297   2.681  0.00  0.00    +2.600 S 
ATOM     10  O   LIG    1        0.507   1.039   2.615  0.00  0.00    -0.910 OA
ATOM     11  O   LIG    1        0.750  -1.303   3.375  0.00  0.00    -0.920 OA
ATOM     12  C   LIG    1       -1.722  -0.320   3.167  0.00  0.00    -0.230 C 
ENDBRANCH   8   9
BRANCH   3  13
ATOM     13  C   LIG    1       -0.005  -0.306  -2.525  0.00  0.00    +0.130 C 
BRANCH  13  14
ATOM     14  C   LIG    1        1.429  -0.242  -3.054  0.00  0.00    +0.180 C 
BRANCH  14  15
ATOM     15  O   LIG    1        1.417   0.213  -4.409  0.00  0.00    -0.570 OA
ATOM     16  H   LIG    1        2.294   0.278  -4.810  0.00  0.00    +0.380 HD
ENDBRANCH  14  15
ENDBRANCH  13  14
ENDBRANCH   3  13
TORSDOF 4
ENDMDL
MODEL      744
REMARK  Name = ZINC000040412777
REMARK                            x       y       z     vdW  Elec       q    Type
REMARK                         _______ _______ _______ _____ _____    ______ ____
ROOT
ATOM      1  N   LIG    1        1.489  -4.009   2.408  0.00  0.00    -0.730 N 
ATOM      2  H   LIG    1        1.083  -4.539   1.704  0.00  0.00    +0.400 HD
ATOM      3  C   LIG    1        2.107  -4.618   3.438  0.00  0.00    +0.510 C 
ATOM      4  O   LIG    1        2.615  -3.955   4.318  0.00  0.00    -0.520 OA
ENDROOT
BRANCH   3   5
ATOM      5  C   LIG    1        2.168  -6.122   3.498  0.00  0.00    +0.230 C 
ATOM      6  C   LIG    1        3.311  -6.647   2.601  0.00  0.00    +0.070 C 
ATOM      7  C   LIG    1        3.818  -7.861   3.414  0.00  0.00    +0.060 C 
ATOM      8  C   LIG    1        3.423  -7.544   4.840  0.00  0.00    +0.520 C 
ATOM      9  O   LIG    1        3.871  -8.093   5.824  0.00  0.00    -0.520 OA
ATOM     10  N   LIG    1        2.500  -6.564   4.858  0.00  0.00    -0.710 N 
ATOM     11  H   LIG    1        2.108  -6.196   5.665  0.00  0.00    +0.420 HD
ENDBRANCH   3   5
BRANCH   1  12
ATOM     12  C   LIG    1        1.430  -2.546   2.350  0.00  0.00    +0.290 C 
BRANCH  12  13
ATOM     13  C   LIG    1        0.679  -2.115   1.088  0.00  0.00    +0.110 C 
BRANCH  13  14
ATOM     14  C   LIG    1        0.618  -0.611   1.029  0.00  0.00    +0.460 C 
ATOM     15  O   LIG    1        1.124   0.049   1.905  0.00  0.00    -0.500 OA
BRANCH  14  17
ATOM     16  C   LIG    1       -0.018   1.448   0.010  0.00  0.00    +0.270 C 
ATOM     17  O   LIG    1        0.002  -0.004   0.002  0.00  0.00    -0.360 OA
ENDBRANCH  14  17
ENDBRANCH  13  14
ENDBRANCH  12  13
ENDBRANCH   1  12
TORSDOF 5
ENDMDL
MODEL      745
REMARK  Name = ZINC000005705938
REMARK                            x       y       z     vdW  Elec       q    Type
REMARK                         _______ _______ _______ _____ _____    ______ ____
ROOT
ATOM      1  C   LIG    1       -0.019   1.526   0.010  0.00  0.00    +0.070 C 
ATOM      2  C   LIG    1        0.002  -0.004   0.002  0.00  0.00    +0.250 C 
ATOM      3  O   LIG    1        0.684  -0.469  -1.169  0.00  0.00    -0.360 OA
ATOM      4  C   LIG    1        1.796  -1.276  -0.737  0.00  0.00    +0.360 C 
ATOM      5  O   LIG    1        2.951  -0.427  -0.597  0.00  0.00    -0.360 OA
ATOM      6  C   LIG    1        3.740  -0.934   0.489  0.00  0.00    +0.120 C 
ATOM      7  C   LIG    1        2.791  -1.695   1.432  0.00  0.00    +0.180 C 
ATOM      8  C   LIG    1        1.407  -1.660   0.725  0.00  0.00    +0.160 C 
ATOM      9  C   LIG    1       -1.432  -0.537   0.004  0.00  0.00    +0.050 C 
ATOM     10  O   LIG    1        0.696  -0.483   1.165  0.00  0.00    -0.350 OA
ENDROOT
BRANCH   7  11
ATOM     11  O   LIG    1        3.222  -3.049   1.586  0.00  0.00    -0.550 OA
ATOM     12  H   LIG    1        4.102  -3.140   1.976  0.00  0.00    +0.390 HD
ENDBRANCH   7  11
BRANCH   6  13
ATOM     13  C   LIG    1        4.400   0.226   1.237  0.00  0.00    +0.230 C 
BRANCH  13  14
ATOM     14  O   LIG    1        5.156  -0.285   2.337  0.00  0.00    -0.540 OA
ATOM     15  H   LIG    1        5.860  -0.896   2.080  0.00  0.00    +0.370 HD
ENDBRANCH  13  14
BRANCH  13  16
ATOM     16  C   LIG    1        5.330   0.983   0.287  0.00  0.00    +0.170 C 
BRANCH  16  17
ATOM     17  O   LIG    1        5.856   2.133   0.951  0.00  0.00    -0.560 OA
ATOM     18  H   LIG    1        6.456   2.662   0.406  0.00  0.00    +0.380 HD
ENDBRANCH  16  17
ENDBRANCH  13  16
ENDBRANCH   6  13
TORSDOF 5
ENDMDL
MODEL      746
REMARK  Name = ZINC000013479702
REMARK                            x       y       z     vdW  Elec       q    Type
REMARK                         _______ _______ _______ _____ _____    ______ ____
ROOT
ATOM      1  N   LIG    1        1.398  -2.528   2.296  0.00  0.00    -0.630 N 
ATOM      2  C   LIG    1        1.061  -2.257   3.592  0.00  0.00    +0.740 C 
ATOM      3  N   LIG    1        2.105  -2.497   4.456  0.00  0.00    -0.720 N 
ATOM      4  H   LIG    1        2.072  -2.603   5.420  0.00  0.00    +0.430 HD
ATOM      5  C   LIG    1        3.230  -2.552   3.616  0.00  0.00    +0.390 C 
ATOM      6  N   LIG    1        4.565  -2.978   3.568  0.00  0.00    -0.720 N 
ATOM      7  H   LIG    1        5.150  -3.179   4.314  0.00  0.00    +0.430 HD
ATOM      8  C   LIG    1        4.858  -3.049   2.229  0.00  0.00    +0.730 C 
ATOM      9  N   LIG    1        3.735  -2.993   1.453  0.00  0.00    -0.750 N 
ATOM     10  H   LIG    1        3.686  -2.799   0.504  0.00  0.00    +0.430 HD
ATOM     11  O   LIG    1        5.986  -3.149   1.785  0.00  0.00    -0.530 OA
ATOM     12  O   LIG    1       -0.031  -1.853   3.941  0.00  0.00    -0.520 OA
ATOM     13  C   LIG    1        2.626  -3.322   2.368  0.00  0.00    +0.440 C 
ENDROOT
BRANCH   1  14
ATOM     14  C   LIG    1        0.679  -2.115   1.088  0.00  0.00    +0.320 C 
ATOM     15  C   LIG    1       -0.742  -2.682   1.123  0.00  0.00    +0.080 C 
BRANCH  14  16
ATOM     16  C   LIG    1        0.618  -0.611   1.029  0.00  0.00    +0.450 C 
ATOM     17  O   LIG    1        1.124   0.049   1.905  0.00  0.00    -0.490 OA
BRANCH  16  19
ATOM     18  C   LIG    1       -0.018   1.448   0.010  0.00  0.00    +0.280 C 
ATOM     19  O   LIG    1        0.002  -0.004   0.002  0.00  0.00    -0.350 OA
ENDBRANCH  16  19
ENDBRANCH  14  16
ENDBRANCH   1  14
TORSDOF 3
ENDMDL
MODEL      747
REMARK  Name = ZINC000013479700
REMARK                            x       y       z     vdW  Elec       q    Type
REMARK                         _______ _______ _______ _____ _____    ______ ____
ROOT
ATOM      1  N   LIG    1        1.398  -2.528   2.296  0.00  0.00    -0.620 N 
ATOM      2  C   LIG    1        1.032  -2.240   3.551  0.00  0.00    +0.710 C 
ATOM      3  N   LIG    1        1.857  -2.732   4.484  0.00  0.00    -0.740 N 
ATOM      4  H   LIG    1        1.750  -2.623   5.442  0.00  0.00    +0.430 HD
ATOM      5  C   LIG    1        2.952  -3.463   3.830  0.00  0.00    +0.480 C 
ATOM      6  N   LIG    1        2.815  -4.901   4.097  0.00  0.00    -0.740 N 
ATOM      7  H   LIG    1        2.953  -5.327   4.957  0.00  0.00    +0.440 HD
ATOM      8  C   LIG    1        2.470  -5.531   2.967  0.00  0.00    +0.710 C 
ATOM      9  N   LIG    1        2.341  -4.720   1.910  0.00  0.00    -0.740 N 
ATOM     10  H   LIG    1        2.099  -5.001   1.014  0.00  0.00    +0.430 HD
ATOM     11  O   LIG    1        2.291  -6.732   2.906  0.00  0.00    -0.570 OA
ATOM     12  O   LIG    1        0.040  -1.591   3.820  0.00  0.00    -0.550 OA
ATOM     13  C   LIG    1        2.631  -3.327   2.319  0.00  0.00    +0.480 C 
ENDROOT
BRANCH   1  14
ATOM     14  C   LIG    1        0.679  -2.115   1.088  0.00  0.00    +0.320 C 
ATOM     15  C   LIG    1       -0.742  -2.682   1.123  0.00  0.00    +0.080 C 
BRANCH  14  16
ATOM     16  C   LIG    1        0.618  -0.611   1.029  0.00  0.00    +0.450 C 
ATOM     17  O   LIG    1        1.124   0.049   1.905  0.00  0.00    -0.480 OA
BRANCH  16  19
ATOM     18  C   LIG    1       -0.018   1.448   0.010  0.00  0.00    +0.260 C 
ATOM     19  O   LIG    1        0.002  -0.004   0.002  0.00  0.00    -0.360 OA
ENDBRANCH  16  19
ENDBRANCH  14  16
ENDBRANCH   1  14
TORSDOF 3
ENDMDL
MODEL      748
REMARK  Name = ZINC000003116893
REMARK                            x       y       z     vdW  Elec       q    Type
REMARK                         _______ _______ _______ _____ _____    ______ ____
ROOT
ATOM      1  C   LIG    1       -1.254  -0.752   0.010  0.00  0.00    -0.340 A 
ATOM      2  C   LIG    1       -1.259  -2.138   0.008  0.00  0.00    +0.420 A 
ATOM      3  N   LIG    1       -2.445  -2.797   0.016  0.00  0.00    -0.370 N 
ATOM      4  C   LIG    1       -3.614  -2.139   0.025  0.00  0.00    +0.710 A 
ATOM      5  N   LIG    1       -3.681  -0.796   0.027  0.00  0.00    -0.650 N 
ATOM      6  H   LIG    1       -4.545  -0.357   0.034  0.00  0.00    +0.440 HD
ATOM      7  O   LIG    1       -4.648  -2.778   0.031  0.00  0.00    -0.510 OA
ATOM      8  C   LIG    1       -2.553  -0.055   0.026  0.00  0.00    +0.560 A 
ATOM      9  O   LIG    1       -2.606   1.160   0.028  0.00  0.00    -0.490 OA
ENDROOT
BRANCH   3  10
ATOM     10  N   LIG    1       -2.449  -4.163   0.015  0.00  0.00    -0.280 N 
ATOM     11  C   LIG    1       -1.080  -4.694   0.092  0.00  0.00    +0.160 C 
ATOM     12  C   LIG    1       -1.134  -6.223   0.148  0.00  0.00    +0.260 C 
ATOM     13  O   LIG    1       -1.841  -6.713  -0.994  0.00  0.00    -0.380 OA
ATOM     14  C   LIG    1       -3.178  -6.216  -1.101  0.00  0.00    +0.250 C 
ATOM     15  C   LIG    1       -3.145  -4.687  -1.170  0.00  0.00    +0.160 C 
ENDBRANCH   3  10
BRANCH   1  17
ATOM     16  C   LIG    1       -0.018   1.503   0.010  0.00  0.00    +0.100 C 
ATOM     17  C   LIG    1        0.002  -0.004   0.002  0.00  0.00    +0.430 C 
ATOM     18  O   LIG    1        1.061  -0.597  -0.011  0.00  0.00    -0.470 OA
ENDBRANCH   1  17
TORSDOF 2
ENDMDL
MODEL      749
REMARK  Name = ZINC000035126919
REMARK                            x       y       z     vdW  Elec       q    Type
REMARK                         _______ _______ _______ _____ _____    ______ ____
ROOT
ATOM      1  N   LIG    1       -2.542  -2.619  -0.064  0.00  0.00    -0.530 NA
ATOM      2  C   LIG    1       -3.370  -1.827   0.857  0.00  0.00    +0.210 C 
ATOM      3  C   LIG    1       -4.833  -2.252   0.715  0.00  0.00    +0.260 C 
ATOM      4  N   LIG    1       -4.960  -3.683   1.023  0.00  0.00    -0.360 N 
ATOM      5  C   LIG    1       -4.147  -4.462   0.080  0.00  0.00    +0.280 C 
ATOM      6  H   LIG    1       -4.639  -3.854   1.964  0.00  0.00    +0.420 HD
ATOM      7  C   LIG    1       -2.678  -4.056   0.216  0.00  0.00    +0.220 C 
ENDROOT
BRANCH   1   8
ATOM      8  C   LIG    1       -1.135  -2.201   0.001  0.00  0.00    +0.220 C 
BRANCH   8  11
ATOM      9  C   LIG    1        1.722  -3.344  -2.275  0.00  0.00    +0.290 C 
ATOM     10  N   LIG    1        0.973  -2.711  -1.187  0.00  0.00    -0.620 N 
ATOM     11  C   LIG    1       -0.365  -2.852  -1.119  0.00  0.00    +0.510 C 
ATOM     12  O   LIG    1       -0.950  -3.502  -1.959  0.00  0.00    -0.520 OA
ATOM     13  C   LIG    1        1.680  -1.925  -0.172  0.00  0.00    +0.280 C 
ENDBRANCH   8  11
ENDBRANCH   1   8
BRANCH   4  14
ATOM     14  C   LIG    1       -6.367  -4.087   0.904  0.00  0.00    +0.160 C 
BRANCH  14  15
ATOM     15  C   LIG    1       -6.516  -5.522   1.338  0.00  0.00    +0.490 C 
ATOM     16  O   LIG    1       -7.613  -6.055   1.316  0.00  0.00    -0.640 OA
ATOM     17  O   LIG    1       -5.541  -6.151   1.712  0.00  0.00    -0.670 OA
ENDBRANCH  14  15
ENDBRANCH   4  14
TORSDOF 4
ENDMDL
MODEL      750
REMARK  Name = ZINC000044874750
REMARK                            x       y       z     vdW  Elec       q    Type
REMARK                         _______ _______ _______ _____ _____    ______ ____
ROOT
ATOM      1  N   LIG    1        0.038  -2.771  -2.521  0.00  0.00    -0.291 NA
ATOM      2  C   LIG    1       -0.895  -2.074  -3.416  0.00  0.00    +0.102 C 
ATOM      3  C   LIG    1       -0.716  -2.598  -4.845  0.00  0.00    +0.124 C 
ATOM      4  N   LIG    1       -0.850  -4.063  -4.825  0.00  0.00    -0.179 NA
ATOM      5  C   LIG    1       -0.045  -4.822  -3.856  0.00  0.00    +0.124 C 
ATOM      6  C   LIG    1       -0.250  -4.210  -2.466  0.00  0.00    +0.102 C 
ENDROOT
BRANCH   4   7
ATOM      7  S   LIG    1       -1.879  -4.836  -5.866  0.00  0.00    +0.029 S 
ATOM      8  O   LIG    1       -2.872  -3.864  -6.165  0.00  0.00    -0.158 OA
ATOM      9  O   LIG    1       -2.215  -6.043  -5.195  0.00  0.00    -0.158 OA
ATOM     10  C   LIG    1       -0.866  -5.182  -7.331  0.00  0.00    +0.215 C 
ENDBRANCH   4   7
BRANCH   1  11
ATOM     11  C   LIG    1        0.021  -2.178  -1.177  0.00  0.00    +0.180 C 
BRANCH  11  14
ATOM     12  C   LIG    1       -3.008  -1.775   1.129  0.00  0.00    +0.131 C 
ATOM     13  N   LIG    1       -1.655  -1.686   0.575  0.00  0.00    -0.307 N 
ATOM     14  C   LIG    1       -1.371  -2.270  -0.606  0.00  0.00    +0.229 C 
ATOM     15  O   LIG    1       -2.236  -2.869  -1.210  0.00  0.00    -0.274 OA
ATOM     16  C   LIG    1       -0.611  -0.962   1.304  0.00  0.00    +0.131 C 
ENDBRANCH  11  14
ENDBRANCH   1  11
TORSDOF 3
ENDMDL
MODEL      751
REMARK  Name = ZINC000047470464
REMARK                            x       y       z     vdW  Elec       q    Type
REMARK                         _______ _______ _______ _____ _____    ______ ____
ROOT
ATOM      1  N   LIG    1        0.014  -2.659  -2.561  0.00  0.00    -0.305 N 
ATOM      2  H   LIG    1       -0.002  -2.025  -3.295  0.00  0.00    +0.149 HD
ATOM      3  C   LIG    1        0.030  -3.983  -2.814  0.00  0.00    +0.231 C 
ATOM      4  O   LIG    1        0.049  -4.776  -1.897  0.00  0.00    -0.274 OA
ENDROOT
BRANCH   1   5
ATOM      5  C   LIG    1        0.021  -2.178  -1.177  0.00  0.00    +0.200 C 
BRANCH   5   8
ATOM      6  C   LIG    1       -0.018   1.461   0.010  0.00  0.00    +0.131 C 
ATOM      7  N   LIG    1        0.002  -0.004   0.002  0.00  0.00    -0.306 N 
ATOM      8  C   LIG    1        0.000  -0.672  -1.169  0.00  0.00    +0.232 C 
ATOM      9  O   LIG    1       -0.018  -0.060  -2.216  0.00  0.00    -0.274 OA
ATOM     10  C   LIG    1        0.024  -0.743   1.267  0.00  0.00    +0.131 C 
ENDBRANCH   5   8
ENDBRANCH   1   5
BRANCH   3  11
ATOM     11  C   LIG    1        0.023  -4.478  -4.238  0.00  0.00    +0.200 C 
BRANCH  11  12
ATOM     12  N   LIG    1        0.043  -5.942  -4.246  0.00  0.00    -0.306 N 
ATOM     13  H   LIG    1        0.057  -6.432  -3.409  0.00  0.00    +0.149 HD
ATOM     14  C   LIG    1        0.041  -6.610  -5.417  0.00  0.00    +0.217 C 
ATOM     15  O   LIG    1        0.022  -5.998  -6.464  0.00  0.00    -0.276 OA
BRANCH  14  16
ATOM     16  C   LIG    1        0.061  -8.117  -5.425  0.00  0.00    +0.075 C 
ATOM     17  C   LIG    1       -1.198  -8.838  -5.912  0.00  0.00    +0.013 C 
ATOM     18  C   LIG    1        0.058  -8.816  -6.786  0.00  0.00    +0.013 C 
ENDBRANCH  14  16
ENDBRANCH  11  12
ENDBRANCH   3  11
TORSDOF 5
ENDMDL
MODEL      752
REMARK  Name = ZINC000002040854
REMARK                            x       y       z     vdW  Elec       q    Type
REMARK                         _______ _______ _______ _____ _____    ______ ____
ROOT
ATOM      1  CA  HIS A  1       -4.809   1.563   3.896  0.00  0.00    +0.192 C 
ENDROOT
BRANCH   1   3
ATOM      2  C   UNK A  0       -2.840   1.435   2.467  0.00  0.00    +0.219 C 
ATOM      3  N   HIS A  1       -4.124   1.091   2.691  0.00  0.00    -0.302 N 
ATOM      4  H   HIS A  1       -4.593   0.530   2.054  0.00  0.00    +0.150 HD
ATOM      5  O   UNK A  0       -2.252   2.136   3.264  0.00  0.00    -0.276 OA
BRANCH   2   6
ATOM      6  C   UNK A  0       -2.135   0.949   1.227  0.00  0.00    +0.146 C 
BRANCH   6   7
ATOM      7  C   UNK A  0       -0.699   1.479   1.216  0.00  0.00    +0.137 C 
BRANCH   7   8
ATOM      8  N   UNK A  0       -0.012   1.005   0.008  0.00  0.00    +0.219 N 
ATOM      9  H   UNK A  0       -0.500   1.339  -0.810  0.00  0.00    +0.199 HD
ATOM     10  H   UNK A  0        0.935   1.354   0.000  0.00  0.00    +0.199 HD
ATOM     11  H   UNK A  0        0.002  -0.004   0.002  0.00  0.00    +0.199 HD
ENDBRANCH   7   8
ENDBRANCH   6   7
ENDBRANCH   2   6
ENDBRANCH   1   3
BRANCH   1  12
ATOM     12  C   HIS A  1       -4.511   0.631   5.042  0.00  0.00    +0.376 C 
ATOM     13  OXT HIS A  1       -4.294  -0.549   4.827  0.00  0.00    -0.244 OA
ATOM     14  O   HIS A  1       -4.486   1.057   6.184  0.00  0.00    -0.244 OA
ENDBRANCH   1  12
BRANCH   1  15
ATOM     15  CB  HIS A  1       -6.318   1.596   3.645  0.00  0.00    +0.090 C 
BRANCH  15  16
ATOM     16  CG  HIS A  1       -6.629   2.619   2.583  0.00  0.00    +0.061 A 
ATOM     17  CD2 HIS A  1       -7.313   2.395   1.444  0.00  0.00    +0.107 A 
ATOM     18  NE2 HIS A  1       -7.365   3.587   0.773  0.00  0.00    -0.351 N 
ATOM     19  HE2 HIS A  1       -7.793   3.747  -0.083  0.00  0.00    +0.166 HD
ATOM     20  CE1 HIS A  1       -6.710   4.497   1.524  0.00  0.00    +0.196 A 
ATOM     21  ND1 HIS A  1       -6.277   3.913   2.608  0.00  0.00    -0.241 NA
ENDBRANCH  15  16
ENDBRANCH   1  15
TORSDOF 7
ENDMDL
MODEL      753
REMARK  Name = ZINC000001637973
REMARK                            x       y       z     vdW  Elec       q    Type
REMARK                         _______ _______ _______ _____ _____    ______ ____
ROOT
ATOM      1  C   LIG    1       -2.840   1.435   2.467  0.00  0.00    +0.218 C 
ATOM      2  N   LIG    1       -4.124   1.091   2.691  0.00  0.00    -0.307 N 
ATOM      3  H   LIG    1       -4.593   0.530   2.054  0.00  0.00    +0.149 HD
ATOM      4  O   LIG    1       -2.252   2.136   3.264  0.00  0.00    -0.276 OA
ENDROOT
BRANCH   1   5
ATOM      5  C   LIG    1       -2.135   0.949   1.227  0.00  0.00    +0.146 C 
BRANCH   5   6
ATOM      6  C   LIG    1       -0.699   1.479   1.216  0.00  0.00    +0.137 C 
BRANCH   6   7
ATOM      7  N   LIG    1       -0.012   1.005   0.008  0.00  0.00    +0.219 N 
ATOM      8  H   LIG    1       -0.500   1.339  -0.810  0.00  0.00    +0.199 HD
ATOM      9  H   LIG    1        0.935   1.354   0.000  0.00  0.00    +0.199 HD
ATOM     10  H   LIG    1        0.002  -0.004   0.002  0.00  0.00    +0.199 HD
ENDBRANCH   6   7
ENDBRANCH   5   6
ENDBRANCH   1   5
BRANCH   2  11
ATOM     11  C   LIG    1       -4.809   1.563   3.896  0.00  0.00    +0.200 C 
BRANCH  11  12
ATOM     12  C   LIG    1       -6.223   1.042   3.907  0.00  0.00    +0.231 C 
ATOM     13  N   LIG    1       -7.048   1.350   4.927  0.00  0.00    -0.303 N 
ATOM     14  H   LIG    1       -6.731   1.908   5.655  0.00  0.00    +0.149 HD
ATOM     15  O   LIG    1       -6.619   0.344   2.997  0.00  0.00    -0.274 OA
BRANCH  13  16
ATOM     16  C   LIG    1       -8.422   0.843   4.938  0.00  0.00    +0.229 C 
BRANCH  16  17
ATOM     17  C   LIG    1       -9.127   1.329   6.177  0.00  0.00    +0.373 C 
ATOM     18  O   LIG    1      -10.289   1.018   6.380  0.00  0.00    -0.245 OA
ATOM     19  O   LIG    1       -8.537   2.034   6.978  0.00  0.00    -0.245 OA
ENDBRANCH  16  17
ENDBRANCH  13  16
ENDBRANCH  11  12
ENDBRANCH   2  11
TORSDOF 7
ENDMDL
MODEL      754
REMARK  Name = ZINC000029723410
REMARK                            x       y       z     vdW  Elec       q    Type
REMARK                         _______ _______ _______ _____ _____    ______ ____
ROOT
ATOM      1  N   LIG    1        0.889  -2.811  -0.068  0.00  0.00    -0.297 N 
ATOM      2  H   LIG    1        0.963  -2.037  -0.649  0.00  0.00    +0.151 HD
ATOM      3  C   LIG    1        0.849  -4.050  -0.597  0.00  0.00    +0.301 C 
ATOM      4  N   LIG    1        0.911  -4.214  -1.933  0.00  0.00    -0.281 N 
ATOM      5  H   LIG    1        0.984  -3.441  -2.514  0.00  0.00    +0.151 HD
ATOM      6  O   LIG    1        0.756  -5.019   0.131  0.00  0.00    -0.253 OA
ENDROOT
BRANCH   1   7
ATOM      7  C   LIG    1        0.822  -2.631   1.384  0.00  0.00    +0.071 C 
ATOM      8  C   LIG    1       -0.642  -2.615   1.829  0.00  0.00    +0.028 C 
BRANCH   7   9
ATOM      9  C   LIG    1        1.486  -1.307   1.766  0.00  0.00    +0.022 C 
BRANCH   9  11
ATOM     10  C   LIG    1        3.643  -0.047   1.817  0.00  0.00    +0.004 C 
ATOM     11  C   LIG    1        2.978  -1.371   1.435  0.00  0.00    -0.002 C 
ENDBRANCH   9  11
ENDBRANCH   7   9
ENDBRANCH   1   7
BRANCH   4  12
ATOM     12  C   LIG    1        0.867  -5.561  -2.508  0.00  0.00    +0.246 C 
BRANCH  12  13
ATOM     13  C   LIG    1        1.541  -5.554  -3.856  0.00  0.00    +0.240 C 
ATOM     14  O   LIG    1        1.621  -4.523  -4.489  0.00  0.00    -0.273 OA
ATOM     15  N   LIG    1        2.055  -6.694  -4.358  0.00  0.00    -0.327 N 
ATOM     16  H   LIG    1        2.426  -6.706  -5.254  0.00  0.00    +0.145 HD
ATOM     17  H   LIG    1        2.055  -7.503  -3.823  0.00  0.00    +0.145 HD
ENDBRANCH  12  13
BRANCH  12  18
ATOM     18  C   LIG    1       -0.568  -5.993  -2.667  0.00  0.00    +0.240 C 
ATOM     19  O   LIG    1       -1.442  -5.161  -2.793  0.00  0.00    -0.273 OA
ATOM     20  N   LIG    1       -0.881  -7.304  -2.667  0.00  0.00    -0.327 N 
ATOM     21  H   LIG    1       -1.793  -7.585  -2.841  0.00  0.00    +0.145 HD
ATOM     22  H   LIG    1       -0.194  -7.967  -2.494  0.00  0.00    +0.145 HD
ENDBRANCH  12  18
ENDBRANCH   4  12
TORSDOF 6
ENDMDL
MODEL      755
REMARK  Name = ZINC000025626227
REMARK                            x       y       z     vdW  Elec       q    Type
REMARK                         _______ _______ _______ _____ _____    ______ ____
ROOT
ATOM      1  C   LIG    1       -0.019   1.526   0.010  0.00  0.00    +0.040 C 
ATOM      2  C   LIG    1        0.002  -0.004   0.002  0.00  0.00    +0.250 C 
ATOM      3  O   LIG    1        0.771  -0.491  -1.119  0.00  0.00    -0.360 OA
ATOM      4  C   LIG    1        2.141  -0.322  -0.716  0.00  0.00    +0.340 C 
ATOM      5  O   LIG    1        2.911  -1.469  -1.180  0.00  0.00    -0.330 OA
ATOM      6  C   LIG    1        3.799  -1.729  -0.125  0.00  0.00    +0.140 C 
ATOM      7  C   LIG    1        4.488  -3.048   0.142  0.00  0.00    +0.200 C 
ATOM      8  C   LIG    1        4.461  -3.125   1.699  0.00  0.00    +0.320 C 
ATOM      9  O   LIG    1        3.695  -1.969   2.159  0.00  0.00    -0.370 OA
ATOM     10  C   LIG    1        2.805  -1.731   1.100  0.00  0.00    +0.130 C 
ATOM     11  C   LIG    1        2.099  -0.389   0.849  0.00  0.00    +0.170 C 
ATOM     12  C   LIG    1       -1.424  -0.556  -0.046  0.00  0.00    +0.110 C 
ATOM     13  O   LIG    1        0.696  -0.504   1.163  0.00  0.00    -0.350 OA
ENDROOT
BRANCH   8  14
ATOM     14  O   LIG    1        5.792  -3.069   2.216  0.00  0.00    -0.530 OA
ATOM     15  H   LIG    1        5.842  -3.112   3.180  0.00  0.00    +0.390 HD
ENDBRANCH   8  14
BRANCH   7  16
ATOM     16  O   LIG    1        5.830  -3.028  -0.347  0.00  0.00    -0.530 OA
ATOM     17  H   LIG    1        6.315  -3.852  -0.199  0.00  0.00    +0.390 HD
ENDBRANCH   7  16
TORSDOF 2
ENDMDL
MODEL      756
REMARK  Name = ZINC000008583964
REMARK                            x       y       z     vdW  Elec       q    Type
REMARK                         _______ _______ _______ _____ _____    ______ ____
ROOT
ATOM      1  CA  HIS A  1       -4.809   1.563   3.896  0.00  0.00    +0.192 C 
ENDROOT
BRANCH   1   3
ATOM      2  C   UNK A  0       -2.840   1.435   2.467  0.00  0.00    +0.219 C 
ATOM      3  N   HIS A  1       -4.124   1.091   2.691  0.00  0.00    -0.302 N 
ATOM      4  H   HIS A  1       -4.593   0.530   2.054  0.00  0.00    +0.150 HD
ATOM      5  O   UNK A  0       -2.252   2.136   3.264  0.00  0.00    -0.276 OA
BRANCH   2   6
ATOM      6  C   UNK A  0       -2.135   0.949   1.227  0.00  0.00    +0.146 C 
BRANCH   6   7
ATOM      7  C   UNK A  0       -0.699   1.479   1.216  0.00  0.00    +0.137 C 
BRANCH   7   8
ATOM      8  N   UNK A  0       -0.012   1.005   0.008  0.00  0.00    +0.219 N 
ATOM      9  H   UNK A  0       -0.500   1.339  -0.810  0.00  0.00    +0.199 HD
ATOM     10  H   UNK A  0        0.935   1.354   0.000  0.00  0.00    +0.199 HD
ATOM     11  H   UNK A  0        0.002  -0.004   0.002  0.00  0.00    +0.199 HD
ENDBRANCH   7   8
ENDBRANCH   6   7
ENDBRANCH   2   6
ENDBRANCH   1   3
BRANCH   1  12
ATOM     12  C   HIS A  1       -5.373   2.939   3.647  0.00  0.00    +0.376 C 
ATOM     13  OXT HIS A  1       -5.823   3.590   4.574  0.00  0.00    -0.244 OA
ATOM     14  O   HIS A  1       -5.378   3.400   2.518  0.00  0.00    -0.244 OA
ENDBRANCH   1  12
BRANCH   1  15
ATOM     15  CB  HIS A  1       -5.947   0.602   4.245  0.00  0.00    +0.090 C 
BRANCH  15  16
ATOM     16  CG  HIS A  1       -5.373  -0.742   4.614  0.00  0.00    +0.061 A 
ATOM     17  CD2 HIS A  1       -5.606  -1.416   5.757  0.00  0.00    +0.107 A 
ATOM     18  NE2 HIS A  1       -4.894  -2.582   5.681  0.00  0.00    -0.351 N 
ATOM     19  HE2 HIS A  1       -4.859  -3.280   6.354  0.00  0.00    +0.166 HD
ATOM     20  CE1 HIS A  1       -4.251  -2.582   4.494  0.00  0.00    +0.196 A 
ATOM     21  ND1 HIS A  1       -4.546  -1.480   3.859  0.00  0.00    -0.241 NA
ENDBRANCH  15  16
ENDBRANCH   1  15
TORSDOF 7
ENDMDL
MODEL      757
REMARK  Name = ZINC000046033857
REMARK                            x       y       z     vdW  Elec       q    Type
REMARK                         _______ _______ _______ _____ _____    ______ ____
ROOT
ATOM      1  S   LIG    1        0.404  -4.234  -2.892  0.00  0.00    +2.730 S 
ATOM      2  O   LIG    1        1.607  -4.506  -2.188  0.00  0.00    -0.960 OA
ATOM      3  O   LIG    1        0.272  -4.393  -4.298  0.00  0.00    -0.950 OA
ENDROOT
BRANCH   1   4
ATOM      4  C   LIG    1       -0.840  -5.245  -2.159  0.00  0.00    -0.820 A 
ATOM      5  C   LIG    1       -0.821  -5.746  -0.902  0.00  0.00    +0.360 A 
ATOM      6  N   LIG    1       -1.950  -6.463  -0.728  0.00  0.00    -0.360 N 
ATOM      7  N   LIG    1       -2.689  -6.400  -1.916  0.00  0.00    -0.290 NA
ATOM      8  C   LIG    1       -2.336  -7.180   0.490  0.00  0.00    +0.380 C 
ATOM      9  C   LIG    1       -2.026  -5.665  -2.771  0.00  0.00    +0.340 A 
ENDBRANCH   1   4
BRANCH   1  10
ATOM     10  N   LIG    1        0.014  -2.659  -2.561  0.00  0.00    -1.110 NA
ATOM     11  H   LIG    1       -0.219  -2.055  -3.283  0.00  0.00    +0.430 HD
BRANCH  10  12
ATOM     12  C   LIG    1        0.021  -2.178  -1.177  0.00  0.00    +0.300 C 
BRANCH  12  15
ATOM     13  C   LIG    1       -0.018   1.461   0.010  0.00  0.00    +0.290 C 
ATOM     14  N   LIG    1        0.002  -0.004   0.002  0.00  0.00    -0.620 N 
ATOM     15  C   LIG    1        0.000  -0.672  -1.169  0.00  0.00    +0.510 C 
ATOM     16  O   LIG    1       -0.018  -0.060  -2.216  0.00  0.00    -0.530 OA
ATOM     17  C   LIG    1        0.024  -0.743   1.267  0.00  0.00    +0.290 C 
ENDBRANCH  12  15
ENDBRANCH  10  12
ENDBRANCH   1  10
TORSDOF 4
ENDMDL
MODEL      758
REMARK  Name = ZINC000039945899
REMARK                            x       y       z     vdW  Elec       q    Type
REMARK                         _______ _______ _______ _____ _____    ______ ____
ROOT
ATOM      1  C   LIG    1       -0.019   1.526   0.010  0.00  0.00    +0.060 C 
ATOM      2  C   LIG    1        0.002  -0.004   0.002  0.00  0.00    +0.250 C 
ATOM      3  O   LIG    1        0.689  -0.472  -1.175  0.00  0.00    -0.390 OA
ATOM      4  C   LIG    1        1.399  -1.640  -0.726  0.00  0.00    +0.360 C 
ATOM      5  O   LIG    1        2.484  -1.975  -1.560  0.00  0.00    -0.330 OA
ATOM      6  C   LIG    1        3.534  -1.013  -1.655  0.00  0.00    +0.140 C 
ATOM      7  C   LIG    1        4.110  -0.791  -0.251  0.00  0.00    +0.130 C 
ATOM      8  C   LIG    1        2.996  -0.249   0.645  0.00  0.00    +0.180 C 
ATOM      9  C   LIG    1        1.844  -1.233   0.692  0.00  0.00    +0.180 C 
ATOM     10  C   LIG    1       -1.432  -0.537   0.003  0.00  0.00    +0.060 C 
ATOM     11  O   LIG    1        0.695  -0.483   1.163  0.00  0.00    -0.360 OA
ENDROOT
BRANCH   8  12
ATOM     12  O   LIG    1        3.505  -0.051   1.966  0.00  0.00    -0.540 OA
ATOM     13  H   LIG    1        4.241   0.575   2.013  0.00  0.00    +0.380 HD
ENDBRANCH   8  12
BRANCH   7  14
ATOM     14  O   LIG    1        4.590  -2.031   0.274  0.00  0.00    -0.540 OA
ATOM     15  H   LIG    1        5.288  -2.438  -0.257  0.00  0.00    +0.380 HD
ENDBRANCH   7  14
BRANCH   6  16
ATOM     16  C   LIG    1        4.630  -1.536  -2.586  0.00  0.00    +0.210 C 
BRANCH  16  17
ATOM     17  O   LIG    1        4.111  -1.657  -3.912  0.00  0.00    -0.560 OA
ATOM     18  H   LIG    1        4.753  -1.984  -4.557  0.00  0.00    +0.390 HD
ENDBRANCH  16  17
ENDBRANCH   6  16
TORSDOF 4
ENDMDL
MODEL      759
REMARK  Name = ZINC000008659944
REMARK                            x       y       z     vdW  Elec       q    Type
REMARK                         _______ _______ _______ _____ _____    ______ ____
ROOT
ATOM      1  C   LIG    1        2.422   1.183  -0.015  0.00  0.00    +0.250 C 
ATOM      2  C   LIG    1        2.884   0.928   1.423  0.00  0.00    +0.340 C 
ATOM      3  O   LIG    1        3.096   2.178   2.082  0.00  0.00    -0.390 OA
ATOM      4  C   LIG    1        4.103   2.993   1.477  0.00  0.00    +0.150 C 
ATOM      5  C   LIG    1        3.690   3.331   0.042  0.00  0.00    +0.120 C 
ATOM      6  C   LIG    1        3.473   2.030  -0.739  0.00  0.00    +0.180 C 
ENDROOT
BRANCH   1   9
ATOM      7  O   LIG    1        0.599   1.109  -1.999  0.00  0.00    -0.560 OA
ATOM      8  C   LIG    1        0.300   1.794  -1.045  0.00  0.00    +0.630 C 
ATOM      9  N   LIG    1        1.143   1.898   0.001  0.00  0.00    -0.700 N 
ATOM     10  H   LIG    1        0.904   2.447   0.765  0.00  0.00    +0.410 HD
ENDBRANCH   1   9
BRANCH   5  11
ATOM     11  O   LIG    1        2.477   4.086   0.059  0.00  0.00    -0.540 OA
ATOM     12  H   LIG    1        2.542   4.922   0.541  0.00  0.00    +0.380 HD
ENDBRANCH   5  11
BRANCH   2  13
ATOM     13  O   LIG    1        1.882   0.186   2.120  0.00  0.00    -0.540 OA
ATOM     14  H   LIG    1        2.108  -0.012   3.039  0.00  0.00    +0.390 HD
ENDBRANCH   2  13
BRANCH   6  15
ATOM     15  O   LIG    1        4.703   1.306  -0.815  0.00  0.00    -0.550 OA
ATOM     16  H   LIG    1        5.416   1.788  -1.256  0.00  0.00    +0.390 HD
ENDBRANCH   6  15
BRANCH   4  17
ATOM     17  C   LIG    1        4.263   4.286   2.280  0.00  0.00    +0.200 C 
BRANCH  17  18
ATOM     18  O   LIG    1        4.759   3.978   3.584  0.00  0.00    -0.560 OA
ATOM     19  H   LIG    1        4.885   4.752   4.150  0.00  0.00    +0.380 HD
ENDBRANCH  17  18
ENDBRANCH   4  17
TORSDOF 6
ENDMDL
MODEL      760
REMARK  Name = ZINC000089913905
REMARK                            x       y       z     vdW  Elec       q    Type
REMARK                         _______ _______ _______ _____ _____    ______ ____
ROOT
ATOM      1  N   LIG    1        0.711  -0.489   1.189  0.00  0.00    -0.710 N 
ATOM      2  H   LIG    1        1.654  -0.707   1.135  0.00  0.00    +0.410 HD
ATOM      3  C   LIG    1        0.051  -0.633   2.355  0.00  0.00    +0.510 C 
ATOM      4  O   LIG    1       -1.129  -0.361   2.423  0.00  0.00    -0.520 OA
ENDROOT
BRANCH   3   5
ATOM      5  C   LIG    1        0.780  -1.133   3.576  0.00  0.00    +0.230 C 
ATOM      6  C   LIG    1        0.881  -2.670   3.555  0.00  0.00    +0.290 C 
ATOM      7  N   LIG    1        0.152  -3.088   4.762  0.00  0.00    -0.740 N 
ATOM      8  H   LIG    1        0.023  -4.005   5.052  0.00  0.00    +0.430 HD
ATOM      9  C   LIG    1       -0.306  -2.002   5.397  0.00  0.00    +0.700 C 
ATOM     10  O   LIG    1       -0.947  -2.058   6.429  0.00  0.00    -0.580 OA
ATOM     11  N   LIG    1        0.007  -0.844   4.793  0.00  0.00    -0.720 N 
ATOM     12  H   LIG    1       -0.240   0.039   5.109  0.00  0.00    +0.440 HD
ENDBRANCH   3   5
BRANCH   1  14
ATOM     13  C   LIG    1       -0.019   1.526   0.010  0.00  0.00    +0.060 C 
ATOM     14  C   LIG    1        0.002  -0.004   0.002  0.00  0.00    +0.340 C 
BRANCH  14  15
ATOM     15  C   LIG    1        0.707  -0.490  -1.238  0.00  0.00    +0.160 A 
ATOM     16  N   LIG    1        1.995  -0.478  -1.450  0.00  0.00    -0.280 NA
ATOM     17  N   LIG    1        2.247  -0.968  -2.612  0.00  0.00    -0.290 NA
ATOM     18  C   LIG    1        1.131  -1.315  -3.194  0.00  0.00    +0.380 A 
ATOM     19  N   LIG    1        0.123  -1.026  -2.336  0.00  0.00    -0.470 N 
ATOM     20  C   LIG    1       -1.310  -1.242  -2.556  0.00  0.00    +0.350 C 
ENDBRANCH  14  15
ENDBRANCH   1  14
TORSDOF 3
ENDMDL
MODEL      761
REMARK  Name = ZINC000075252947
REMARK                            x       y       z     vdW  Elec       q    Type
REMARK                         _______ _______ _______ _____ _____    ______ ____
ROOT
ATOM      1  C   LIG    1        0.997  -1.850  -1.726  0.00  0.00    +0.440 A 
ATOM      2  N   LIG    1        2.043  -2.493  -1.237  0.00  0.00    -0.620 NA
ATOM      3  C   LIG    1        2.151  -3.810  -1.395  0.00  0.00    +0.640 A 
ATOM      4  N   LIG    1        1.205  -4.479  -2.044  0.00  0.00    -0.650 NA
ATOM      5  C   LIG    1        0.154  -3.829  -2.535  0.00  0.00    +0.640 A 
ATOM      6  N   LIG    1        0.051  -2.513  -2.368  0.00  0.00    -0.620 NA
ENDROOT
BRANCH   5   7
ATOM      7  N   LIG    1       -0.831  -4.519  -3.210  0.00  0.00    -0.800 N 
ATOM      8  H   LIG    1       -1.597  -4.045  -3.568  0.00  0.00    +0.420 HD
ATOM      9  H   LIG    1       -0.757  -5.479  -3.328  0.00  0.00    +0.420 HD
ENDBRANCH   5   7
BRANCH   3  10
ATOM     10  N   LIG    1        3.244  -4.480  -0.883  0.00  0.00    -0.800 N 
ATOM     11  H   LIG    1        3.321  -5.440  -0.998  0.00  0.00    +0.420 HD
ATOM     12  H   LIG    1        3.934  -3.991  -0.408  0.00  0.00    +0.420 HD
ENDBRANCH   3  10
BRANCH   1  13
ATOM     13  C   LIG    1        0.880  -0.358  -1.545  0.00  0.00    -0.230 C 
BRANCH  13  15
ATOM     14  C   LIG    1       -0.022   1.810   0.012  0.00  0.00    -0.250 C 
ATOM     15  S   LIG    1        0.002  -0.004   0.002  0.00  0.00    +2.430 S 
ATOM     16  O   LIG    1       -1.334  -0.474  -0.117  0.00  0.00    -0.920 OA
ATOM     17  O   LIG    1        0.801  -0.452   1.088  0.00  0.00    -0.920 OA
ENDBRANCH  13  15
ENDBRANCH   1  13
TORSDOF 4
ENDMDL
MODEL      762
REMARK  Name = ZINC000089913908
REMARK                            x       y       z     vdW  Elec       q    Type
REMARK                         _______ _______ _______ _____ _____    ______ ____
ROOT
ATOM      1  N   LIG    1        0.688  -0.476  -1.203  0.00  0.00    -0.710 N 
ATOM      2  H   LIG    1        1.632  -0.695  -1.170  0.00  0.00    +0.410 HD
ATOM      3  C   LIG    1        0.006  -0.608  -2.358  0.00  0.00    +0.510 C 
ATOM      4  O   LIG    1       -1.175  -0.336  -2.400  0.00  0.00    -0.520 OA
ENDROOT
BRANCH   3   5
ATOM      5  C   LIG    1        0.712  -1.094  -3.598  0.00  0.00    +0.230 C 
ATOM      6  C   LIG    1        0.813  -2.632  -3.596  0.00  0.00    +0.290 C 
ATOM      7  N   LIG    1        0.061  -3.037  -4.793  0.00  0.00    -0.740 N 
ATOM      8  H   LIG    1       -0.073  -3.950  -5.090  0.00  0.00    +0.430 HD
ATOM      9  C   LIG    1       -0.409  -1.944  -5.407  0.00  0.00    +0.710 C 
ATOM     10  O   LIG    1       -1.069  -1.989  -6.428  0.00  0.00    -0.580 OA
ATOM     11  N   LIG    1       -0.085  -0.792  -4.797  0.00  0.00    -0.720 N 
ATOM     12  H   LIG    1       -0.338   0.094  -5.098  0.00  0.00    +0.440 HD
ENDBRANCH   3   5
BRANCH   1  14
ATOM     13  C   LIG    1       -0.019   1.526   0.010  0.00  0.00    +0.060 C 
ATOM     14  C   LIG    1        0.002  -0.004   0.002  0.00  0.00    +0.340 C 
BRANCH  14  15
ATOM     15  C   LIG    1        0.731  -0.503   1.223  0.00  0.00    +0.160 A 
ATOM     16  N   LIG    1        2.022  -0.483   1.415  0.00  0.00    -0.280 NA
ATOM     17  N   LIG    1        2.296  -0.987   2.566  0.00  0.00    -0.290 NA
ATOM     18  C   LIG    1        1.192  -1.353   3.160  0.00  0.00    +0.380 A 
ATOM     19  N   LIG    1        0.167  -1.051   2.327  0.00  0.00    -0.470 N 
ATOM     20  C   LIG    1       -1.260  -1.279   2.567  0.00  0.00    +0.350 C 
ENDBRANCH  14  15
ENDBRANCH   1  14
TORSDOF 3
ENDMDL
MODEL      763
REMARK  Name = ZINC000003321489
REMARK                            x       y       z     vdW  Elec       q    Type
REMARK                         _______ _______ _______ _____ _____    ______ ____
ROOT
ATOM      1  C   LIG    1        0.025  -0.350   2.506  0.00  0.00    +0.650 C 
ENDROOT
BRANCH   1   9
ATOM      2  C   LIG    1       -0.018   1.503   0.010  0.00  0.00    +0.210 C 
ATOM      3  C   LIG    1        0.002  -0.004   0.002  0.00  0.00    +0.290 A 
ATOM      4  N   LIG    1        0.008  -0.751  -1.054  0.00  0.00    -0.270 NA
ATOM      5  N   LIG    1        0.028  -2.091  -0.642  0.00  0.00    -0.550 N 
ATOM      6  H   LIG    1        0.035  -2.870  -1.219  0.00  0.00    +0.460 HD
ATOM      7  C   LIG    1        0.033  -2.095   0.708  0.00  0.00    +0.650 A 
ATOM      8  O   LIG    1        0.050  -3.078   1.426  0.00  0.00    -0.550 OA
ATOM      9  N   LIG    1        0.024  -0.809   1.115  0.00  0.00    -0.570 N 
ENDBRANCH   1   9
BRANCH   1  10
ATOM     10  N   LIG    1        1.407  -0.185   2.964  0.00  0.00    -0.570 N 
ATOM     11  C   LIG    1        2.178  -1.154   3.560  0.00  0.00    +0.290 A 
ATOM     12  N   LIG    1        3.341  -0.655   3.830  0.00  0.00    -0.270 NA
ATOM     13  N   LIG    1        3.351   0.681   3.405  0.00  0.00    -0.550 N 
ATOM     14  H   LIG    1        4.093   1.302   3.481  0.00  0.00    +0.460 HD
ATOM     15  C   LIG    1        1.740  -2.566   3.851  0.00  0.00    +0.210 C 
ATOM     16  C   LIG    1        2.141   0.941   2.868  0.00  0.00    +0.650 A 
ATOM     17  O   LIG    1        1.777   2.001   2.391  0.00  0.00    -0.550 OA
ENDBRANCH   1  10
TORSDOF 2
ENDMDL
MODEL      764
REMARK  Name = ZINC000026829907
REMARK                            x       y       z     vdW  Elec       q    Type
REMARK                         _______ _______ _______ _____ _____    ______ ____
ROOT
ATOM      1  C   LIG    1       -1.136  -2.159   0.001  0.00  0.00    +0.400 C 
ATOM      2  O   LIG    1       -1.260  -2.630  -1.342  0.00  0.00    -0.370 OA
ATOM      3  C   LIG    1       -1.226  -4.053  -1.467  0.00  0.00    +0.210 C 
ATOM      4  C   LIG    1       -2.398  -4.660  -0.691  0.00  0.00    +0.170 C 
ATOM      5  C   LIG    1       -2.312  -4.220   0.774  0.00  0.00    +0.160 C 
ATOM      6  C   LIG    1       -2.304  -2.690   0.837  0.00  0.00    +0.120 C 
ENDROOT
BRANCH   1  11
ATOM      7  N   LIG    1       -0.016   1.344   0.009  0.00  0.00    -0.860 N 
ATOM      8  H   LIG    1       -0.863   1.817   0.016  0.00  0.00    +0.400 HD
ATOM      9  H   LIG    1        0.817   1.840   0.004  0.00  0.00    +0.420 HD
ATOM     10  C   LIG    1        0.002  -0.004   0.002  0.00  0.00    +0.710 C 
ATOM     11  N   LIG    1       -1.156  -0.694   0.009  0.00  0.00    -0.730 N 
ATOM     12  H   LIG    1       -2.002  -0.220   0.020  0.00  0.00    +0.400 HD
ATOM     13  O   LIG    1        1.063  -0.598  -0.011  0.00  0.00    -0.580 OA
ENDBRANCH   1  11
BRANCH   5  14
ATOM     14  O   LIG    1       -1.111  -4.730   1.357  0.00  0.00    -0.550 OA
ATOM     15  H   LIG    1       -0.991  -4.490   2.286  0.00  0.00    +0.390 HD
ENDBRANCH   5  14
BRANCH   4  16
ATOM     16  O   LIG    1       -3.630  -4.207  -1.255  0.00  0.00    -0.530 OA
ATOM     17  H   LIG    1       -4.416  -4.554  -0.811  0.00  0.00    +0.380 HD
ENDBRANCH   4  16
BRANCH   6  18
ATOM     18  O   LIG    1       -3.534  -2.184   0.316  0.00  0.00    -0.530 OA
ATOM     19  H   LIG    1       -3.598  -1.219   0.325  0.00  0.00    +0.370 HD
ENDBRANCH   6  18
BRANCH   3  20
ATOM     20  C   LIG    1       -1.338  -4.438  -2.943  0.00  0.00    +0.210 C 
BRANCH  20  21
ATOM     21  O   LIG    1       -0.186  -3.969  -3.647  0.00  0.00    -0.570 OA
ATOM     22  H   LIG    1       -0.189  -4.179  -4.591  0.00  0.00    +0.380 HD
ENDBRANCH  20  21
ENDBRANCH   3  20
TORSDOF 6
ENDMDL
MODEL      765
REMARK  Name = ZINC000004762124
REMARK                            x       y       z     vdW  Elec       q    Type
REMARK                         _______ _______ _______ _____ _____    ______ ____
ROOT
ATOM      1  N   ILE A  3        1.535  -2.493  -2.410  0.00  0.00    -0.680 N 
ATOM      2  H   ILE A  3        2.131  -1.900  -2.893  0.00  0.00    +0.400 HD
ATOM      3  C   GLY A  2        1.337  -3.753  -2.848  0.00  0.00    +0.500 C 
ATOM      4  O   GLY A  2        0.591  -4.495  -2.245  0.00  0.00    -0.550 OA
ENDROOT
BRANCH   1   5
ATOM      5  CA  ILE A  3        0.849  -2.021  -1.205  0.00  0.00    +0.160 C 
BRANCH   5   6
ATOM      6  C   ILE A  3        1.645  -2.416   0.013  0.00  0.00    +0.490 C 
ATOM      7  OXT ILE A  3        2.769  -2.869  -0.114  0.00  0.00    -0.690 OA
ATOM      8  O   ILE A  3        1.163  -2.281   1.125  0.00  0.00    -0.680 OA
ENDBRANCH   5   6
BRANCH   5   9
ATOM      9  CB  ILE A  3        0.718  -0.497  -1.257  0.00  0.00    -0.010 C 
ATOM     10  CG2 ILE A  3       -0.089  -0.097  -2.493  0.00  0.00    +0.020 C 
BRANCH   9  12
ATOM     11  CD1 ILE A  3       -0.019   1.526   0.010  0.00  0.00    +0.000 C 
ATOM     12  CG1 ILE A  3        0.002  -0.004   0.002  0.00  0.00    +0.030 C 
ENDBRANCH   9  12
ENDBRANCH   5   9
ENDBRANCH   1   5
BRANCH   3  13
ATOM     13  CA  GLY A  2        2.042  -4.239  -4.088  0.00  0.00    +0.320 C 
BRANCH  13  14
ATOM     14  N   GLY A  2        1.664  -5.629  -4.352  0.00  0.00    -0.680 N 
ATOM     15  H   GLY A  2        1.044  -6.084  -3.760  0.00  0.00    +0.420 HD
ATOM     16  C   GLY A  1        2.175  -6.276  -5.418  0.00  0.00    +0.490 C 
ATOM     17  O   GLY A  1        2.950  -5.707  -6.158  0.00  0.00    -0.540 OA
BRANCH  16  18
ATOM     18  CA  GLY A  1        1.786  -7.706  -5.690  0.00  0.00    +0.300 C 
BRANCH  18  19
ATOM     19  N   GLY A  1        2.473  -8.180  -6.898  0.00  0.00    -0.620 N 
ATOM     20  H1  GLY A  1        3.471  -8.123  -6.761  0.00  0.00    +0.440 HD
ATOM     21  H2  GLY A  1        2.208  -7.604  -7.684  0.00  0.00    +0.440 HD
ATOM     22  H3  GLY A  1        2.212  -9.137  -7.080  0.00  0.00    +0.440 HD
ENDBRANCH  18  19
ENDBRANCH  16  18
ENDBRANCH  13  14
ENDBRANCH   3  13
TORSDOF 8
ENDMDL
MODEL      766
REMARK  Name = ZINC000032107076
REMARK                            x       y       z     vdW  Elec       q    Type
REMARK                         _______ _______ _______ _____ _____    ______ ____
ROOT
ATOM      1  C   LIG    1       -0.019   1.526   0.010  0.00  0.00    +0.080 C 
ATOM      2  C   LIG    1        0.002  -0.004   0.002  0.00  0.00    +0.250 C 
ATOM      3  O   LIG    1        0.704  -0.474  -1.157  0.00  0.00    -0.380 OA
ATOM      4  C   LIG    1        1.314  -1.718  -0.773  0.00  0.00    +0.350 C 
ATOM      5  O   LIG    1        2.625  -1.807  -1.344  0.00  0.00    -0.310 OA
ATOM      6  C   LIG    1        3.535  -1.124  -0.480  0.00  0.00    +0.170 C 
ATOM      7  C   LIG    1        4.905  -1.823  -0.470  0.00  0.00    +0.190 C 
ATOM      8  C   LIG    1        4.919  -2.650   0.825  0.00  0.00    +0.330 C 
ATOM      9  O   LIG    1        3.651  -2.490   1.465  0.00  0.00    -0.380 OA
ATOM     10  C   LIG    1        2.992  -1.297   0.958  0.00  0.00    +0.170 C 
ATOM     11  C   LIG    1        1.476  -1.620   0.759  0.00  0.00    +0.160 C 
ATOM     12  C   LIG    1       -1.431  -0.541  -0.006  0.00  0.00    +0.040 C 
ATOM     13  O   LIG    1        0.693  -0.486   1.160  0.00  0.00    -0.360 OA
ENDROOT
BRANCH   8  14
ATOM     14  O   LIG    1        5.958  -2.181   1.687  0.00  0.00    -0.570 OA
ATOM     15  H   LIG    1        6.021  -2.661   2.524  0.00  0.00    +0.390 HD
ENDBRANCH   8  14
BRANCH   7  16
ATOM     16  O   LIG    1        5.036  -2.676  -1.609  0.00  0.00    -0.530 OA
ATOM     17  H   LIG    1        5.881  -3.143  -1.655  0.00  0.00    +0.390 HD
ENDBRANCH   7  16
TORSDOF 2
ENDMDL
MODEL      767
REMARK  Name = ZINC000030754028
REMARK                            x       y       z     vdW  Elec       q    Type
REMARK                         _______ _______ _______ _____ _____    ______ ____
ROOT
ATOM      1  N   LIG    1        1.580  -1.046  -1.877  0.00  0.00    -1.010 NA
ATOM      2  C   LIG    1        2.276  -0.044  -2.698  0.00  0.00    +0.280 C 
ATOM      3  C   LIG    1        2.876  -0.742  -3.923  0.00  0.00    +0.020 C 
ATOM      4  C   LIG    1        3.761  -1.902  -3.462  0.00  0.00    +0.030 C 
ATOM      5  C   LIG    1        2.914  -2.919  -2.694  0.00  0.00    -0.010 C 
ATOM      6  C   LIG    1        2.316  -2.244  -1.451  0.00  0.00    +0.320 C 
ENDROOT
BRANCH   5   7
ATOM      7  C   LIG    1        3.780  -4.077  -2.270  0.00  0.00    +0.530 C 
ATOM      8  O   LIG    1        3.904  -4.341  -1.093  0.00  0.00    -0.540 OA
ATOM      9  N   LIG    1        4.416  -4.818  -3.198  0.00  0.00    -0.850 N 
ATOM     10  H   LIG    1        4.974  -5.563  -2.924  0.00  0.00    +0.400 HD
ATOM     11  H   LIG    1        4.317  -4.606  -4.139  0.00  0.00    +0.400 HD
ENDBRANCH   5   7
BRANCH   1  12
ATOM     12  S   LIG    1       -0.000  -0.824  -1.437  0.00  0.00    +2.780 S 
ATOM     13  O   LIG    1       -0.566   0.055  -2.399  0.00  0.00    -0.970 OA
ATOM     14  O   LIG    1       -0.525  -2.116  -1.161  0.00  0.00    -0.970 OA
BRANCH  12  16
ATOM     15  C   LIG    1       -0.018   1.461   0.010  0.00  0.00    +0.290 C 
ATOM     16  N   LIG    1        0.002  -0.004   0.002  0.00  0.00    -1.010 NA
ATOM     17  C   LIG    1        0.024  -0.743   1.267  0.00  0.00    +0.290 C 
ENDBRANCH  12  16
ENDBRANCH   1  12
TORSDOF 3
ENDMDL
MODEL      768
REMARK  Name = ZINC000085438237
REMARK                            x       y       z     vdW  Elec       q    Type
REMARK                         _______ _______ _______ _____ _____    ______ ____
ROOT
ATOM      1  N   LIG    1        0.014  -2.659  -2.561  0.00  0.00    -0.440 N 
ATOM      2  N   LIG    1       -1.121  -2.942  -3.337  0.00  0.00    -0.260 NA
ATOM      3  C   LIG    1       -0.724  -3.345  -4.493  0.00  0.00    +0.240 A 
ATOM      4  C   LIG    1       -1.566  -3.733  -5.687  0.00  0.00    +0.380 C 
ATOM      5  N   LIG    1       -0.712  -4.497  -6.614  0.00  0.00    -0.670 NA
ATOM      6  H   LIG    1       -0.518  -5.418  -6.250  0.00  0.00    +0.350 HD
ATOM      7  C   LIG    1        0.533  -3.771  -6.902  0.00  0.00    +0.240 C 
ATOM      8  C   LIG    1        1.443  -3.803  -5.667  0.00  0.00    +0.280 C 
ATOM      9  N   LIG    1        0.658  -3.355  -4.511  0.00  0.00    -0.560 N 
ATOM     10  C   LIG    1        1.099  -2.907  -3.327  0.00  0.00    +0.660 A 
ATOM     11  O   LIG    1        2.263  -2.754  -3.002  0.00  0.00    -0.550 OA
ENDROOT
BRANCH   1  12
ATOM     12  C   LIG    1        0.021  -2.178  -1.177  0.00  0.00    +0.410 C 
BRANCH  12  15
ATOM     13  C   LIG    1       -0.018   1.461   0.010  0.00  0.00    +0.290 C 
ATOM     14  N   LIG    1        0.002  -0.004   0.002  0.00  0.00    -0.620 N 
ATOM     15  C   LIG    1        0.000  -0.672  -1.169  0.00  0.00    +0.500 C 
ATOM     16  O   LIG    1       -0.018  -0.060  -2.216  0.00  0.00    -0.520 OA
ATOM     17  C   LIG    1        0.024  -0.743   1.267  0.00  0.00    +0.280 C 
ENDBRANCH  12  15
ENDBRANCH   1  12
TORSDOF 2
ENDMDL
MODEL      769
REMARK  Name = ZINC000029723565
REMARK                            x       y       z     vdW  Elec       q    Type
REMARK                         _______ _______ _______ _____ _____    ______ ____
ROOT
ATOM      1  N   LIG    1        3.476  -5.264  -2.600  0.00  0.00    -0.740 N 
ATOM      2  H   LIG    1        3.917  -4.460  -2.916  0.00  0.00    +0.400 HD
ATOM      3  C   LIG    1        3.199  -6.263  -3.462  0.00  0.00    +0.710 C 
ATOM      4  N   LIG    1        3.534  -6.145  -4.762  0.00  0.00    -0.710 N 
ATOM      5  H   LIG    1        3.975  -5.341  -5.077  0.00  0.00    +0.410 HD
ATOM      6  O   LIG    1        2.646  -7.271  -3.066  0.00  0.00    -0.590 OA
ENDROOT
BRANCH   1   7
ATOM      7  C   LIG    1        3.111  -5.393  -1.188  0.00  0.00    +0.280 C 
BRANCH   7   8
ATOM      8  C   LIG    1        3.534  -4.130  -0.435  0.00  0.00    +0.030 C 
BRANCH   8   9
ATOM      9  C   LIG    1        3.153  -4.264   1.041  0.00  0.00    +0.170 C 
BRANCH   9  10
ATOM     10  O   LIG    1        3.548  -3.084   1.744  0.00  0.00    -0.390 OA
BRANCH  10  12
ATOM     11  C   LIG    1        3.702  -1.801   3.786  0.00  0.00    +0.040 C 
ATOM     12  C   LIG    1        3.237  -3.107   3.139  0.00  0.00    +0.160 C 
ENDBRANCH  10  12
ENDBRANCH   9  10
ENDBRANCH   8   9
ENDBRANCH   7   8
ENDBRANCH   1   7
BRANCH   4  13
ATOM     13  C   LIG    1        3.233  -7.231  -5.697  0.00  0.00    +0.260 C 
BRANCH  13  14
ATOM     14  C   LIG    1        4.187  -7.170  -6.862  0.00  0.00    +0.530 C 
ATOM     15  O   LIG    1        4.724  -6.122  -7.152  0.00  0.00    -0.520 OA
ATOM     16  N   LIG    1        4.444  -8.280  -7.582  0.00  0.00    -0.840 N 
ATOM     17  H   LIG    1        5.003  -8.227  -8.373  0.00  0.00    +0.410 HD
ATOM     18  H   LIG    1        4.071  -9.133  -7.308  0.00  0.00    +0.410 HD
ENDBRANCH  13  14
BRANCH  13  19
ATOM     19  C   LIG    1        1.819  -7.085  -6.198  0.00  0.00    +0.510 C 
ATOM     20  O   LIG    1        1.293  -5.992  -6.218  0.00  0.00    -0.510 OA
ATOM     21  N   LIG    1        1.139  -8.168  -6.625  0.00  0.00    -0.850 N 
ATOM     22  H   LIG    1        0.257  -8.065  -7.014  0.00  0.00    +0.410 HD
ATOM     23  H   LIG    1        1.533  -9.051  -6.542  0.00  0.00    +0.400 HD
ENDBRANCH  13  19
ENDBRANCH   4  13
TORSDOF 8
ENDMDL
MODEL      770
REMARK  Name = ZINC000253495933
REMARK                            x       y       z     vdW  Elec       q    Type
REMARK                         _______ _______ _______ _____ _____    ______ ____
ROOT
ATOM      1  C   LIG    1        0.024   1.407  -2.321  0.00  0.00    +0.300 C 
ATOM      2  N   LIG    1       -0.155  -0.047  -2.309  0.00  0.00    -0.640 N 
ATOM      3  C   LIG    1        0.020  -0.738  -1.166  0.00  0.00    +0.710 C 
ATOM      4  N   LIG    1        0.155  -2.079  -1.202  0.00  0.00    -0.620 N 
ATOM      5  C   LIG    1        0.074  -2.873   0.033  0.00  0.00    +0.300 C 
ATOM      6  C   LIG    1        1.301  -3.790   0.093  0.00  0.00    +0.190 C 
ATOM      7  N   LIG    1        1.363  -4.590  -1.137  0.00  0.00    -0.690 NA
ATOM      8  H   LIG    1        2.078  -5.299  -1.072  0.00  0.00    +0.360 HD
ATOM      9  C   LIG    1        1.563  -3.748  -2.324  0.00  0.00    +0.160 C 
ATOM     10  C   LIG    1        1.538  -4.664  -3.576  0.00  0.00    -0.300 C 
ATOM     11  S   LIG    1       -0.248  -5.026  -3.770  0.00  0.00    +2.410 S 
ATOM     12  C   LIG    1       -0.873  -3.558  -2.873  0.00  0.00    -0.320 C 
ATOM     13  O   LIG    1       -0.573  -6.201  -3.040  0.00  0.00    -0.910 OA
ATOM     14  O   LIG    1       -0.602  -4.925  -5.143  0.00  0.00    -0.940 OA
ATOM     15  C   LIG    1        0.381  -2.771  -2.474  0.00  0.00    +0.260 C 
ATOM     16  O   LIG    1        0.055  -0.152  -0.101  0.00  0.00    -0.570 OA
ATOM     17  C   LIG    1       -0.522  -0.750  -3.541  0.00  0.00    +0.280 C 
ENDROOT
TORSDOF 0
ENDMDL
MODEL      771
REMARK  Name = ZINC000095495905
REMARK                            x       y       z     vdW  Elec       q    Type
REMARK                         _______ _______ _______ _____ _____    ______ ____
ROOT
ATOM      1  C   LIG    1        2.026  -0.024  -1.282  0.00  0.00    +0.320 C 
ATOM      2  O   LIG    1        2.822  -0.684  -0.295  0.00  0.00    -0.360 OA
ATOM      3  C   LIG    1        2.811  -2.109  -0.395  0.00  0.00    +0.190 C 
ATOM      4  C   LIG    1        3.379  -2.529  -1.753  0.00  0.00    +0.160 C 
ATOM      5  C   LIG    1        2.551  -1.880  -2.866  0.00  0.00    +0.160 C 
ATOM      6  C   LIG    1        2.562  -0.360  -2.676  0.00  0.00    +0.150 C 
ENDROOT
BRANCH   5   7
ATOM      7  O   LIG    1        3.117  -2.209  -4.136  0.00  0.00    -0.560 OA
ATOM      8  H   LIG    1        2.642  -1.830  -4.889  0.00  0.00    +0.390 HD
ENDBRANCH   5   7
BRANCH   4   9
ATOM      9  O   LIG    1        3.318  -3.951  -1.877  0.00  0.00    -0.550 OA
ATOM     10  H   LIG    1        3.662  -4.288  -2.716  0.00  0.00    +0.390 HD
ENDBRANCH   4   9
BRANCH   6  11
ATOM     11  O   LIG    1        1.734   0.251  -3.668  0.00  0.00    -0.550 OA
ATOM     12  H   LIG    1        1.695   1.216  -3.607  0.00  0.00    +0.390 HD
ENDBRANCH   6  11
BRANCH   1  13
ATOM     13  O   LIG    1        0.671  -0.465  -1.174  0.00  0.00    -0.370 OA
BRANCH  13  15
ATOM     14  C   LIG    1       -0.019   1.526   0.010  0.00  0.00    +0.010 C 
ATOM     15  C   LIG    1        0.002  -0.004   0.002  0.00  0.00    +0.110 C 
ATOM     16  C   LIG    1       -1.433  -0.534   0.013  0.00  0.00    +0.050 C 
ATOM     17  C   LIG    1        0.742  -0.511   1.242  0.00  0.00    +0.030 C 
ENDBRANCH  13  15
ENDBRANCH   1  13
BRANCH   3  18
ATOM     18  C   LIG    1        3.669  -2.705   0.724  0.00  0.00    +0.210 C 
BRANCH  18  19
ATOM     19  O   LIG    1        3.075  -2.410   1.989  0.00  0.00    -0.560 OA
ATOM     20  H   LIG    1        3.566  -2.758   2.745  0.00  0.00    +0.380 HD
ENDBRANCH  18  19
ENDBRANCH   3  18
TORSDOF 7
ENDMDL
MODEL      772
REMARK  Name = ZINC000095464572
REMARK                            x       y       z     vdW  Elec       q    Type
REMARK                         _______ _______ _______ _____ _____    ______ ____
ROOT
ATOM      1  O   LIG    1        0.002  -0.004   0.002  0.00  0.00    -0.930 OA
ATOM      2  S   LIG    1       -0.017   1.417   0.010  0.00  0.00    +2.730 S 
ATOM      3  O   LIG    1        1.162   2.210   0.003  0.00  0.00    -0.920 OA
ENDROOT
BRANCH   2   4
ATOM      4  N   LIG    1       -0.875   1.865   1.354  0.00  0.00    -0.990 NA
ATOM      5  C   LIG    1       -0.684   3.190   1.963  0.00  0.00    +0.300 C 
ATOM      6  C   LIG    1       -0.425   3.004   3.462  0.00  0.00    +0.180 C 
ATOM      7  N   LIG    1       -1.507   2.201   4.047  0.00  0.00    -0.690 NA
ATOM      8  H   LIG    1       -1.426   2.162   5.051  0.00  0.00    +0.350 HD
ATOM      9  C   LIG    1       -1.542   0.852   3.468  0.00  0.00    +0.180 C 
ATOM     10  C   LIG    1       -1.851   0.952   1.966  0.00  0.00    +0.300 C 
ENDBRANCH   2   4
BRANCH   2  11
ATOM     11  C   LIG    1       -0.957   1.909  -1.397  0.00  0.00    -0.300 A 
ATOM     12  N   LIG    1       -2.260   1.997  -1.447  0.00  0.00    -0.220 NA
ATOM     13  N   LIG    1       -2.588   2.422  -2.745  0.00  0.00    -0.460 N 
ATOM     14  H   LIG    1       -3.478   2.581  -3.097  0.00  0.00    +0.450 HD
ATOM     15  C   LIG    1       -1.425   2.564  -3.402  0.00  0.00    +0.510 A 
ATOM     16  N   LIG    1       -0.454   2.258  -2.580  0.00  0.00    -0.480 NA
ENDBRANCH   2  11
TORSDOF 2
ENDMDL
MODEL      773
REMARK  Name = ZINC000048552663
REMARK                            x       y       z     vdW  Elec       q    Type
REMARK                         _______ _______ _______ _____ _____    ______ ____
ROOT
ATOM      1  C   LIG    1        0.147   1.476   0.378  0.00  0.00    +0.150 C 
ATOM      2  C   LIG    1        0.083  -0.017   0.182  0.00  0.00    +0.230 C 
ATOM      3  C   LIG    1       -1.111  -0.632   0.159  0.00  0.00    -0.290 C 
ATOM      4  C   LIG    1       -1.223  -2.119  -0.026  0.00  0.00    +0.140 C 
ATOM      5  C   LIG    1        0.064  -2.688  -0.551  0.00  0.00    -0.260 C 
ATOM      6  C   LIG    1        1.211  -1.992  -0.499  0.00  0.00    +0.180 C 
ATOM      7  C   LIG    1        2.480  -2.607  -1.031  0.00  0.00    +0.130 C 
ATOM      8  N   LIG    1        1.241  -0.729   0.025  0.00  0.00    -0.630 N 
ATOM      9  H   LIG    1        2.087  -0.337   0.293  0.00  0.00    +0.420 HD
ENDROOT
BRANCH   5  10
ATOM     10  C   LIG    1        0.068  -3.989  -1.113  0.00  0.00    +0.580 C 
ATOM     11  N   LIG    1        0.160  -4.145  -2.448  0.00  0.00    -0.580 N 
ATOM     12  H   LIG    1        0.224  -3.368  -3.025  0.00  0.00    +0.400 HD
ATOM     13  O   LIG    1       -0.012  -4.965  -0.390  0.00  0.00    -0.520 OA
BRANCH  11  14
ATOM     14  N   LIG    1        0.164  -5.399  -2.990  0.00  0.00    -0.600 NA
ATOM     15  H   LIG    1        0.237  -5.358  -3.996  0.00  0.00    +0.360 HD
ATOM     16  H   LIG    1       -0.655  -5.917  -2.709  0.00  0.00    +0.350 HD
ENDBRANCH  11  14
ENDBRANCH   5  10
BRANCH   3  17
ATOM     17  C   LIG    1       -2.290   0.138   0.310  0.00  0.00    +0.580 C 
ATOM     18  N   LIG    1       -3.496  -0.464   0.289  0.00  0.00    -0.580 N 
ATOM     19  H   LIG    1       -3.556  -1.425   0.170  0.00  0.00    +0.400 HD
ATOM     20  O   LIG    1       -2.215   1.344   0.460  0.00  0.00    -0.540 OA
BRANCH  18  21
ATOM     21  N   LIG    1       -4.633   0.278   0.435  0.00  0.00    -0.600 NA
ATOM     22  H   LIG    1       -5.454  -0.307   0.399  0.00  0.00    +0.360 HD
ATOM     23  H   LIG    1       -4.679   1.010  -0.258  0.00  0.00    +0.340 HD
ENDBRANCH  18  21
ENDBRANCH   3  17
TORSDOF 4
ENDMDL
MODEL      774
REMARK  Name = ZINC000032809178
REMARK                            x       y       z     vdW  Elec       q    Type
REMARK                         _______ _______ _______ _____ _____    ______ ____
ROOT
ATOM      1  N   LIG    1       -0.804   1.513   1.142  0.00  0.00    -0.730 N 
ATOM      2  H   LIG    1       -0.505   0.875   1.808  0.00  0.00    +0.400 HD
ATOM      3  C   LIG    1       -1.955   2.191   1.326  0.00  0.00    +0.710 C 
ATOM      4  N   LIG    1       -2.690   1.982   2.436  0.00  0.00    -0.720 N 
ATOM      5  H   LIG    1       -2.391   1.343   3.103  0.00  0.00    +0.410 HD
ATOM      6  O   LIG    1       -2.330   2.991   0.491  0.00  0.00    -0.580 OA
ENDROOT
BRANCH   1   7
ATOM      7  C   LIG    1       -0.005   1.741  -0.065  0.00  0.00    +0.250 C 
BRANCH   7   9
ATOM      8  C   LIG    1        0.061   4.209   0.317  0.00  0.00    +0.010 C 
ATOM      9  C   LIG    1        0.910   2.948   0.150  0.00  0.00    -0.010 C 
ENDBRANCH   7   9
BRANCH   7  10
ATOM     10  C   LIG    1        0.843   0.502  -0.356  0.00  0.00    +0.020 C 
ATOM     11  C   LIG    1       -0.073  -0.676  -0.693  0.00  0.00    +0.030 C 
ENDBRANCH   7  10
ENDBRANCH   1   7
BRANCH   4  12
ATOM     12  C   LIG    1       -3.940   2.718   2.637  0.00  0.00    +0.260 C 
BRANCH  12  13
ATOM     13  C   LIG    1       -4.244   2.801   4.110  0.00  0.00    +0.530 C 
ATOM     14  O   LIG    1       -3.785   1.976   4.872  0.00  0.00    -0.520 OA
ATOM     15  N   LIG    1       -5.025   3.793   4.582  0.00  0.00    -0.840 N 
ATOM     16  H   LIG    1       -5.278   3.807   5.519  0.00  0.00    +0.410 HD
ATOM     17  H   LIG    1       -5.334   4.493   3.986  0.00  0.00    +0.400 HD
ENDBRANCH  12  13
BRANCH  12  18
ATOM     18  C   LIG    1       -5.064   2.001   1.933  0.00  0.00    +0.510 C 
ATOM     19  O   LIG    1       -4.991   0.807   1.735  0.00  0.00    -0.510 OA
ATOM     20  N   LIG    1       -6.149   2.687   1.522  0.00  0.00    -0.850 N 
ATOM     21  H   LIG    1       -6.902   2.216   1.134  0.00  0.00    +0.410 HD
ATOM     22  H   LIG    1       -6.175   3.653   1.615  0.00  0.00    +0.400 HD
ENDBRANCH  12  18
ENDBRANCH   4  12
TORSDOF 6
ENDMDL
MODEL      775
REMARK  Name = ZINC000100655752
REMARK                            x       y       z     vdW  Elec       q    Type
REMARK                         _______ _______ _______ _____ _____    ______ ____
ROOT
ATOM      1  CA  ALA A  2       -3.442  -1.177   1.191  0.00  0.00    +0.240 C 
ATOM      2  CB  ALA A  2       -3.474  -2.577   0.575  0.00  0.00    +0.070 C 
ENDROOT
BRANCH   1   5
ATOM      3  N   ALA A  3       -1.372  -0.511   0.012  0.00  0.00    -0.680 N 
ATOM      4  H   ALA A  3       -1.810  -0.743  -0.822  0.00  0.00    +0.410 HD
ATOM      5  C   ALA A  2       -2.029  -0.655   1.181  0.00  0.00    +0.500 C 
ATOM      6  O   ALA A  2       -1.481  -0.365   2.224  0.00  0.00    -0.560 OA
BRANCH   3   8
ATOM      7  CB  ALA A  3       -0.019   1.526   0.010  0.00  0.00    +0.030 C 
ATOM      8  CA  ALA A  3        0.002  -0.004   0.002  0.00  0.00    +0.160 C 
BRANCH   8   9
ATOM      9  C   ALA A  3        0.707  -0.490  -1.238  0.00  0.00    +0.490 C 
ATOM     10  OXT ALA A  3        0.073  -0.696  -2.259  0.00  0.00    -0.690 OA
ATOM     11  O   ALA A  3        1.912  -0.677  -1.220  0.00  0.00    -0.680 OA
ENDBRANCH   8   9
ENDBRANCH   3   8
ENDBRANCH   1   5
BRANCH   1  12
ATOM     12  N   ALA A  2       -3.929  -1.240   2.572  0.00  0.00    -0.680 N 
ATOM     13  H   ALA A  2       -3.299  -1.325   3.305  0.00  0.00    +0.420 HD
ATOM     14  C   ALA A  1       -5.252  -1.180   2.823  0.00  0.00    +0.500 C 
ATOM     15  O   ALA A  1       -6.039  -1.074   1.907  0.00  0.00    -0.530 OA
BRANCH  14  16
ATOM     16  CA  ALA A  1       -5.752  -1.246   4.243  0.00  0.00    +0.180 C 
ATOM     17  CB  ALA A  1       -5.768  -2.702   4.712  0.00  0.00    +0.120 C 
BRANCH  16  18
ATOM     18  N   ALA A  1       -7.113  -0.696   4.309  0.00  0.00    -0.620 N 
ATOM     19  H1  ALA A  1       -7.103   0.265   3.999  0.00  0.00    +0.440 HD
ATOM     20  H2  ALA A  1       -7.448  -0.739   5.259  0.00  0.00    +0.440 HD
ATOM     21  H3  ALA A  1       -7.723  -1.235   3.712  0.00  0.00    +0.440 HD
ENDBRANCH  16  18
ENDBRANCH  14  16
ENDBRANCH   1  12
TORSDOF 6
ENDMDL
MODEL      776
REMARK  Name = ZINC000003865798
REMARK                            x       y       z     vdW  Elec       q    Type
REMARK                         _______ _______ _______ _____ _____    ______ ____
ROOT
ATOM      1  N   LIG    1        3.187   3.041   1.706  0.00  0.00    -0.680 N 
ATOM      2  H   LIG    1        3.052   3.988   1.867  0.00  0.00    +0.400 HD
ENDROOT
BRANCH   1   7
ATOM      3  O   LIG    1        0.002  -0.004   0.002  0.00  0.00    -0.920 OA
ATOM      4  S   LIG    1       -0.017   1.417   0.010  0.00  0.00    +2.400 S 
ATOM      5  C   LIG    1       -0.459   2.008   1.683  0.00  0.00    -0.290 C 
ATOM      6  C   LIG    1        0.789   2.760   2.186  0.00  0.00    +0.070 C 
ATOM      7  C   LIG    1        2.033   2.160   1.508  0.00  0.00    +0.290 C 
ATOM      8  O   LIG    1       -0.784   2.119  -0.959  0.00  0.00    -0.930 OA
ATOM      9  C   LIG    1        1.704   2.048  -0.003  0.00  0.00    -0.310 C 
ENDBRANCH   1   7
BRANCH   1  10
ATOM     10  C   LIG    1        4.436   2.536   1.665  0.00  0.00    +0.560 C 
ATOM     11  S   LIG    1        4.674   0.864   1.381  0.00  0.00    -0.630 S 
BRANCH  10  12
ATOM     12  N   LIG    1        5.497   3.346   1.848  0.00  0.00    -0.670 N 
ATOM     13  H   LIG    1        5.362   4.293   2.009  0.00  0.00    +0.400 HD
BRANCH  12  14
ATOM     14  C   LIG    1        6.854   2.797   1.804  0.00  0.00    +0.320 C 
BRANCH  14  15
ATOM     15  C   LIG    1        7.867   3.919   2.039  0.00  0.00    +0.180 C 
BRANCH  15  16
ATOM     16  O   LIG    1        7.710   4.432   3.364  0.00  0.00    -0.570 OA
ATOM     17  H   LIG    1        8.321   5.149   3.583  0.00  0.00    +0.390 HD
ENDBRANCH  15  16
ENDBRANCH  14  15
ENDBRANCH  12  14
ENDBRANCH  10  12
ENDBRANCH   1  10
TORSDOF 6
ENDMDL
MODEL      777
REMARK  Name = ZINC000095617094
REMARK                            x       y       z     vdW  Elec       q    Type
REMARK                         _______ _______ _______ _____ _____    ______ ____
ROOT
ATOM      1  C   LIG    1       -2.580  -2.823   0.011  0.00  0.00    +0.200 C 
ENDROOT
BRANCH   1   2
ATOM      2  C   LIG    1       -1.246  -2.121   0.003  0.00  0.00    +0.350 C 
ATOM      3  O   LIG    1       -0.225  -2.765  -0.011  0.00  0.00    -0.380 OA
BRANCH   2   4
ATOM      4  C   LIG    1       -1.189  -0.631   0.010  0.00  0.00    +0.430 C 
ATOM      5  O   LIG    1       -2.215   0.015   0.023  0.00  0.00    -0.470 OA
BRANCH   4   7
ATOM      6  C   LIG    1       -0.018   1.448   0.010  0.00  0.00    +0.280 C 
ATOM      7  O   LIG    1        0.002  -0.004   0.002  0.00  0.00    -0.340 OA
ENDBRANCH   4   7
ENDBRANCH   2   4
ENDBRANCH   1   2
BRANCH   1   8
ATOM      8  O   LIG    1       -2.407  -4.168   0.464  0.00  0.00    -0.510 OA
ATOM      9  H   LIG    1       -1.811  -4.694  -0.087  0.00  0.00    +0.380 HD
ENDBRANCH   1   8
BRANCH   1  10
ATOM     10  C   LIG    1       -3.161  -2.832  -1.404  0.00  0.00    +0.170 C 
BRANCH  10  11
ATOM     11  O   LIG    1       -3.334  -1.487  -1.856  0.00  0.00    -0.540 OA
ATOM     12  H   LIG    1       -3.930  -0.961  -1.305  0.00  0.00    +0.390 HD
ENDBRANCH  10  11
BRANCH  10  13
ATOM     13  C   LIG    1       -4.515  -3.545  -1.395  0.00  0.00    +0.200 C 
BRANCH  13  14
ATOM     14  O   LIG    1       -4.342  -4.889  -0.943  0.00  0.00    -0.530 OA
ATOM     15  H   LIG    1       -3.746  -5.416  -1.493  0.00  0.00    +0.370 HD
ENDBRANCH  13  14
BRANCH  13  16
ATOM     16  C   LIG    1       -5.096  -3.553  -2.810  0.00  0.00    +0.160 C 
BRANCH  16  17
ATOM     17  O   LIG    1       -6.410  -4.114  -2.781  0.00  0.00    -0.560 OA
ATOM     18  H   LIG    1       -6.841  -4.152  -3.647  0.00  0.00    +0.380 HD
ENDBRANCH  16  17
ENDBRANCH  13  16
ENDBRANCH  10  13
ENDBRANCH   1  10
TORSDOF 10
ENDMDL
MODEL      778
REMARK  Name = ZINC000095617096
REMARK                            x       y       z     vdW  Elec       q    Type
REMARK                         _______ _______ _______ _____ _____    ______ ____
ROOT
ATOM      1  C   LIG    1       -2.580  -2.823   0.011  0.00  0.00    +0.210 C 
ENDROOT
BRANCH   1   2
ATOM      2  C   LIG    1       -1.246  -2.121   0.003  0.00  0.00    +0.350 C 
ATOM      3  O   LIG    1       -0.225  -2.765  -0.011  0.00  0.00    -0.370 OA
BRANCH   2   4
ATOM      4  C   LIG    1       -1.189  -0.631   0.010  0.00  0.00    +0.430 C 
ATOM      5  O   LIG    1       -2.215   0.015   0.023  0.00  0.00    -0.470 OA
BRANCH   4   7
ATOM      6  C   LIG    1       -0.018   1.448   0.010  0.00  0.00    +0.280 C 
ATOM      7  O   LIG    1        0.002  -0.004   0.002  0.00  0.00    -0.340 OA
ENDBRANCH   4   7
ENDBRANCH   2   4
ENDBRANCH   1   2
BRANCH   1   8
ATOM      8  O   LIG    1       -2.407  -4.168   0.464  0.00  0.00    -0.510 OA
ATOM      9  H   LIG    1       -1.811  -4.694  -0.087  0.00  0.00    +0.380 HD
ENDBRANCH   1   8
BRANCH   1  10
ATOM     10  C   LIG    1       -3.161  -2.832  -1.404  0.00  0.00    +0.180 C 
BRANCH  10  11
ATOM     11  O   LIG    1       -2.216  -3.414  -2.303  0.00  0.00    -0.550 OA
ATOM     12  H   LIG    1       -1.978  -4.326  -2.087  0.00  0.00    +0.380 HD
ENDBRANCH  10  11
BRANCH  10  13
ATOM     13  C   LIG    1       -4.453  -3.651  -1.419  0.00  0.00    +0.210 C 
BRANCH  13  14
ATOM     14  O   LIG    1       -4.194  -4.958  -0.902  0.00  0.00    -0.530 OA
ATOM     15  H   LIG    1       -3.534  -5.456  -1.403  0.00  0.00    +0.360 HD
ENDBRANCH  13  14
BRANCH  13  16
ATOM     16  C   LIG    1       -4.968  -3.764  -2.856  0.00  0.00    +0.170 C 
BRANCH  16  17
ATOM     17  O   LIG    1       -6.233  -4.429  -2.857  0.00  0.00    -0.560 OA
ATOM     18  H   LIG    1       -6.620  -4.536  -3.737  0.00  0.00    +0.380 HD
ENDBRANCH  16  17
ENDBRANCH  13  16
ENDBRANCH  10  13
ENDBRANCH   1  10
TORSDOF 10
ENDMDL
MODEL      779
REMARK  Name = ZINC000101107662
REMARK                            x       y       z     vdW  Elec       q    Type
REMARK                         _______ _______ _______ _____ _____    ______ ____
ROOT
ATOM      1  C   LIG    1       -1.136  -2.159   0.001  0.00  0.00    +0.250 C 
ATOM      2  C   LIG    1       -1.020  -2.661  -1.440  0.00  0.00    +0.330 C 
ATOM      3  O   LIG    1       -2.166  -2.240  -2.183  0.00  0.00    -0.400 OA
ATOM      4  C   LIG    1       -3.405  -2.747  -1.682  0.00  0.00    +0.150 C 
ATOM      5  C   LIG    1       -3.616  -2.248  -0.250  0.00  0.00    +0.110 C 
ATOM      6  C   LIG    1       -2.433  -2.692   0.618  0.00  0.00    +0.190 C 
ENDROOT
BRANCH   1   9
ATOM      7  C   LIG    1       -0.018   1.503   0.010  0.00  0.00    +0.100 C 
ATOM      8  C   LIG    1        0.002  -0.004   0.002  0.00  0.00    +0.510 C 
ATOM      9  N   LIG    1       -1.156  -0.694   0.009  0.00  0.00    -0.730 N 
ATOM     10  H   LIG    1       -2.002  -0.220   0.020  0.00  0.00    +0.400 HD
ATOM     11  O   LIG    1        1.060  -0.596  -0.011  0.00  0.00    -0.510 OA
ENDBRANCH   1   9
BRANCH   2  12
ATOM     12  N   LIG    1        0.193  -2.107  -2.056  0.00  0.00    -0.790 NA
ATOM     13  H   LIG    1        0.195  -1.099  -2.008  0.00  0.00    +0.340 HD
ATOM     14  H   LIG    1        0.292  -2.424  -3.009  0.00  0.00    +0.350 HD
ENDBRANCH   2  12
BRANCH   5  15
ATOM     15  O   LIG    1       -4.826  -2.800   0.274  0.00  0.00    -0.560 OA
ATOM     16  H   LIG    1       -5.617  -2.562  -0.230  0.00  0.00    +0.390 HD
ENDBRANCH   5  15
BRANCH   6  17
ATOM     17  O   LIG    1       -2.387  -4.119   0.672  0.00  0.00    -0.550 OA
ATOM     18  H   LIG    1       -3.182  -4.524   1.046  0.00  0.00    +0.390 HD
ENDBRANCH   6  17
BRANCH   4  19
ATOM     19  C   LIG    1       -4.552  -2.258  -2.568  0.00  0.00    +0.190 C 
BRANCH  19  20
ATOM     20  O   LIG    1       -4.417  -2.818  -3.875  0.00  0.00    -0.560 OA
ATOM     21  H   LIG    1       -5.112  -2.550  -4.492  0.00  0.00    +0.380 HD
ENDBRANCH  19  20
ENDBRANCH   4  19
TORSDOF 6
ENDMDL
MODEL      780
REMARK  Name = ZINC000002024505
REMARK                            x       y       z     vdW  Elec       q    Type
REMARK                         _______ _______ _______ _____ _____    ______ ____
ROOT
ATOM      1  C   LIG    1       -0.599  -2.238  -1.397  0.00  0.00    +0.200 C 
ENDROOT
BRANCH   1   4
ATOM      2  C   LIG    1       -0.200   1.560  -1.160  0.00  0.00    +0.290 C 
ATOM      3  N   LIG    1       -0.434   0.158  -0.806  0.00  0.00    -0.620 N 
ATOM      4  C   LIG    1       -0.254  -0.809  -1.728  0.00  0.00    +0.500 C 
ATOM      5  O   LIG    1        0.185  -0.529  -2.823  0.00  0.00    -0.520 OA
ATOM      6  C   LIG    1       -0.863  -0.193   0.550  0.00  0.00    +0.280 C 
ENDBRANCH   1   4
BRANCH   1   7
ATOM      7  O   LIG    1       -0.652  -3.006  -2.601  0.00  0.00    -0.520 OA
ATOM      8  H   LIG    1        0.179  -3.020  -3.095  0.00  0.00    +0.390 HD
ENDBRANCH   1   7
BRANCH   1   9
ATOM      9  C   LIG    1        0.470  -2.818  -0.469  0.00  0.00    +0.200 C 
BRANCH   9  10
ATOM     10  C   LIG    1        0.188  -4.279  -0.229  0.00  0.00    +0.500 C 
ATOM     11  N   LIG    1       -0.860  -4.647   0.535  0.00  0.00    -0.620 N 
ATOM     12  C   LIG    1       -1.785  -3.633   1.046  0.00  0.00    +0.270 C 
ATOM     13  C   LIG    1       -1.074  -6.061   0.853  0.00  0.00    +0.290 C 
ATOM     14  O   LIG    1        0.904  -5.124  -0.724  0.00  0.00    -0.520 OA
ENDBRANCH   9  10
BRANCH   9  15
ATOM     15  O   LIG    1        1.756  -2.675  -1.074  0.00  0.00    -0.520 OA
ATOM     16  H   LIG    1        1.843  -3.125  -1.926  0.00  0.00    +0.390 HD
ENDBRANCH   9  15
ENDBRANCH   1   9
TORSDOF 5
ENDMDL
MODEL      781
REMARK  Name = ZINC000012405155
REMARK                            x       y       z     vdW  Elec       q    Type
REMARK                         _______ _______ _______ _____ _____    ______ ____
ROOT
ATOM      1  C   LIG    1        0.158  -2.196  -0.472  0.00  0.00    +0.200 C 
ENDROOT
BRANCH   1   4
ATOM      2  C   LIG    1        1.377  -2.199  -4.098  0.00  0.00    +0.300 C 
ATOM      3  N   LIG    1        0.702  -1.819  -2.855  0.00  0.00    -0.620 N 
ATOM      4  C   LIG    1        0.947  -2.501  -1.719  0.00  0.00    +0.480 C 
ATOM      5  O   LIG    1        1.802  -3.361  -1.701  0.00  0.00    -0.510 OA
ATOM      6  C   LIG    1       -0.240  -0.697  -2.847  0.00  0.00    +0.290 C 
ENDBRANCH   1   4
BRANCH   1   7
ATOM      7  O   LIG    1        0.892  -2.631   0.675  0.00  0.00    -0.530 OA
ATOM      8  H   LIG    1        1.029  -3.587   0.715  0.00  0.00    +0.390 HD
ENDBRANCH   1   7
BRANCH   1   9
ATOM      9  C   LIG    1       -1.184  -2.929  -0.525  0.00  0.00    +0.200 C 
BRANCH   9  10
ATOM     10  C   LIG    1       -0.947  -4.416  -0.482  0.00  0.00    +0.480 C 
ATOM     11  N   LIG    1       -0.729  -5.097  -1.624  0.00  0.00    -0.610 N 
ATOM     12  C   LIG    1       -0.617  -4.378  -2.896  0.00  0.00    +0.270 C 
ATOM     13  C   LIG    1       -0.603  -6.556  -1.594  0.00  0.00    +0.290 C 
ATOM     14  O   LIG    1       -0.953  -5.000   0.581  0.00  0.00    -0.520 OA
ENDBRANCH   9  10
BRANCH   9  15
ATOM     15  O   LIG    1       -1.983  -2.541   0.595  0.00  0.00    -0.520 OA
ATOM     16  H   LIG    1       -1.551  -2.670   1.450  0.00  0.00    +0.400 HD
ENDBRANCH   9  15
ENDBRANCH   1   9
TORSDOF 5
ENDMDL
MODEL      782
REMARK  Name = ZINC000039101904
REMARK                            x       y       z     vdW  Elec       q    Type
REMARK                         _______ _______ _______ _____ _____    ______ ____
ROOT
ATOM      1  N   LIG    1       -1.372  -0.511   0.012  0.00  0.00    -0.580 N 
ATOM      2  C   LIG    1       -2.118  -0.790   1.097  0.00  0.00    +0.710 C 
ATOM      3  N   LIG    1       -3.338  -1.238   0.777  0.00  0.00    -0.680 N 
ATOM      4  H   LIG    1       -4.013  -1.489   1.426  0.00  0.00    +0.440 HD
ATOM      5  C   LIG    1       -3.511  -1.297  -0.558  0.00  0.00    +0.510 C 
ATOM      6  O   LIG    1       -4.504  -1.660  -1.152  0.00  0.00    -0.430 OA
ATOM      7  O   LIG    1       -1.728  -0.650   2.239  0.00  0.00    -0.520 OA
ATOM      8  C   LIG    1       -2.209  -0.809  -1.163  0.00  0.00    +0.270 C 
ENDROOT
BRANCH   8   9
ATOM      9  C   LIG    1       -1.574  -1.892  -1.996  0.00  0.00    +0.550 C 
ATOM     10  O   LIG    1       -0.625  -2.511  -1.565  0.00  0.00    -0.510 OA
ATOM     11  N   LIG    1       -2.060  -2.171  -3.222  0.00  0.00    -0.820 N 
ATOM     12  H   LIG    1       -1.651  -2.868  -3.759  0.00  0.00    +0.410 HD
ATOM     13  H   LIG    1       -2.819  -1.676  -3.567  0.00  0.00    +0.410 HD
ENDBRANCH   8   9
BRANCH   1  15
ATOM     14  C   LIG    1       -0.019   1.526   0.010  0.00  0.00    +0.020 C 
ATOM     15  C   LIG    1        0.002  -0.004   0.002  0.00  0.00    +0.350 C 
ENDBRANCH   1  15
BRANCH   8  16
ATOM     16  N   LIG    1       -2.434   0.400  -1.966  0.00  0.00    -0.480 NA
ATOM     17  H   LIG    1       -2.777   1.156  -1.394  0.00  0.00    +0.360 HD
BRANCH  16  18
ATOM     18  O   LIG    1       -3.345   0.128  -3.078  0.00  0.00    -0.230 OA
ATOM     19  C   LIG    1       -3.608   1.264  -3.904  0.00  0.00    +0.240 C 
ENDBRANCH  16  18
ENDBRANCH   8  16
TORSDOF 4
ENDMDL
MODEL      783
REMARK  Name = ZINC000039101905
REMARK                            x       y       z     vdW  Elec       q    Type
REMARK                         _______ _______ _______ _____ _____    ______ ____
ROOT
ATOM      1  N   LIG    1       -1.668  -0.458   0.010  0.00  0.00    -0.580 N 
ATOM      2  C   LIG    1       -2.650  -0.853   0.840  0.00  0.00    +0.710 C 
ATOM      3  N   LIG    1       -3.660  -1.445   0.193  0.00  0.00    -0.670 N 
ATOM      4  H   LIG    1       -4.454  -1.795   0.626  0.00  0.00    +0.440 HD
ATOM      5  C   LIG    1       -3.436  -1.496  -1.135  0.00  0.00    +0.550 C 
ATOM      6  O   LIG    1       -4.163  -1.970  -1.982  0.00  0.00    -0.430 OA
ATOM      7  O   LIG    1       -2.623  -0.689   2.044  0.00  0.00    -0.520 OA
ATOM      8  C   LIG    1       -2.090  -0.834  -1.351  0.00  0.00    +0.270 C 
ENDROOT
BRANCH   8   9
ATOM      9  C   LIG    1       -2.233   0.385  -2.225  0.00  0.00    +0.500 C 
ATOM     10  O   LIG    1       -1.873   1.469  -1.818  0.00  0.00    -0.510 OA
ATOM     11  N   LIG    1       -2.760   0.270  -3.460  0.00  0.00    -0.830 N 
ATOM     12  H   LIG    1       -2.852   1.054  -4.023  0.00  0.00    +0.410 HD
ATOM     13  H   LIG    1       -3.048  -0.597  -3.786  0.00  0.00    +0.420 HD
ENDBRANCH   8   9
BRANCH   1  15
ATOM     14  C   LIG    1        0.619  -0.820   0.796  0.00  0.00    +0.030 C 
ATOM     15  C   LIG    1       -0.425   0.220   0.384  0.00  0.00    +0.340 C 
ENDBRANCH   1  15
BRANCH   8  16
ATOM     16  N   LIG    1       -1.135  -1.784  -1.936  0.00  0.00    -0.490 NA
ATOM     17  H   LIG    1       -0.213  -1.377  -2.001  0.00  0.00    +0.360 HD
BRANCH  16  18
ATOM     18  O   LIG    1       -1.594  -2.250  -3.245  0.00  0.00    -0.230 OA
ATOM     19  C   LIG    1       -0.710  -3.179  -3.874  0.00  0.00    +0.240 C 
ENDBRANCH  16  18
ENDBRANCH   8  16
TORSDOF 4
ENDMDL
MODEL      784
REMARK  Name = ZINC000002024508
REMARK                            x       y       z     vdW  Elec       q    Type
REMARK                         _______ _______ _______ _____ _____    ______ ____
ROOT
ATOM      1  C   LIG    1       -0.015  -2.135  -1.043  0.00  0.00    +0.190 C 
ENDROOT
BRANCH   1   4
ATOM      2  C   LIG    1        0.158   1.455   0.269  0.00  0.00    +0.290 C 
ATOM      3  N   LIG    1        0.161  -0.009   0.209  0.00  0.00    -0.620 N 
ATOM      4  C   LIG    1        0.107  -0.634  -0.984  0.00  0.00    +0.500 C 
ATOM      5  O   LIG    1        0.157   0.012  -2.010  0.00  0.00    -0.520 OA
ATOM      6  C   LIG    1        0.221  -0.793   1.445  0.00  0.00    +0.280 C 
ENDBRANCH   1   4
BRANCH   1   7
ATOM      7  O   LIG    1        0.219  -2.579  -2.381  0.00  0.00    -0.520 OA
ATOM      8  H   LIG    1       -0.400  -2.217  -3.030  0.00  0.00    +0.390 HD
ENDBRANCH   1   7
BRANCH   1   9
ATOM      9  C   LIG    1       -1.422  -2.550  -0.607  0.00  0.00    +0.200 C 
BRANCH   9  10
ATOM     10  C   LIG    1       -1.588  -4.036  -0.794  0.00  0.00    +0.500 C 
ATOM     11  N   LIG    1       -0.911  -4.894  -0.006  0.00  0.00    -0.620 N 
ATOM     12  C   LIG    1       -0.105  -4.387   1.107  0.00  0.00    +0.280 C 
ATOM     13  C   LIG    1       -0.982  -6.335  -0.262  0.00  0.00    +0.290 C 
ATOM     14  O   LIG    1       -2.330  -4.459  -1.655  0.00  0.00    -0.520 OA
ENDBRANCH   9  10
BRANCH   9  15
ATOM     15  O   LIG    1       -2.390  -1.858  -1.399  0.00  0.00    -0.520 OA
ATOM     16  H   LIG    1       -2.321  -2.036  -2.347  0.00  0.00    +0.390 HD
ENDBRANCH   9  15
ENDBRANCH   1   9
TORSDOF 5
ENDMDL
MODEL      785
REMARK  Name = ZINC000039236627
REMARK                            x       y       z     vdW  Elec       q    Type
REMARK                         _______ _______ _______ _____ _____    ______ ____
ROOT
ATOM      1  C   LIG    1       -0.018   1.461   0.010  0.00  0.00    +0.350 C 
ATOM      2  N   LIG    1        0.002  -0.004   0.002  0.00  0.00    -0.560 N 
ATOM      3  C   LIG    1       -1.167  -0.684   0.004  0.00  0.00    +0.590 A 
ATOM      4  C   LIG    1       -1.112  -2.150  -0.004  0.00  0.00    -0.380 A 
ATOM      5  C   LIG    1       -2.263  -2.951  -0.004  0.00  0.00    +0.530 A 
ATOM      6  N   LIG    1       -2.105  -4.275  -0.012  0.00  0.00    -0.600 NA
ATOM      7  C   LIG    1       -0.904  -4.817  -0.021  0.00  0.00    +0.620 A 
ATOM      8  N   LIG    1        0.204  -4.101  -0.021  0.00  0.00    -0.590 NA
ATOM      9  C   LIG    1        0.149  -2.776  -0.014  0.00  0.00    +0.480 A 
ATOM     10  N   LIG    1        1.280  -1.989  -0.015  0.00  0.00    -0.520 N 
ATOM     11  C   LIG    1        2.603  -2.618  -0.024  0.00  0.00    +0.360 C 
ATOM     12  O   LIG    1       -2.232  -0.098   0.012  0.00  0.00    -0.510 OA
ATOM     13  C   LIG    1        1.180  -0.648  -0.013  0.00  0.00    +0.710 A 
ATOM     14  O   LIG    1        2.202   0.011  -0.013  0.00  0.00    -0.520 OA
ENDROOT
BRANCH   5  15
ATOM     15  N   LIG    1       -3.520  -2.386   0.005  0.00  0.00    -0.800 N 
ATOM     16  H   LIG    1       -4.307  -2.954   0.005  0.00  0.00    +0.410 HD
ATOM     17  H   LIG    1       -3.619  -1.421   0.011  0.00  0.00    +0.430 HD
ENDBRANCH   5  15
TORSDOF 1
ENDMDL
MODEL      786
REMARK  Name = ZINC000003892359
REMARK                            x       y       z     vdW  Elec       q    Type
REMARK                         _______ _______ _______ _____ _____    ______ ____
ROOT
ATOM      1  O   LIG    1        0.002  -0.004   0.002  0.00  0.00    -0.530 OA
ATOM      2  C   LIG    1       -0.014   1.209   0.009  0.00  0.00    +0.510 C 
ATOM      3  N   LIG    1       -1.191   1.867   0.018  0.00  0.00    -0.610 N 
ATOM      4  C   LIG    1       -1.236   3.337   0.020  0.00  0.00    +0.250 C 
ATOM      5  C   LIG    1       -2.182   3.793  -1.096  0.00  0.00    +0.220 C 
ATOM      6  O   LIG    1       -3.435   3.120  -0.956  0.00  0.00    -0.380 OA
ATOM      7  C   LIG    1       -3.354   1.699  -1.091  0.00  0.00    +0.220 C 
ATOM      8  C   LIG    1       -2.468   1.135   0.020  0.00  0.00    +0.260 C 
ENDROOT
BRANCH   2   9
ATOM      9  C   LIG    1        1.280   1.980   0.001  0.00  0.00    +0.340 C 
BRANCH   9  10
ATOM     10  N   LIG    1        2.407   1.043  -0.015  0.00  0.00    -0.560 N 
ATOM     11  C   LIG    1        2.971   0.569   1.103  0.00  0.00    +0.530 C 
ATOM     12  C   LIG    1        4.099  -0.368   0.732  0.00  0.00    +0.090 C 
ATOM     13  C   LIG    1        4.090  -0.354  -0.810  0.00  0.00    +0.090 C 
ATOM     14  O   LIG    1        2.631   0.847   2.233  0.00  0.00    -0.480 OA
ATOM     15  C   LIG    1        2.953   0.586  -1.149  0.00  0.00    +0.530 C 
ATOM     16  O   LIG    1        2.598   0.883  -2.269  0.00  0.00    -0.480 OA
ENDBRANCH   9  10
ENDBRANCH   2   9
TORSDOF 2
ENDMDL
MODEL      787
REMARK  Name = ZINC000054459275
REMARK                            x       y       z     vdW  Elec       q    Type
REMARK                         _______ _______ _______ _____ _____    ______ ____
ROOT
ATOM      1  N   LIG    1        4.181  -1.104  -2.214  0.00  0.00    -0.720 N 
ATOM      2  H   LIG    1        4.535  -0.833  -1.353  0.00  0.00    +0.410 HD
ATOM      3  C   LIG    1        5.018  -1.509  -3.190  0.00  0.00    +0.500 C 
ATOM      4  O   LIG    1        4.575  -1.847  -4.267  0.00  0.00    -0.510 OA
ENDROOT
BRANCH   1   5
ATOM      5  C   LIG    1        2.736  -1.073  -2.455  0.00  0.00    +0.300 C 
BRANCH   5   8
ATOM      6  N   LIG    1        0.688  -0.476  -1.203  0.00  0.00    -0.720 N 
ATOM      7  H   LIG    1        0.175  -0.710  -1.993  0.00  0.00    +0.400 HD
ATOM      8  C   LIG    1        2.031  -0.587  -1.215  0.00  0.00    +0.510 C 
ATOM      9  O   LIG    1        2.672  -0.295  -0.228  0.00  0.00    -0.540 OA
BRANCH   6  11
ATOM     10  C   LIG    1       -0.019   1.526   0.010  0.00  0.00    +0.020 C 
ATOM     11  C   LIG    1        0.002  -0.004   0.002  0.00  0.00    +0.230 C 
ATOM     12  C   LIG    1       -1.433  -0.534   0.013  0.00  0.00    +0.040 C 
ENDBRANCH   6  11
ENDBRANCH   5   8
ENDBRANCH   1   5
BRANCH   3  13
ATOM     13  C   LIG    1        6.504  -1.541  -2.942  0.00  0.00    +0.360 C 
BRANCH  13  14
ATOM     14  N   LIG    1        7.190  -2.013  -4.148  0.00  0.00    -0.380 N 
ATOM     15  C   LIG    1        8.180  -1.389  -4.809  0.00  0.00    +0.480 A 
ATOM     16  N   LIG    1        8.521  -2.134  -5.828  0.00  0.00    -0.540 NA
ATOM     17  C   LIG    1        7.774  -3.237  -5.851  0.00  0.00    +0.420 A 
ATOM     18  N   LIG    1        6.948  -3.212  -4.839  0.00  0.00    -0.290 NA
ENDBRANCH  13  14
ENDBRANCH   3  13
TORSDOF 5
ENDMDL
MODEL      788
REMARK  Name = ZINC000077011352
REMARK                            x       y       z     vdW  Elec       q    Type
REMARK                         _______ _______ _______ _____ _____    ______ ____
ROOT
ATOM      1  O   LIG    1        0.003  -0.004   0.025  0.00  0.00    -0.530 OA
ATOM      2  C   LIG    1       -0.014   1.217   0.021  0.00  0.00    +0.560 A 
ATOM      3  N   LIG    1       -1.185   1.887   0.041  0.00  0.00    -0.660 N 
ATOM      4  H   LIG    1       -2.023   1.399   0.058  0.00  0.00    +0.410 HD
ATOM      5  C   LIG    1       -1.192   3.248   0.037  0.00  0.00    +0.670 A 
ATOM      6  N   LIG    1       -0.071   3.938   0.013  0.00  0.00    -0.640 NA
ATOM      7  C   LIG    1        1.117   3.328  -0.007  0.00  0.00    +0.430 A 
ATOM      8  C   LIG    1        1.181   1.945   0.001  0.00  0.00    -0.350 A 
ENDROOT
BRANCH   5   9
ATOM      9  N   LIG    1       -2.389   3.913   0.058  0.00  0.00    -0.590 N 
ATOM     10  C   LIG    1       -2.439   5.379   0.172  0.00  0.00    +0.300 C 
ATOM     11  C   LIG    1       -3.350   5.918  -0.937  0.00  0.00    +0.220 C 
ATOM     12  O   LIG    1       -4.605   5.234  -0.889  0.00  0.00    -0.370 OA
ATOM     13  C   LIG    1       -4.515   3.828  -1.131  0.00  0.00    +0.230 C 
ATOM     14  C   LIG    1       -3.663   3.182  -0.038  0.00  0.00    +0.260 C 
ENDBRANCH   5   9
BRANCH   7  15
ATOM     15  O   LIG    1        2.256   4.060  -0.031  0.00  0.00    -0.440 OA
ATOM     16  H   LIG    1        2.109   5.016  -0.031  0.00  0.00    +0.410 HD
ENDBRANCH   7  15
BRANCH   8  17
ATOM     17  C   LIG    1        2.511   1.238  -0.021  0.00  0.00    +0.130 C 
BRANCH  17  18
ATOM     18  C   LIG    1        2.933   0.897   1.409  0.00  0.00    +0.160 C 
BRANCH  18  19
ATOM     19  O   LIG    1        4.194   0.226   1.388  0.00  0.00    -0.580 OA
ATOM     20  H   LIG    1        4.523  -0.020   2.263  0.00  0.00    +0.380 HD
ENDBRANCH  18  19
ENDBRANCH  17  18
ENDBRANCH   8  17
TORSDOF 5
ENDMDL
MODEL      789
REMARK  Name = ZINC000014533583
REMARK                            x       y       z     vdW  Elec       q    Type
REMARK                         _______ _______ _______ _____ _____    ______ ____
ROOT
ATOM      1  O   HYP A  1        0.002  -0.004   0.002  0.00  0.00    -0.510 OA
ATOM      2  C   HYP A  1       -0.014   1.209   0.009  0.00  0.00    +0.530 C 
ATOM      3  CA  HYP A  1       -1.322   1.952   0.031  0.00  0.00    +0.210 C 
ATOM      4  CB  HYP A  1       -2.244   1.342  -1.045  0.00  0.00    +0.090 C 
ATOM      5  CG  HYP A  1       -3.350   2.415  -1.192  0.00  0.00    +0.170 C 
ATOM      6  CD  HYP A  1       -2.718   3.717  -0.658  0.00  0.00    +0.270 C 
ATOM      7  N   HYP A  1       -1.335   3.400  -0.264  0.00  0.00    -0.610 N 
ATOM      8  C   UNK A  2       -0.198   4.106  -0.163  0.00  0.00    +0.550 C 
ATOM      9  C   UNK A  2        1.117   3.377  -0.071  0.00  0.00    +0.190 C 
ATOM     10  C   UNK A  2        1.887   3.920   1.133  0.00  0.00    +0.240 C 
ATOM     11  N   UNK A  2        3.237   3.338   1.145  0.00  0.00    -0.680 NA
ATOM     12  H   UNK A  2        3.744   3.584   0.308  0.00  0.00    +0.350 HD
ATOM     13  C   UNK A  2        3.198   1.881   1.327  0.00  0.00    +0.220 C 
ATOM     14  C   UNK A  2        2.436   1.239   0.161  0.00  0.00    +0.260 C 
ATOM     15  O   UNK A  2       -0.229   5.319  -0.147  0.00  0.00    -0.510 OA
ATOM     16  N   UNK A  2        1.137   1.905   0.001  0.00  0.00    -0.600 N 
ENDROOT
BRANCH   5  17
ATOM     17  OD  HYP A  1       -4.493   2.060  -0.411  0.00  0.00    -0.560 OA
ATOM     18  HD  HYP A  1       -5.219   2.696  -0.464  0.00  0.00    +0.390 HD
ENDBRANCH   5  17
TORSDOF 1
ENDMDL
MODEL      790
REMARK  Name = ZINC000002575476
REMARK                            x       y       z     vdW  Elec       q    Type
REMARK                         _______ _______ _______ _____ _____    ______ ____
ROOT
ATOM      1  C   ILE A  1        1.384  -2.537   2.519  0.00  0.00    +0.500 C 
ATOM      2  N   GLY A  2        2.727  -2.647   2.504  0.00  0.00    -0.680 N 
ATOM      3  H   GLY A  2        3.225  -2.405   1.708  0.00  0.00    +0.420 HD
ATOM      4  O   ILE A  1        0.762  -2.839   3.516  0.00  0.00    -0.530 OA
ENDROOT
BRANCH   1   5
ATOM      5  CA  ILE A  1        0.655  -2.037   1.299  0.00  0.00    +0.180 C 
BRANCH   5   6
ATOM      6  N   ILE A  1       -0.754  -2.446   1.369  0.00  0.00    -0.620 N 
ATOM      7  H1  ILE A  1       -1.177  -2.054   2.197  0.00  0.00    +0.440 HD
ATOM      8  H2  ILE A  1       -0.811  -3.452   1.406  0.00  0.00    +0.440 HD
ATOM      9  H3  ILE A  1       -1.242  -2.111   0.551  0.00  0.00    +0.440 HD
ENDBRANCH   5   6
BRANCH   5  10
ATOM     10  CB  ILE A  1        0.742  -0.511   1.242  0.00  0.00    -0.010 C 
ATOM     11  CG2 ILE A  1        2.210  -0.086   1.169  0.00  0.00    +0.080 C 
BRANCH  10  13
ATOM     12  CD1 ILE A  1       -0.019   1.526   0.010  0.00  0.00    +0.040 C 
ATOM     13  CG1 ILE A  1        0.002  -0.004   0.002  0.00  0.00    +0.010 C 
ENDBRANCH  10  13
ENDBRANCH   5  10
ENDBRANCH   1   5
BRANCH   2  14
ATOM     14  CA  GLY A  2        3.436  -3.132   3.691  0.00  0.00    +0.310 C 
BRANCH  14  15
ATOM     15  C   GLY A  2        4.917  -3.161   3.415  0.00  0.00    +0.490 C 
ATOM     16  N   GLY A  3        5.773  -3.577   4.370  0.00  0.00    -0.680 N 
ATOM     17  H   GLY A  3        5.435  -3.857   5.235  0.00  0.00    +0.410 HD
ATOM     18  O   GLY A  2        5.339  -2.811   2.333  0.00  0.00    -0.560 OA
BRANCH  16  19
ATOM     19  CA  GLY A  3        7.213  -3.605   4.102  0.00  0.00    +0.190 C 
BRANCH  19  20
ATOM     20  C   GLY A  3        7.941  -4.104   5.323  0.00  0.00    +0.490 C 
ATOM     21  OXT GLY A  3        9.156  -4.204   5.309  0.00  0.00    -0.680 OA
ATOM     22  O   GLY A  3        7.316  -4.408   6.324  0.00  0.00    -0.690 OA
ENDBRANCH  19  20
ENDBRANCH  16  19
ENDBRANCH  14  15
ENDBRANCH   2  14
TORSDOF 8
ENDMDL
MODEL      791
REMARK  Name = ZINC000004247371
REMARK                            x       y       z     vdW  Elec       q    Type
REMARK                         _______ _______ _______ _____ _____    ______ ____
ROOT
ATOM      1  N   LIG    1        1.279  -2.677  -2.210  0.00  0.00    -0.440 N 
ATOM      2  C   LIG    1        0.699  -3.003  -3.395  0.00  0.00    +0.560 A 
ATOM      3  N   LIG    1        1.611  -3.500  -4.206  0.00  0.00    -0.540 NA
ATOM      4  C   LIG    1        2.799  -3.520  -3.599  0.00  0.00    +0.360 A 
ATOM      5  N   LIG    1        4.064  -3.931  -3.986  0.00  0.00    -0.510 N 
ATOM      6  C   LIG    1        4.275  -4.487  -5.325  0.00  0.00    +0.340 C 
ATOM      7  C   LIG    1        5.098  -3.829  -3.130  0.00  0.00    +0.710 A 
ATOM      8  O   LIG    1        6.201  -4.198  -3.484  0.00  0.00    -0.540 OA
ATOM      9  N   LIG    1        4.942  -3.324  -1.894  0.00  0.00    -0.650 N 
ATOM     10  H   LIG    1        5.708  -3.261  -1.303  0.00  0.00    +0.440 HD
ATOM     11  C   LIG    1        3.735  -2.902  -1.463  0.00  0.00    +0.600 A 
ATOM     12  O   LIG    1        3.607  -2.447  -0.340  0.00  0.00    -0.520 OA
ATOM     13  C   LIG    1        2.626  -2.995  -2.323  0.00  0.00    -0.180 A 
ENDROOT
BRANCH   2  14
ATOM     14  N   LIG    1       -0.632  -2.839  -3.700  0.00  0.00    -0.820 N 
ATOM     15  H   LIG    1       -0.965  -3.099  -4.574  0.00  0.00    +0.430 HD
ATOM     16  H   LIG    1       -1.238  -2.464  -3.042  0.00  0.00    +0.420 HD
ENDBRANCH   2  14
BRANCH   1  17
ATOM     17  C   LIG    1        0.613  -2.097  -1.041  0.00  0.00    +0.330 C 
BRANCH  17  18
ATOM     18  C   LIG    1        0.652  -0.570  -1.138  0.00  0.00    +0.160 C 
BRANCH  18  20
ATOM     19  C   LIG    1       -0.017   1.425   0.010  0.00  0.00    +0.210 C 
ATOM     20  O   LIG    1        0.002  -0.004   0.002  0.00  0.00    -0.390 OA
ENDBRANCH  18  20
ENDBRANCH  17  18
ENDBRANCH   1  17
TORSDOF 4
ENDMDL
MODEL      792
REMARK  Name = ZINC000014628470
REMARK                            x       y       z     vdW  Elec       q    Type
REMARK                         _______ _______ _______ _____ _____    ______ ____
ROOT
ATOM      1  C   LIG    1       -0.019   1.526   0.010  0.00  0.00    +0.070 C 
ATOM      2  C   LIG    1        0.002  -0.004   0.002  0.00  0.00    +0.140 C 
ATOM      3  O   LIG    1        0.734  -0.491  -1.144  0.00  0.00    -0.360 OA
ATOM      4  C   LIG    1        1.116  -1.842  -0.806  0.00  0.00    +0.450 C 
ATOM      5  C   LIG    1        1.531  -1.775   0.681  0.00  0.00    +0.160 C 
ATOM      6  C   LIG    1        0.779  -0.538   1.226  0.00  0.00    +0.130 C 
ENDROOT
BRANCH   4   7
ATOM      7  N   LIG    1        2.244  -2.276  -1.634  0.00  0.00    -0.510 N 
ATOM      8  C   LIG    1        3.383  -1.515  -1.682  0.00  0.00    +0.340 A 
ATOM      9  C   LIG    1        4.423  -1.916  -2.445  0.00  0.00    -0.070 A 
ATOM     10  C   LIG    1        4.311  -3.121  -3.183  0.00  0.00    +0.540 A 
ATOM     11  N   LIG    1        3.173  -3.840  -3.108  0.00  0.00    -0.650 N 
ATOM     12  H   LIG    1        3.090  -4.666  -3.610  0.00  0.00    +0.440 HD
ATOM     13  O   LIG    1        5.236  -3.504  -3.878  0.00  0.00    -0.490 OA
ATOM     14  F   LIG    1        5.553  -1.179  -2.504  0.00  0.00    -0.100 F 
ATOM     15  C   LIG    1        2.154  -3.420  -2.335  0.00  0.00    +0.710 A 
ATOM     16  O   LIG    1        1.135  -4.080  -2.278  0.00  0.00    -0.520 OA
ENDBRANCH   4   7
BRANCH   5  17
ATOM     17  O   LIG    1        1.118  -2.957   1.370  0.00  0.00    -0.540 OA
ATOM     18  H   LIG    1        1.353  -2.968   2.308  0.00  0.00    +0.390 HD
ENDBRANCH   5  17
BRANCH   6  19
ATOM     19  O   LIG    1        1.704   0.442   1.699  0.00  0.00    -0.550 OA
ATOM     20  H   LIG    1        1.287   1.240   2.053  0.00  0.00    +0.390 HD
ENDBRANCH   6  19
TORSDOF 3
ENDMDL
MODEL      793
REMARK  Name = ZINC000095884055
REMARK                            x       y       z     vdW  Elec       q    Type
REMARK                         _______ _______ _______ _____ _____    ______ ____
ROOT
ATOM      1  S   LIG    1       -4.470   1.325   2.538  0.00  0.00    +2.700 S 
ATOM      2  O   LIG    1       -4.982   1.866   1.328  0.00  0.00    -1.070 OA
ATOM      3  O   LIG    1       -4.820   1.823   3.822  0.00  0.00    -1.050 OA
ENDROOT
BRANCH   1   4
ATOM      4  N   LIG    1       -2.820   1.421   2.432  0.00  0.00    -1.110 NA
ATOM      5  H   LIG    1       -2.308   1.791   3.168  0.00  0.00    +0.410 HD
BRANCH   4   6
ATOM      6  C   LIG    1       -2.135   0.949   1.227  0.00  0.00    +0.290 C 
BRANCH   6   7
ATOM      7  C   LIG    1       -0.699   1.479   1.216  0.00  0.00    +0.260 C 
BRANCH   7   8
ATOM      8  N   LIG    1       -0.012   1.005   0.008  0.00  0.00    -0.630 N 
ATOM      9  H   LIG    1       -0.500   1.339  -0.810  0.00  0.00    +0.440 HD
ATOM     10  H   LIG    1        0.935   1.354   0.000  0.00  0.00    +0.440 HD
ATOM     11  H   LIG    1        0.002  -0.004   0.002  0.00  0.00    +0.440 HD
ENDBRANCH   7   8
ENDBRANCH   6   7
ENDBRANCH   4   6
ENDBRANCH   1   4
BRANCH   1  12
ATOM     12  N   LIG    1       -4.868  -0.283   2.536  0.00  0.00    -1.190 NA
BRANCH  12  13
ATOM     13  C   LIG    1       -6.273  -0.690   2.621  0.00  0.00    +0.190 C 
BRANCH  13  14
ATOM     14  C   LIG    1       -6.363  -2.217   2.600  0.00  0.00    +0.470 C 
ATOM     15  F   LIG    1       -5.808  -2.701   1.411  0.00  0.00    -0.190 F 
ATOM     16  F   LIG    1       -7.705  -2.606   2.681  0.00  0.00    -0.200 F 
ATOM     17  F   LIG    1       -5.659  -2.741   3.690  0.00  0.00    -0.190 F 
ENDBRANCH  13  14
ENDBRANCH  12  13
ENDBRANCH   1  12
TORSDOF 7
ENDMDL
MODEL      794
REMARK  Name = ZINC000002563303
REMARK                            x       y       z     vdW  Elec       q    Type
REMARK                         _______ _______ _______ _____ _____    ______ ____
ROOT
ATOM      1  N   ILE A  3        1.639  -2.482  -2.350  0.00  0.00    -0.680 N 
ATOM      2  H   ILE A  3        1.679  -1.948  -3.158  0.00  0.00    +0.400 HD
ATOM      3  C   GLY A  2        2.309  -3.650  -2.279  0.00  0.00    +0.500 C 
ATOM      4  O   GLY A  2        2.259  -4.318  -1.268  0.00  0.00    -0.550 OA
ENDROOT
BRANCH   1   5
ATOM      5  CA  ILE A  3        0.849  -2.021  -1.205  0.00  0.00    +0.150 C 
BRANCH   5   6
ATOM      6  C   ILE A  3       -0.521  -2.645  -1.256  0.00  0.00    +0.500 C 
ATOM      7  OXT ILE A  3       -1.129  -2.866  -0.222  0.00  0.00    -0.690 OA
ATOM      8  O   ILE A  3       -1.023  -2.929  -2.330  0.00  0.00    -0.690 OA
ENDBRANCH   5   6
BRANCH   5   9
ATOM      9  CB  ILE A  3        0.718  -0.497  -1.257  0.00  0.00    -0.020 C 
ATOM     10  CG2 ILE A  3       -0.089  -0.097  -2.493  0.00  0.00    +0.010 C 
BRANCH   9  12
ATOM     11  CD1 ILE A  3       -0.019   1.526   0.010  0.00  0.00    +0.000 C 
ATOM     12  CG1 ILE A  3        0.002  -0.004   0.002  0.00  0.00    +0.020 C 
ENDBRANCH   9  12
ENDBRANCH   5   9
ENDBRANCH   1   5
BRANCH   3  13
ATOM     13  CA  GLY A  2        3.121  -4.124  -3.457  0.00  0.00    +0.320 C 
BRANCH  13  14
ATOM     14  N   GLY A  2        3.747  -5.408  -3.132  0.00  0.00    -0.680 N 
ATOM     15  H   GLY A  2        3.602  -5.813  -2.263  0.00  0.00    +0.420 HD
ATOM     16  C   GLY A  1        4.526  -6.027  -4.042  0.00  0.00    +0.490 C 
ATOM     17  O   GLY A  1        4.708  -5.521  -5.129  0.00  0.00    -0.540 OA
BRANCH  16  18
ATOM     18  CA  GLY A  1        5.171  -7.348  -3.708  0.00  0.00    +0.320 C 
BRANCH  18  19
ATOM     19  N   GLY A  1        5.962  -7.810  -4.856  0.00  0.00    -0.620 N 
ATOM     20  H1  GLY A  1        6.678  -7.131  -5.067  0.00  0.00    +0.440 HD
ATOM     21  H2  GLY A  1        5.359  -7.923  -5.656  0.00  0.00    +0.440 HD
ATOM     22  H3  GLY A  1        6.394  -8.694  -4.632  0.00  0.00    +0.440 HD
ENDBRANCH  18  19
ENDBRANCH  16  18
ENDBRANCH  13  14
ENDBRANCH   3  13
TORSDOF 8
ENDMDL
MODEL      795
REMARK  Name = ZINC000007979069
REMARK                            x       y       z     vdW  Elec       q    Type
REMARK                         _______ _______ _______ _____ _____    ______ ____
ROOT
ATOM      1  C   LIG    1        0.047  -1.812   5.055  0.00  0.00    +0.570 C 
ATOM      2  N   LIG    1        0.059  -2.897   5.854  0.00  0.00    -0.580 N 
ATOM      3  C   LIG    1        0.059  -2.872   7.325  0.00  0.00    +0.280 C 
ATOM      4  C   LIG    1        0.075  -4.362   7.719  0.00  0.00    +0.290 C 
ATOM      5  N   LIG    1        0.083  -5.068   6.429  0.00  0.00    -0.720 N 
ATOM      6  H   LIG    1        0.094  -6.031   6.316  0.00  0.00    +0.440 HD
ATOM      7  C   LIG    1        0.068  -4.169   5.436  0.00  0.00    +0.700 C 
ATOM      8  O   LIG    1        0.070  -4.480   4.261  0.00  0.00    -0.540 OA
ATOM      9  O   LIG    1        0.040  -0.701   5.541  0.00  0.00    -0.480 OA
ENDROOT
BRANCH   1  10
ATOM     10  C   LIG    1        0.043  -1.979   3.557  0.00  0.00    +0.150 C 
BRANCH  10  11
ATOM     11  S   LIG    1        0.026  -0.351   2.768  0.00  0.00    +0.100 S 
BRANCH  11  17
ATOM     12  C   LIG    1       -0.018   1.461   0.010  0.00  0.00    +0.390 C 
ATOM     13  N   LIG    1        0.002  -0.004   0.002  0.00  0.00    -0.360 N 
ATOM     14  N   LIG    1        0.009  -0.852  -1.120  0.00  0.00    -0.080 NA
ATOM     15  N   LIG    1        0.027  -2.061  -0.674  0.00  0.00    -0.030 NA
ATOM     16  N   LIG    1        0.032  -2.063   0.610  0.00  0.00    -0.330 NA
ATOM     17  C   LIG    1        0.024  -0.832   1.073  0.00  0.00    +0.200 A 
ENDBRANCH  11  17
ENDBRANCH  10  11
ENDBRANCH   1  10
TORSDOF 3
ENDMDL
MODEL      796
REMARK  Name = ZINC000004095591
REMARK                            x       y       z     vdW  Elec       q    Type
REMARK                         _______ _______ _______ _____ _____    ______ ____
ROOT
ATOM      1  P   LIG    1        2.399   1.249   3.681  0.00  0.00    +2.220 P 
ATOM      2  O   LIG    1        2.813  -0.238   3.622  0.00  0.00    -1.090 OA
ATOM      3  O   LIG    1        1.749   1.548   5.051  0.00  0.00    -1.090 OA
ENDROOT
BRANCH   1   4
ATOM      4  O   LIG    1        1.343   1.559   2.507  0.00  0.00    -0.770 OA
BRANCH   4   5
ATOM      5  C   LIG    1        0.041   0.972   2.456  0.00  0.00    +0.270 C 
BRANCH   5   6
ATOM      6  C   LIG    1       -0.699   1.479   1.216  0.00  0.00    +0.270 C 
BRANCH   6   7
ATOM      7  N   LIG    1       -0.012   1.005   0.008  0.00  0.00    -0.640 N 
ATOM      8  H   LIG    1       -0.500   1.339  -0.810  0.00  0.00    +0.430 HD
ATOM      9  H   LIG    1        0.935   1.354   0.000  0.00  0.00    +0.440 HD
ATOM     10  H   LIG    1        0.002  -0.004   0.002  0.00  0.00    +0.430 HD
ENDBRANCH   6   7
ENDBRANCH   5   6
ENDBRANCH   4   5
ENDBRANCH   1   4
BRANCH   1  11
ATOM     11  O   LIG    1        3.701   2.177   3.491  0.00  0.00    -0.760 OA
BRANCH  11  12
ATOM     12  C   LIG    1        4.776   2.212   4.432  0.00  0.00    +0.240 C 
BRANCH  12  13
ATOM     13  C   LIG    1        5.846   3.193   3.947  0.00  0.00    +0.210 C 
BRANCH  13  14
ATOM     14  O   LIG    1        5.309   4.517   3.937  0.00  0.00    -0.550 OA
ATOM     15  H   LIG    1        5.009   4.826   4.803  0.00  0.00    +0.370 HD
ENDBRANCH  13  14
BRANCH  13  16
ATOM     16  C   LIG    1        7.051   3.138   4.888  0.00  0.00    +0.150 C 
BRANCH  16  17
ATOM     17  O   LIG    1        8.095   3.966   4.372  0.00  0.00    -0.560 OA
ATOM     18  H   LIG    1        8.893   3.980   4.920  0.00  0.00    +0.380 HD
ENDBRANCH  16  17
ENDBRANCH  13  16
ENDBRANCH  12  13
ENDBRANCH  11  12
ENDBRANCH   1  11
TORSDOF 10
ENDMDL
MODEL      797
REMARK  Name = ZINC000004095590
REMARK                            x       y       z     vdW  Elec       q    Type
REMARK                         _______ _______ _______ _____ _____    ______ ____
ROOT
ATOM      1  P   LIG    1        2.399   1.249   3.681  0.00  0.00    +2.220 P 
ATOM      2  O   LIG    1        2.813  -0.238   3.622  0.00  0.00    -1.090 OA
ATOM      3  O   LIG    1        1.749   1.548   5.051  0.00  0.00    -1.090 OA
ENDROOT
BRANCH   1   4
ATOM      4  O   LIG    1        1.343   1.559   2.507  0.00  0.00    -0.770 OA
BRANCH   4   5
ATOM      5  C   LIG    1        0.041   0.972   2.456  0.00  0.00    +0.270 C 
BRANCH   5   6
ATOM      6  C   LIG    1       -0.699   1.479   1.216  0.00  0.00    +0.270 C 
BRANCH   6   7
ATOM      7  N   LIG    1       -0.012   1.005   0.008  0.00  0.00    -0.640 N 
ATOM      8  H   LIG    1       -0.500   1.339  -0.810  0.00  0.00    +0.430 HD
ATOM      9  H   LIG    1        0.935   1.354   0.000  0.00  0.00    +0.440 HD
ATOM     10  H   LIG    1        0.002  -0.004   0.002  0.00  0.00    +0.430 HD
ENDBRANCH   6   7
ENDBRANCH   5   6
ENDBRANCH   4   5
ENDBRANCH   1   4
BRANCH   1  11
ATOM     11  O   LIG    1        3.701   2.177   3.491  0.00  0.00    -0.760 OA
BRANCH  11  12
ATOM     12  C   LIG    1        4.776   2.212   4.432  0.00  0.00    +0.240 C 
BRANCH  12  13
ATOM     13  C   LIG    1        5.846   3.193   3.947  0.00  0.00    +0.210 C 
BRANCH  13  14
ATOM     14  O   LIG    1        6.422   2.707   2.733  0.00  0.00    -0.550 OA
ATOM     15  H   LIG    1        6.845   1.842   2.817  0.00  0.00    +0.370 HD
ENDBRANCH  13  14
BRANCH  13  16
ATOM     16  C   LIG    1        6.936   3.325   5.012  0.00  0.00    +0.150 C 
BRANCH  16  17
ATOM     17  O   LIG    1        7.874   4.326   4.612  0.00  0.00    -0.560 OA
ATOM     18  H   LIG    1        8.595   4.463   5.242  0.00  0.00    +0.380 HD
ENDBRANCH  16  17
ENDBRANCH  13  16
ENDBRANCH  12  13
ENDBRANCH  11  12
ENDBRANCH   1  11
TORSDOF 10
ENDMDL
MODEL      798
REMARK  Name = ZINC000205407530
REMARK                            x       y       z     vdW  Elec       q    Type
REMARK                         _______ _______ _______ _____ _____    ______ ____
ROOT
ATOM      1  O   LIG    1        0.002  -0.004   0.002  0.00  0.00    -0.440 OA
ATOM      2  C   LIG    1       -0.014   1.204   0.009  0.00  0.00    +0.460 C 
ATOM      3  O   LIG    1       -1.121   1.960   0.029  0.00  0.00    -0.310 OA
ATOM      4  C   LIG    1       -0.802   3.296   0.519  0.00  0.00    +0.180 C 
ATOM      5  C   LIG    1        0.659   3.531   0.071  0.00  0.00    +0.180 C 
ATOM      6  C   LIG    1        1.212   2.091   0.002  0.00  0.00    +0.120 C 
ENDROOT
BRANCH   5   7
ATOM      7  O   LIG    1        0.703   4.166  -1.208  0.00  0.00    -0.510 OA
ATOM      8  H   LIG    1        1.598   4.336  -1.533  0.00  0.00    +0.380 HD
ENDBRANCH   5   7
BRANCH   6   9
ATOM      9  O   LIG    1        2.039   1.821   1.135  0.00  0.00    -0.540 OA
ATOM     10  H   LIG    1        2.415   0.929   1.144  0.00  0.00    +0.400 HD
ENDBRANCH   6   9
BRANCH   4  11
ATOM     11  C   LIG    1       -1.732   4.333  -0.113  0.00  0.00    +0.220 C 
BRANCH  11  12
ATOM     12  O   LIG    1       -1.516   4.368  -1.526  0.00  0.00    -0.520 OA
ATOM     13  H   LIG    1       -1.685   3.525  -1.970  0.00  0.00    +0.370 HD
ENDBRANCH  11  12
BRANCH  11  14
ATOM     14  C   LIG    1       -3.187   3.956   0.172  0.00  0.00    +0.180 C 
BRANCH  14  15
ATOM     15  O   LIG    1       -3.430   2.622  -0.280  0.00  0.00    -0.530 OA
ATOM     16  H   LIG    1       -3.283   2.495  -1.227  0.00  0.00    +0.370 HD
ENDBRANCH  14  15
BRANCH  14  17
ATOM     17  C   LIG    1       -4.118   4.921  -0.563  0.00  0.00    +0.170 C 
BRANCH  17  18
ATOM     18  O   LIG    1       -5.473   4.642  -0.205  0.00  0.00    -0.570 OA
ATOM     19  H   LIG    1       -6.120   5.218  -0.635  0.00  0.00    +0.380 HD
ENDBRANCH  17  18
ENDBRANCH  14  17
ENDBRANCH  11  14
ENDBRANCH   4  11
TORSDOF 8
ENDMDL
MODEL      799
REMARK  Name = ZINC000000189779
REMARK                            x       y       z     vdW  Elec       q    Type
REMARK                         _______ _______ _______ _____ _____    ______ ____
ROOT
ATOM      1  C   LIG    1       -0.018   1.461   0.010  0.00  0.00    +0.360 C 
ATOM      2  N   LIG    1        0.002  -0.004   0.002  0.00  0.00    -0.400 N 
ATOM      3  C   LIG    1        0.009  -0.800  -1.085  0.00  0.00    +0.280 A 
ATOM      4  N   LIG    1        0.028  -2.054  -0.714  0.00  0.00    -0.480 NA
ATOM      5  C   LIG    1        0.034  -2.132   0.619  0.00  0.00    +0.320 A 
ATOM      6  N   LIG    1        0.053  -3.184   1.520  0.00  0.00    -0.510 N 
ATOM      7  C   LIG    1        0.063  -4.565   1.032  0.00  0.00    +0.350 C 
ATOM      8  C   LIG    1        0.052  -2.939   2.844  0.00  0.00    +0.710 A 
ATOM      9  O   LIG    1        0.064  -3.876   3.620  0.00  0.00    -0.530 OA
ATOM     10  N   LIG    1        0.042  -1.686   3.330  0.00  0.00    -0.550 N 
ATOM     11  C   LIG    1        0.046  -1.474   4.780  0.00  0.00    +0.360 C 
ATOM     12  C   LIG    1        0.028  -0.620   2.503  0.00  0.00    +0.600 A 
ATOM     13  O   LIG    1        0.019   0.510   2.955  0.00  0.00    -0.510 OA
ATOM     14  C   LIG    1        0.024  -0.831   1.107  0.00  0.00    -0.150 A 
ENDROOT
BRANCH   3  15
ATOM     15  C   LIG    1       -0.004  -0.317  -2.513  0.00  0.00    +0.330 C 
BRANCH  15  16
ATOM     16  O   LIG    1        1.340  -0.147  -2.970  0.00  0.00    -0.560 OA
ATOM     17  H   LIG    1        1.409   0.163  -3.883  0.00  0.00    +0.400 HD
ENDBRANCH  15  16
ENDBRANCH   3  15
TORSDOF 2
ENDMDL
MODEL      800
REMARK  Name = ZINC000077318949
REMARK                            x       y       z     vdW  Elec       q    Type
REMARK                         _______ _______ _______ _____ _____    ______ ____
ROOT
ATOM      1  C   LIG    1        0.726  -0.404   1.288  0.00  0.00    +0.210 C 
ATOM      2  C   LIG    1        0.778  -1.931   1.412  0.00  0.00    +0.220 C 
ATOM      3  O   LIG    1        1.608  -2.285   2.521  0.00  0.00    -0.370 OA
ATOM      4  C   LIG    1        2.970  -1.873   2.388  0.00  0.00    +0.210 C 
ATOM      5  C   LIG    1        3.030  -0.343   2.314  0.00  0.00    +0.250 C 
ATOM      6  N   LIG    1        2.105   0.108   1.262  0.00  0.00    -0.610 N 
ATOM      7  C   LIG    1        2.510   0.964   0.302  0.00  0.00    +0.500 C 
ATOM      8  O   LIG    1        1.710   1.400  -0.498  0.00  0.00    -0.500 OA
ENDROOT
BRANCH   1  10
ATOM      9  C   LIG    1       -1.407  -0.599   0.001  0.00  0.00    +0.010 C 
ATOM     10  C   LIG    1        0.008  -0.016  -0.006  0.00  0.00    +0.050 C 
ENDBRANCH   1  10
BRANCH   7  11
ATOM     11  C   LIG    1        3.957   1.378   0.224  0.00  0.00    +0.370 C 
BRANCH  11  12
ATOM     12  N   LIG    1        4.139   2.306  -0.896  0.00  0.00    -0.410 N 
ATOM     13  N   LIG    1        4.449   1.984  -2.229  0.00  0.00    -0.080 NA
ATOM     14  N   LIG    1        4.516   3.097  -2.875  0.00  0.00    -0.010 NA
ATOM     15  N   LIG    1        4.280   4.085  -2.088  0.00  0.00    -0.370 NA
ATOM     16  C   LIG    1        4.039   3.655  -0.870  0.00  0.00    +0.510 A 
BRANCH  16  17
ATOM     17  N   LIG    1        3.746   4.436   0.235  0.00  0.00    -0.810 N 
ATOM     18  H   LIG    1        3.583   4.018   1.095  0.00  0.00    +0.410 HD
ATOM     19  H   LIG    1        3.705   5.401   0.148  0.00  0.00    +0.430 HD
ENDBRANCH  16  17
ENDBRANCH  11  12
ENDBRANCH   7  11
TORSDOF 4
ENDMDL
MODEL      801
REMARK  Name = ZINC000000231552
REMARK                            x       y       z     vdW  Elec       q    Type
REMARK                         _______ _______ _______ _____ _____    ______ ____
ROOT
ATOM      1  O   LIG    1       -0.004   0.068  -0.845  0.00  0.00    -0.540 OA
ATOM      2  C   LIG    1       -0.033   1.269  -0.653  0.00  0.00    +0.700 A 
ATOM      3  N   LIG    1        0.511   1.773   0.470  0.00  0.00    -0.630 N 
ATOM      4  H   LIG    1        0.920   1.176   1.116  0.00  0.00    +0.440 HD
ATOM      5  C   LIG    1        0.491   3.126   0.710  0.00  0.00    +0.310 A 
ATOM      6  C   LIG    1       -0.080   3.956  -0.193  0.00  0.00    +0.010 A 
ATOM      7  C   LIG    1       -0.649   3.406  -1.372  0.00  0.00    +0.540 A 
ATOM      8  O   LIG    1       -1.169   4.131  -2.200  0.00  0.00    -0.500 OA
ATOM      9  N   LIG    1       -0.603   2.073  -1.569  0.00  0.00    -0.660 N 
ATOM     10  H   LIG    1       -0.989   1.690  -2.373  0.00  0.00    +0.430 HD
ENDROOT
BRANCH   6  11
ATOM     11  N   LIG    1       -0.111   5.344   0.034  0.00  0.00    -0.620 N 
BRANCH  11  12
ATOM     12  C   LIG    1       -1.395   6.036   0.172  0.00  0.00    +0.320 C 
BRANCH  12  13
ATOM     13  C   LIG    1       -1.812   6.045   1.644  0.00  0.00    +0.140 C 
BRANCH  13  14
ATOM     14  O   LIG    1       -0.881   6.823   2.399  0.00  0.00    -0.570 OA
ATOM     15  H   LIG    1       -1.084   6.873   3.343  0.00  0.00    +0.380 HD
ENDBRANCH  13  14
ENDBRANCH  12  13
ENDBRANCH  11  12
BRANCH  11  16
ATOM     16  C   LIG    1        1.142   6.098   0.131  0.00  0.00    +0.310 C 
BRANCH  16  17
ATOM     17  C   LIG    1        1.618   6.479  -1.272  0.00  0.00    +0.140 C 
BRANCH  17  18
ATOM     18  O   LIG    1        0.680   7.379  -1.865  0.00  0.00    -0.560 OA
ATOM     19  H   LIG    1        0.918   7.663  -2.759  0.00  0.00    +0.380 HD
ENDBRANCH  17  18
ENDBRANCH  16  17
ENDBRANCH  11  16
ENDBRANCH   6  11
TORSDOF 7
ENDMDL
MODEL      802
REMARK  Name = ZINC000001407251
REMARK                            x       y       z     vdW  Elec       q    Type
REMARK                         _______ _______ _______ _____ _____    ______ ____
ROOT
ATOM      1  C   LIG    1       -0.018   1.503   0.010  0.00  0.00    +0.150 C 
ATOM      2  C   LIG    1        0.002  -0.004   0.002  0.00  0.00    +0.200 A 
ATOM      3  C   LIG    1       -1.171  -0.701   0.004  0.00  0.00    -0.140 A 
ATOM      4  C   LIG    1       -1.128  -2.107  -0.004  0.00  0.00    +0.510 A 
ATOM      5  N   LIG    1        0.076  -2.718  -0.014  0.00  0.00    -0.340 N 
ATOM      6  C   LIG    1        1.214  -1.970  -0.015  0.00  0.00    +0.350 A 
ATOM      7  O   LIG    1       -2.158  -2.761  -0.004  0.00  0.00    -0.540 OA
ATOM      8  N   LIG    1        1.164  -0.652  -0.013  0.00  0.00    -0.540 NA
ENDROOT
BRANCH   5   9
ATOM      9  N   LIG    1        0.152  -4.082  -0.023  0.00  0.00    -0.600 N 
ATOM     10  H   LIG    1        0.693  -4.409  -0.809  0.00  0.00    +0.360 HD
ATOM     11  H   LIG    1       -0.769  -4.495  -0.021  0.00  0.00    +0.390 HD
ENDBRANCH   5   9
BRANCH   6  12
ATOM     12  S   LIG    1        2.781  -2.777  -0.028  0.00  0.00    +0.120 S 
BRANCH  12  13
ATOM     13  C   LIG    1        3.876  -1.337  -0.025  0.00  0.00    +0.100 C 
BRANCH  13  14
ATOM     14  C   LIG    1        5.311  -1.797  -0.035  0.00  0.00    +0.540 C 
ATOM     15  O   LIG    1        5.568  -2.982  -0.043  0.00  0.00    -0.530 OA
ATOM     16  N   LIG    1        6.309  -0.891  -0.034  0.00  0.00    -0.840 N 
ATOM     17  H   LIG    1        7.233  -1.188  -0.040  0.00  0.00    +0.410 HD
ATOM     18  H   LIG    1        6.104   0.057  -0.028  0.00  0.00    +0.410 HD
ENDBRANCH  13  14
ENDBRANCH  12  13
ENDBRANCH   6  12
TORSDOF 4
ENDMDL
MODEL      803
REMARK  Name = ZINC000239297277
REMARK                            x       y       z     vdW  Elec       q    Type
REMARK                         _______ _______ _______ _____ _____    ______ ____
ROOT
ATOM      1  C   LIG    1       -0.019   1.526   0.010  0.00  0.00    +0.130 C 
ATOM      2  C   LIG    1        0.002  -0.004   0.002  0.00  0.00    +0.140 C 
ATOM      3  C   LIG    1        0.809  -0.708  -1.123  0.00  0.00    -0.010 C 
ATOM      4  C   LIG    1        0.970  -1.953  -0.699  0.00  0.00    +0.000 C 
ATOM      5  C   LIG    1        0.392  -2.078   0.705  0.00  0.00    +0.170 C 
ATOM      6  C   LIG    1       -1.071  -1.968   0.783  0.00  0.00    -0.080 C 
ATOM      7  C   LIG    1       -2.358  -2.605   0.773  0.00  0.00    +0.590 C 
ATOM      8  N   LIG    1       -3.227  -1.528   0.848  0.00  0.00    -0.720 N 
ATOM      9  H   LIG    1       -4.159  -1.603   1.103  0.00  0.00    +0.420 HD
ATOM     10  C   LIG    1       -2.616  -0.342   0.518  0.00  0.00    +0.550 C 
ATOM     11  O   LIG    1       -3.007   0.782   0.749  0.00  0.00    -0.450 OA
ATOM     12  O   LIG    1       -2.620  -3.787   0.714  0.00  0.00    -0.450 OA
ATOM     13  C   LIG    1       -1.355  -0.719  -0.183  0.00  0.00    -0.010 C 
ATOM     14  O   LIG    1        0.659  -0.668   1.142  0.00  0.00    -0.350 OA
ENDROOT
BRANCH   5  15
ATOM     15  C   LIG    1        1.005  -3.189   1.559  0.00  0.00    +0.240 C 
BRANCH  15  16
ATOM     16  O   LIG    1        2.413  -2.974   1.681  0.00  0.00    -0.560 OA
ATOM     17  H   LIG    1        2.868  -3.642   2.211  0.00  0.00    +0.390 HD
ENDBRANCH  15  16
ENDBRANCH   5  15
TORSDOF 2
ENDMDL
MODEL      804
REMARK  Name = ZINC000022588876
REMARK                            x       y       z     vdW  Elec       q    Type
REMARK                         _______ _______ _______ _____ _____    ______ ____
ROOT
ATOM      1  C   LIG    1        0.679  -2.115   1.088  0.00  0.00    +0.390 C 
ATOM      2  N   LIG    1       -0.596  -2.713   0.678  0.00  0.00    -0.740 N 
ATOM      3  H   LIG    1       -1.216  -3.098   1.317  0.00  0.00    +0.420 HD
ATOM      4  C   LIG    1       -0.857  -2.690  -0.684  0.00  0.00    +0.550 C 
ATOM      5  N   LIG    1        0.120  -2.756  -1.544  0.00  0.00    -0.340 NA
ATOM      6  N   LIG    1        1.452  -2.920  -1.118  0.00  0.00    -0.270 NA
ATOM      7  N   LIG    1        1.174  -2.573   2.385  0.00  0.00    -0.600 N 
ATOM      8  C   LIG    1        0.417  -2.624   3.639  0.00  0.00    +0.360 C 
ATOM      9  C   LIG    1        2.449  -2.963   2.198  0.00  0.00    +0.720 C 
ATOM     10  O   LIG    1        3.186  -3.319   3.097  0.00  0.00    -0.520 OA
ATOM     11  N   LIG    1        2.822  -2.898   0.905  0.00  0.00    -0.550 N 
ATOM     12  C   LIG    1        4.193  -3.050   0.413  0.00  0.00    +0.350 C 
ATOM     13  C   LIG    1        1.722  -2.669   0.122  0.00  0.00    +0.300 C 
ENDROOT
BRANCH   1  14
ATOM     14  C   LIG    1        0.618  -0.611   1.029  0.00  0.00    +0.450 C 
ATOM     15  O   LIG    1        1.124   0.049   1.905  0.00  0.00    -0.470 OA
BRANCH  14  17
ATOM     16  C   LIG    1       -0.018   1.448   0.010  0.00  0.00    +0.290 C 
ATOM     17  O   LIG    1        0.002  -0.004   0.002  0.00  0.00    -0.340 OA
ENDBRANCH  14  17
ENDBRANCH   1  14
TORSDOF 2
ENDMDL
MODEL      805
REMARK  Name = ZINC000022588881
REMARK                            x       y       z     vdW  Elec       q    Type
REMARK                         _______ _______ _______ _____ _____    ______ ____
ROOT
ATOM      1  C   LIG    1        0.679  -2.115   1.088  0.00  0.00    +0.390 C 
ATOM      2  N   LIG    1        0.950  -2.687  -0.235  0.00  0.00    -0.740 N 
ATOM      3  H   LIG    1        1.819  -3.046  -0.474  0.00  0.00    +0.420 HD
ATOM      4  C   LIG    1       -0.117  -2.678  -1.121  0.00  0.00    +0.550 C 
ATOM      5  N   LIG    1       -1.339  -2.780  -0.682  0.00  0.00    -0.340 NA
ATOM      6  N   LIG    1       -1.606  -2.971   0.687  0.00  0.00    -0.270 NA
ATOM      7  N   LIG    1        1.586  -2.566   2.143  0.00  0.00    -0.600 N 
ATOM      8  C   LIG    1        3.049  -2.580   2.085  0.00  0.00    +0.360 C 
ATOM      9  C   LIG    1        0.815  -2.991   3.162  0.00  0.00    +0.720 C 
ATOM     10  O   LIG    1        1.255  -3.353   4.236  0.00  0.00    -0.520 OA
ATOM     11  N   LIG    1       -0.498  -2.954   2.864  0.00  0.00    -0.550 N 
ATOM     12  C   LIG    1       -1.587  -3.147   3.824  0.00  0.00    +0.360 C 
ATOM     13  C   LIG    1       -0.658  -2.709   1.526  0.00  0.00    +0.300 C 
ENDROOT
BRANCH   1  14
ATOM     14  C   LIG    1        0.618  -0.611   1.029  0.00  0.00    +0.450 C 
ATOM     15  O   LIG    1        1.124   0.049   1.905  0.00  0.00    -0.470 OA
BRANCH  14  17
ATOM     16  C   LIG    1       -0.018   1.448   0.010  0.00  0.00    +0.290 C 
ATOM     17  O   LIG    1        0.002  -0.004   0.002  0.00  0.00    -0.340 OA
ENDBRANCH  14  17
ENDBRANCH   1  14
TORSDOF 2
ENDMDL
MODEL      806
REMARK  Name = ZINC000000291431
REMARK                            x       y       z     vdW  Elec       q    Type
REMARK                         _______ _______ _______ _____ _____    ______ ____
ROOT
ATOM      1  O   LIG    1        0.002  -0.004   0.002  0.00  0.00    -0.430 OA
ATOM      2  C   LIG    1       -0.014   1.209   0.009  0.00  0.00    +0.500 A 
ATOM      3  N   LIG    1       -1.109   1.988   0.029  0.00  0.00    -0.650 N 
ATOM      4  H   LIG    1       -2.018   1.650   0.040  0.00  0.00    +0.430 HD
ATOM      5  C   LIG    1       -0.777   3.335   0.032  0.00  0.00    +0.270 A 
ATOM      6  C   LIG    1       -1.577   4.471   0.050  0.00  0.00    -0.040 A 
ATOM      7  C   LIG    1       -1.006   5.737   0.049  0.00  0.00    +0.270 A 
ATOM      8  C   LIG    1        0.399   5.867   0.029  0.00  0.00    -0.280 A 
ATOM      9  C   LIG    1        0.689   7.310   0.033  0.00  0.00    +0.400 A 
ATOM     10  C   LIG    1       -0.657   7.969   0.056  0.00  0.00    +0.500 A 
ATOM     11  O   LIG    1       -0.870   9.164   0.066  0.00  0.00    -0.430 OA
ATOM     12  O   LIG    1        1.777   7.847   0.019  0.00  0.00    -0.360 OA
ATOM     13  C   LIG    1        1.211   4.736   0.010  0.00  0.00    +0.270 A 
ATOM     14  N   LIG    1       -1.586   6.998   0.064  0.00  0.00    -0.650 N 
ATOM     15  H   LIG    1       -2.542   7.158   0.079  0.00  0.00    +0.430 HD
ATOM     16  C   LIG    1        0.627   3.473   0.012  0.00  0.00    -0.280 A 
ATOM     17  C   LIG    1        1.183   2.111   0.002  0.00  0.00    +0.400 A 
ATOM     18  O   LIG    1        2.354   1.788  -0.011  0.00  0.00    -0.360 OA
ENDROOT
TORSDOF 0
ENDMDL
MODEL      807
REMARK  Name = ZINC000014807401
REMARK                            x       y       z     vdW  Elec       q    Type
REMARK                         _______ _______ _______ _____ _____    ______ ____
ROOT
ATOM      1  C   LIG    1       -2.580  -2.823   0.011  0.00  0.00    +0.210 C 
ENDROOT
BRANCH   1   2
ATOM      2  C   LIG    1       -1.246  -2.121   0.003  0.00  0.00    +0.350 C 
ATOM      3  O   LIG    1       -0.225  -2.765  -0.011  0.00  0.00    -0.380 OA
BRANCH   2   4
ATOM      4  C   LIG    1       -1.189  -0.631   0.010  0.00  0.00    +0.430 C 
ATOM      5  O   LIG    1       -2.215   0.015   0.023  0.00  0.00    -0.470 OA
BRANCH   4   7
ATOM      6  C   LIG    1       -0.018   1.448   0.010  0.00  0.00    +0.280 C 
ATOM      7  O   LIG    1        0.002  -0.004   0.002  0.00  0.00    -0.340 OA
ENDBRANCH   4   7
ENDBRANCH   2   4
ENDBRANCH   1   2
BRANCH   1   8
ATOM      8  O   LIG    1       -2.407  -4.168   0.464  0.00  0.00    -0.520 OA
ATOM      9  H   LIG    1       -1.811  -4.694  -0.087  0.00  0.00    +0.390 HD
ENDBRANCH   1   8
BRANCH   1  10
ATOM     10  C   LIG    1       -3.161  -2.832  -1.404  0.00  0.00    +0.170 C 
BRANCH  10  11
ATOM     11  O   LIG    1       -3.334  -1.487  -1.856  0.00  0.00    -0.540 OA
ATOM     12  H   LIG    1       -3.930  -0.961  -1.305  0.00  0.00    +0.390 HD
ENDBRANCH  10  11
BRANCH  10  13
ATOM     13  C   LIG    1       -4.515  -3.545  -1.395  0.00  0.00    +0.210 C 
BRANCH  13  14
ATOM     14  O   LIG    1       -5.371  -2.929  -0.430  0.00  0.00    -0.540 OA
ATOM     15  H   LIG    1       -5.543  -1.992  -0.598  0.00  0.00    +0.370 HD
ENDBRANCH  13  14
BRANCH  13  16
ATOM     16  C   LIG    1       -5.153  -3.445  -2.781  0.00  0.00    +0.170 C 
BRANCH  16  17
ATOM     17  O   LIG    1       -6.361  -4.208  -2.806  0.00  0.00    -0.560 OA
ATOM     18  H   LIG    1       -6.821  -4.190  -3.657  0.00  0.00    +0.380 HD
ENDBRANCH  16  17
ENDBRANCH  13  16
ENDBRANCH  10  13
ENDBRANCH   1  10
TORSDOF 10
ENDMDL
MODEL      808
REMARK  Name = ZINC000100018043
REMARK                            x       y       z     vdW  Elec       q    Type
REMARK                         _______ _______ _______ _____ _____    ______ ____
ROOT
ATOM      1  N   LIG    1       -1.372  -0.511   0.012  0.00  0.00    -0.570 N 
ATOM      2  C   LIG    1       -2.065  -0.771   1.141  0.00  0.00    +0.620 C 
ATOM      3  C   LIG    1       -3.463  -0.978   0.782  0.00  0.00    -0.290 C 
ATOM      4  C   LIG    1       -4.788  -0.955   0.985  0.00  0.00    +0.270 C 
ATOM      5  N   LIG    1       -5.462  -0.978  -0.218  0.00  0.00    -0.560 N 
ATOM      6  H   LIG    1       -6.427  -0.996  -0.315  0.00  0.00    +0.450 HD
ATOM      7  N   LIG    1       -4.564  -0.973  -1.264  0.00  0.00    -0.390 NA
ATOM      8  H   LIG    1       -4.881  -1.565  -2.016  0.00  0.00    +0.360 HD
ATOM      9  C   LIG    1       -3.328  -1.500  -0.662  0.00  0.00    +0.150 C 
ATOM     10  O   LIG    1       -1.603  -0.822   2.266  0.00  0.00    -0.460 OA
ATOM     11  C   LIG    1       -2.086  -0.764  -1.108  0.00  0.00    +0.560 C 
ATOM     12  O   LIG    1       -1.788  -0.465  -2.244  0.00  0.00    -0.460 OA
ENDROOT
BRANCH   1  14
ATOM     13  C   LIG    1       -0.019   1.526   0.010  0.00  0.00    +0.030 C 
ATOM     14  C   LIG    1        0.002  -0.004   0.002  0.00  0.00    +0.300 C 
ENDBRANCH   1  14
BRANCH   4  15
ATOM     15  C   LIG    1       -5.438  -0.912   2.317  0.00  0.00    +0.510 C 
ATOM     16  O   LIG    1       -4.759  -0.894   3.323  0.00  0.00    -0.450 OA
BRANCH  15  17
ATOM     17  O   LIG    1       -6.782  -0.892   2.410  0.00  0.00    -0.350 OA
ATOM     18  C   LIG    1       -7.349  -0.850   3.746  0.00  0.00    +0.290 C 
ENDBRANCH  15  17
ENDBRANCH   4  15
TORSDOF 3
ENDMDL
MODEL      809
REMARK  Name = ZINC000100018047
REMARK                            x       y       z     vdW  Elec       q    Type
REMARK                         _______ _______ _______ _____ _____    ______ ____
ROOT
ATOM      1  N   LIG    1       -1.372  -0.511   0.012  0.00  0.00    -0.570 N 
ATOM      2  C   LIG    1       -2.065  -0.771   1.141  0.00  0.00    +0.620 C 
ATOM      3  C   LIG    1       -3.463  -0.978   0.782  0.00  0.00    -0.290 C 
ATOM      4  C   LIG    1       -4.788  -0.955   0.985  0.00  0.00    +0.270 C 
ATOM      5  N   LIG    1       -5.462  -0.978  -0.218  0.00  0.00    -0.560 N 
ATOM      6  H   LIG    1       -6.427  -0.996  -0.315  0.00  0.00    +0.450 HD
ATOM      7  N   LIG    1       -4.564  -0.973  -1.264  0.00  0.00    -0.390 NA
ATOM      8  H   LIG    1       -4.881  -1.565  -2.016  0.00  0.00    +0.360 HD
ATOM      9  C   LIG    1       -3.328  -1.500  -0.662  0.00  0.00    +0.150 C 
ATOM     10  O   LIG    1       -1.603  -0.822   2.266  0.00  0.00    -0.460 OA
ATOM     11  C   LIG    1       -2.086  -0.764  -1.108  0.00  0.00    +0.560 C 
ATOM     12  O   LIG    1       -1.788  -0.465  -2.244  0.00  0.00    -0.460 OA
ENDROOT
BRANCH   1  14
ATOM     13  C   LIG    1       -0.019   1.526   0.010  0.00  0.00    +0.030 C 
ATOM     14  C   LIG    1        0.002  -0.004   0.002  0.00  0.00    +0.300 C 
ENDBRANCH   1  14
BRANCH   4  15
ATOM     15  C   LIG    1       -5.438  -0.912   2.317  0.00  0.00    +0.510 C 
ATOM     16  O   LIG    1       -4.759  -0.894   3.323  0.00  0.00    -0.450 OA
BRANCH  15  17
ATOM     17  O   LIG    1       -6.782  -0.892   2.410  0.00  0.00    -0.350 OA
ATOM     18  C   LIG    1       -7.349  -0.850   3.746  0.00  0.00    +0.290 C 
ENDBRANCH  15  17
ENDBRANCH   4  15
TORSDOF 3
ENDMDL
MODEL      810
REMARK  Name = ZINC000095909891
REMARK                            x       y       z     vdW  Elec       q    Type
REMARK                         _______ _______ _______ _____ _____    ______ ____
ROOT
ATOM      1  C   LIG    1       -0.019   1.526   0.010  0.00  0.00    +0.030 C 
ATOM      2  C   LIG    1        0.002  -0.004   0.002  0.00  0.00    +0.150 C 
ATOM      3  C   LIG    1       -1.435  -0.553   0.090  0.00  0.00    -0.010 C 
ATOM      4  C   LIG    1       -1.386  -1.693   1.127  0.00  0.00    +0.140 C 
ATOM      5  C   LIG    1       -0.256  -1.275   2.105  0.00  0.00    +0.160 C 
ATOM      6  C   LIG    1       -0.897  -0.423   3.190  0.00  0.00    +0.040 C 
ATOM      7  C   LIG    1       -0.032   0.711   3.644  0.00  0.00    +0.490 C 
ATOM      8  O   LIG    1        0.718   1.380   2.748  0.00  0.00    -0.360 OA
ATOM      9  C   LIG    1        1.566   0.521   1.935  0.00  0.00    +0.290 C 
ATOM     10  O   LIG    1       -0.007   1.024   4.811  0.00  0.00    -0.450 OA
ATOM     11  C   LIG    1        0.738  -0.525   1.234  0.00  0.00    +0.000 C 
ENDROOT
BRANCH   5  12
ATOM     12  O   LIG    1        0.361  -2.433   2.673  0.00  0.00    -0.530 OA
ATOM     13  H   LIG    1       -0.241  -2.985   3.191  0.00  0.00    +0.390 HD
ENDBRANCH   5  12
BRANCH   4  14
ATOM     14  O   LIG    1       -1.067  -2.933   0.491  0.00  0.00    -0.540 OA
ATOM     15  H   LIG    1       -1.713  -3.213  -0.171  0.00  0.00    +0.380 HD
ENDBRANCH   4  14
BRANCH   2  16
ATOM     16  O   LIG    1        0.638  -0.479  -1.186  0.00  0.00    -0.550 OA
ATOM     17  H   LIG    1        0.209  -0.192  -2.004  0.00  0.00    +0.380 HD
ENDBRANCH   2  16
TORSDOF 3
ENDMDL
MODEL      811
REMARK  Name = ZINC000004110793
REMARK                            x       y       z     vdW  Elec       q    Type
REMARK                         _______ _______ _______ _____ _____    ______ ____
ROOT
ATOM      1  C   LIG    1       -2.127  -0.330  -1.699  0.00  0.00    -0.450 C 
ATOM      2  C   LIG    1       -2.086   1.196  -1.895  0.00  0.00    +0.110 C 
ATOM      3  C   LIG    1       -2.950   1.560  -3.119  0.00  0.00    -0.300 C 
ATOM      4  S   LIG    1       -4.216   0.245  -3.217  0.00  0.00    +2.410 S 
ATOM      5  O   LIG    1       -4.040  -0.490  -4.420  0.00  0.00    -0.930 OA
ATOM      6  O   LIG    1       -5.489   0.792  -2.902  0.00  0.00    -0.930 OA
ATOM      7  C   LIG    1       -3.615  -0.752  -1.800  0.00  0.00    -0.280 C 
ENDROOT
BRANCH   1   8
ATOM      8  S   LIG    1       -1.467  -0.765  -0.066  0.00  0.00    +2.630 S 
ATOM      9  O   LIG    1       -2.095   0.008   0.947  0.00  0.00    -0.940 OA
ATOM     10  O   LIG    1       -1.340  -2.175   0.061  0.00  0.00    -0.940 OA
BRANCH   8  12
ATOM     11  C   LIG    1        1.066  -0.809  -1.012  0.00  0.00    +0.300 C 
ATOM     12  N   LIG    1        0.094  -0.214  -0.091  0.00  0.00    -1.120 NA
ATOM     13  H   LIG    1        0.366   0.502   0.504  0.00  0.00    +0.420 HD
ENDBRANCH   8  12
ENDBRANCH   1   8
TORSDOF 2
ENDMDL
MODEL      812
REMARK  Name = ZINC000006066809
REMARK                            x       y       z     vdW  Elec       q    Type
REMARK                         _______ _______ _______ _____ _____    ______ ____
ROOT
ATOM      1  C   LIG    1       -0.019   1.526   0.010  0.00  0.00    -0.000 C 
ATOM      2  C   LIG    1        0.002  -0.004   0.002  0.00  0.00    +0.390 C 
ATOM      3  O   LIG    1        0.666  -0.462  -1.177  0.00  0.00    -0.380 OA
ATOM      4  C   LIG    1        2.043  -0.078  -1.267  0.00  0.00    +0.260 C 
ATOM      5  C   LIG    1        2.771  -0.601  -0.028  0.00  0.00    +0.130 C 
ATOM      6  O   LIG    1        4.127  -0.161  -0.002  0.00  0.00    -0.390 OA
ATOM      7  C   LIG    1        4.864  -0.662   1.118  0.00  0.00    +0.310 C 
ATOM      8  C   LIG    1        4.221  -0.189   2.423  0.00  0.00    +0.140 C 
ATOM      9  C   LIG    1        2.750  -0.621   2.460  0.00  0.00    +0.210 C 
ATOM     10  C   LIG    1        2.053  -0.065   1.218  0.00  0.00    +0.150 C 
ATOM     11  O   LIG    1        0.690  -0.476   1.166  0.00  0.00    -0.360 OA
ENDROOT
BRANCH   9  12
ATOM     12  O   LIG    1        2.127  -0.104   3.637  0.00  0.00    -0.540 OA
ATOM     13  H   LIG    1        2.532  -0.406   4.462  0.00  0.00    +0.390 HD
ENDBRANCH   9  12
BRANCH   8  14
ATOM     14  O   LIG    1        4.914  -0.767   3.531  0.00  0.00    -0.550 OA
ATOM     15  H   LIG    1        5.851  -0.534   3.574  0.00  0.00    +0.400 HD
ENDBRANCH   8  14
BRANCH   7  16
ATOM     16  O   LIG    1        6.209  -0.183   1.054  0.00  0.00    -0.540 OA
ATOM     17  H   LIG    1        6.684  -0.451   0.255  0.00  0.00    +0.400 HD
ENDBRANCH   7  16
TORSDOF 3
ENDMDL
MODEL      813
REMARK  Name = ZINC000000025672
REMARK                            x       y       z     vdW  Elec       q    Type
REMARK                         _______ _______ _______ _____ _____    ______ ____
ROOT
ATOM      1  C5M   T A  1       -0.018   1.503   0.010  0.00  0.00    +0.130 C 
ATOM      2  C5    T A  1        0.002  -0.004   0.002  0.00  0.00    -0.250 A 
ATOM      3  C6    T A  1       -1.153  -0.704   0.004  0.00  0.00    +0.350 A 
ATOM      4  N1    T A  1       -1.116  -2.072  -0.004  0.00  0.00    -0.530 N 
ATOM      5  C2    T A  1        0.060  -2.726  -0.013  0.00  0.00    +0.700 A 
ATOM      6  N3    T A  1        1.226  -2.053  -0.016  0.00  0.00    -0.660 N 
ATOM      7  H3    T A  1        2.064  -2.540  -0.023  0.00  0.00    +0.430 HD
ATOM      8  O2    T A  1        0.069  -3.942  -0.020  0.00  0.00    -0.520 OA
ATOM      9  C4    T A  1        1.232  -0.705  -0.013  0.00  0.00    +0.550 A 
ATOM     10  O4    T A  1        2.287  -0.095  -0.016  0.00  0.00    -0.510 OA
ENDROOT
BRANCH   4  11
ATOM     11  C1*   T A  1       -2.369  -2.831  -0.002  0.00  0.00    +0.420 C 
ATOM     12  C2*   T A  1       -2.499  -3.656  -1.301  0.00  0.00    +0.010 C 
ATOM     13  C3*   T A  1       -3.160  -4.976  -0.844  0.00  0.00    +0.160 C 
ATOM     14  C4*   T A  1       -3.351  -4.791   0.678  0.00  0.00    +0.190 C 
ATOM     15  O4*   T A  1       -2.362  -3.810   1.060  0.00  0.00    -0.350 OA
BRANCH  13  16
ATOM     16  O3*   T A  1       -4.422  -5.155  -1.491  0.00  0.00    -0.560 OA
ATOM     17  H3*   T A  1       -4.364  -5.216  -2.454  0.00  0.00    +0.390 HD
ENDBRANCH  13  16
BRANCH  14  18
ATOM     18  C5*   T A  1       -3.106  -6.112   1.410  0.00  0.00    +0.210 C 
BRANCH  18  19
ATOM     19  O5*   T A  1       -3.400  -5.950   2.799  0.00  0.00    -0.570 OA
ATOM     20  H5*   T A  1       -3.266  -6.750   3.325  0.00  0.00    +0.380 HD
ENDBRANCH  18  19
ENDBRANCH  14  18
ENDBRANCH   4  11
TORSDOF 4
ENDMDL
MODEL      814
REMARK  Name = ZINC000001722125
REMARK                            x       y       z     vdW  Elec       q    Type
REMARK                         _______ _______ _______ _____ _____    ______ ____
ROOT
ATOM      1  CB  ARG A  1       -4.936  -0.252   0.048  0.00  0.00    +0.050 C 
ENDROOT
BRANCH   1   2
ATOM      2  CG  ARG A  1       -3.601  -0.999   0.031  0.00  0.00    +0.030 C 
BRANCH   2   3
ATOM      3  CD  ARG A  1       -2.452   0.011   0.025  0.00  0.00    +0.270 C 
BRANCH   3   4
ATOM      4  NE  ARG A  1       -1.173  -0.704   0.009  0.00  0.00    -0.690 N 
ATOM      5  HE  ARG A  1       -1.160  -1.674   0.004  0.00  0.00    +0.440 HD
BRANCH   4   9
ATOM      6  NH1 ARG A  1       -0.016   1.328   0.009  0.00  0.00    -0.790 N 
ATOM      7 HH11 ARG A  1       -0.863   1.801   0.016  0.00  0.00    +0.440 HD
ATOM      8 HH12 ARG A  1        0.817   1.824   0.004  0.00  0.00    +0.440 HD
ATOM      9  CZ  ARG A  1        0.002  -0.004   0.002  0.00  0.00    +0.740 C 
BRANCH   9  10
ATOM     10  NH2 ARG A  1        1.165  -0.654  -0.013  0.00  0.00    -0.800 N 
ATOM     11 HH21 ARG A  1        1.178  -1.624  -0.018  0.00  0.00    +0.440 HD
ATOM     12 HH22 ARG A  1        1.998  -0.158  -0.018  0.00  0.00    +0.440 HD
ENDBRANCH   9  10
ENDBRANCH   4   9
ENDBRANCH   3   4
ENDBRANCH   2   3
ENDBRANCH   1   2
BRANCH   1  13
ATOM     13  CA  ARG A  1       -6.085  -1.262   0.053  0.00  0.00    +0.180 C 
BRANCH  13  14
ATOM     14  N   ARG A  1       -6.079  -2.016  -1.203  0.00  0.00    -0.720 N 
ATOM     15  H   ARG A  1       -5.683  -1.629  -1.999  0.00  0.00    +0.390 HD
ATOM     16  C   UNK A  0       -6.623  -3.248  -1.252  0.00  0.00    +0.700 C 
ATOM     17  O   UNK A  0       -7.120  -3.733  -0.254  0.00  0.00    -0.590 OA
ATOM     18  N   UNK A  0       -6.617  -3.942  -2.407  0.00  0.00    -0.870 N 
ATOM     19  H   UNK A  0       -7.009  -4.828  -2.443  0.00  0.00    +0.410 HD
ATOM     20  H   UNK A  0       -6.221  -3.554  -3.204  0.00  0.00    +0.390 HD
ENDBRANCH  13  14
BRANCH  13  21
ATOM     21  C   ARG A  1       -7.396  -0.531   0.194  0.00  0.00    +0.490 C 
ATOM     22  OXT ARG A  1       -7.855  -0.310   1.301  0.00  0.00    -0.690 OA
ATOM     23  O   ARG A  1       -7.997  -0.161  -0.800  0.00  0.00    -0.690 OA
ENDBRANCH  13  21
ENDBRANCH   1  13
TORSDOF 8
ENDMDL
MODEL      815
REMARK  Name = ZINC000002169795
REMARK                            x       y       z     vdW  Elec       q    Type
REMARK                         _______ _______ _______ _____ _____    ______ ____
ROOT
ATOM      1  CG  ARG A  1       -2.529  -2.271  -2.070  0.00  0.00    +0.030 C 
ENDROOT
BRANCH   1   2
ATOM      2  CB  ARG A  1       -2.442  -2.683  -0.599  0.00  0.00    +0.040 C 
BRANCH   2   3
ATOM      3  CA  ARG A  1       -1.136  -2.159   0.001  0.00  0.00    +0.150 C 
BRANCH   3   6
ATOM      4  C   UNK A  0       -0.018   1.503   0.010  0.00  0.00    +0.090 C 
ATOM      5  C   UNK A  0        0.002  -0.004   0.002  0.00  0.00    +0.500 C 
ATOM      6  N   ARG A  1       -1.156  -0.694   0.009  0.00  0.00    -0.700 N 
ATOM      7  H   ARG A  1       -2.002  -0.220   0.020  0.00  0.00    +0.390 HD
ATOM      8  O   UNK A  0        1.060  -0.596  -0.011  0.00  0.00    -0.550 OA
ENDBRANCH   3   6
BRANCH   3   9
ATOM      9  C   ARG A  1       -0.992  -2.667   1.413  0.00  0.00    +0.490 C 
ATOM     10  OXT ARG A  1       -0.426  -3.726   1.625  0.00  0.00    -0.690 OA
ATOM     11  O   ARG A  1       -1.441  -2.019   2.343  0.00  0.00    -0.690 OA
ENDBRANCH   3   9
ENDBRANCH   2   3
ENDBRANCH   1   2
BRANCH   1  12
ATOM     12  CD  ARG A  1       -3.835  -2.796  -2.670  0.00  0.00    +0.270 C 
BRANCH  12  13
ATOM     13  NE  ARG A  1       -3.918  -2.402  -4.078  0.00  0.00    -0.690 N 
ATOM     14  HE  ARG A  1       -3.202  -1.886  -4.481  0.00  0.00    +0.440 HD
ATOM     15  CZ  ARG A  1       -5.006  -2.761  -4.826  0.00  0.00    +0.740 C 
BRANCH  15  16
ATOM     16  NH2 ARG A  1       -5.082  -2.403  -6.106  0.00  0.00    -0.800 N 
ATOM     17 HH21 ARG A  1       -4.366  -1.887  -6.509  0.00  0.00    +0.440 HD
ATOM     18 HH22 ARG A  1       -5.853  -2.657  -6.637  0.00  0.00    +0.440 HD
ENDBRANCH  15  16
BRANCH  15  19
ATOM     19  NH1 ARG A  1       -5.989  -3.469  -4.273  0.00  0.00    -0.790 N 
ATOM     20 HH11 ARG A  1       -6.761  -3.724  -4.803  0.00  0.00    +0.440 HD
ATOM     21 HH12 ARG A  1       -5.934  -3.730  -3.341  0.00  0.00    +0.440 HD
ENDBRANCH  15  19
ENDBRANCH  12  13
ENDBRANCH   1  12
TORSDOF 8
ENDMDL
MODEL      816
REMARK  Name = ZINC000004537126
REMARK                            x       y       z     vdW  Elec       q    Type
REMARK                         _______ _______ _______ _____ _____    ______ ____
ROOT
ATOM      1  CB  ARG A  1       -4.936  -0.252   0.048  0.00  0.00    +0.050 C 
ENDROOT
BRANCH   1   2
ATOM      2  CG  ARG A  1       -3.601  -0.999   0.031  0.00  0.00    +0.030 C 
BRANCH   2   3
ATOM      3  CD  ARG A  1       -2.452   0.011   0.025  0.00  0.00    +0.270 C 
BRANCH   3   4
ATOM      4  NE  ARG A  1       -1.173  -0.704   0.009  0.00  0.00    -0.690 N 
ATOM      5  HE  ARG A  1       -1.160  -1.674   0.004  0.00  0.00    +0.440 HD
BRANCH   4   9
ATOM      6  NH1 ARG A  1       -0.016   1.328   0.009  0.00  0.00    -0.790 N 
ATOM      7 HH11 ARG A  1       -0.863   1.801   0.016  0.00  0.00    +0.440 HD
ATOM      8 HH12 ARG A  1        0.817   1.824   0.004  0.00  0.00    +0.440 HD
ATOM      9  CZ  ARG A  1        0.002  -0.004   0.002  0.00  0.00    +0.740 C 
BRANCH   9  10
ATOM     10  NH2 ARG A  1        1.165  -0.654  -0.013  0.00  0.00    -0.800 N 
ATOM     11 HH21 ARG A  1        1.178  -1.624  -0.018  0.00  0.00    +0.440 HD
ATOM     12 HH22 ARG A  1        1.998  -0.158  -0.018  0.00  0.00    +0.440 HD
ENDBRANCH   9  10
ENDBRANCH   4   9
ENDBRANCH   3   4
ENDBRANCH   2   3
ENDBRANCH   1   2
BRANCH   1  13
ATOM     13  CA  ARG A  1       -6.085  -1.262   0.053  0.00  0.00    +0.180 C 
BRANCH  13  14
ATOM     14  N   ARG A  1       -6.055  -2.030   1.301  0.00  0.00    -0.710 N 
ATOM     15  H   ARG A  1       -5.644  -1.651   2.094  0.00  0.00    +0.380 HD
ATOM     16  C   UNK A  0       -6.598  -3.262   1.347  0.00  0.00    +0.710 C 
ATOM     17  O   UNK A  0       -7.114  -3.737   0.354  0.00  0.00    -0.590 OA
ATOM     18  N   UNK A  0       -6.570  -3.968   2.495  0.00  0.00    -0.870 N 
ATOM     19  H   UNK A  0       -6.962  -4.855   2.528  0.00  0.00    +0.410 HD
ATOM     20  H   UNK A  0       -6.159  -3.589   3.288  0.00  0.00    +0.390 HD
ENDBRANCH  13  14
BRANCH  13  21
ATOM     21  C   ARG A  1       -7.398  -0.530  -0.054  0.00  0.00    +0.490 C 
ATOM     22  OXT ARG A  1       -8.153  -0.489   0.902  0.00  0.00    -0.680 OA
ATOM     23  O   ARG A  1       -7.705   0.022  -1.097  0.00  0.00    -0.700 OA
ENDBRANCH  13  21
ENDBRANCH   1  13
TORSDOF 8
ENDMDL
MODEL      817
REMARK  Name = ZINC000005114222
REMARK                            x       y       z     vdW  Elec       q    Type
REMARK                         _______ _______ _______ _____ _____    ______ ____
ROOT
ATOM      1  C   LIG    1       -4.861  -1.039   0.034  0.00  0.00    +0.290 C 
ENDROOT
BRANCH   1   4
ATOM      2  C   LIG    1       -1.257  -0.754   0.010  0.00  0.00    +0.100 A 
ATOM      3  N   LIG    1       -2.468  -0.232   0.019  0.00  0.00    -0.390 NA
ATOM      4  C   LIG    1       -3.364  -1.213   0.024  0.00  0.00    -0.040 A 
ATOM      5  C   LIG    1       -2.702  -2.398   0.019  0.00  0.00    +0.190 A 
ATOM      6  N   LIG    1       -1.379  -2.117   0.004  0.00  0.00    -0.530 N 
ATOM      7  H   LIG    1       -0.653  -2.761  -0.003  0.00  0.00    +0.430 HD
BRANCH   2   9
ATOM      8  C   LIG    1       -0.018   1.503   0.010  0.00  0.00    +0.110 C 
ATOM      9  C   LIG    1        0.002  -0.004   0.002  0.00  0.00    +0.440 C 
ATOM     10  O   LIG    1        1.061  -0.596  -0.011  0.00  0.00    -0.460 OA
ENDBRANCH   2   9
ENDBRANCH   1   4
BRANCH   1  11
ATOM     11  O   LIG    1       -5.277  -0.417  -1.183  0.00  0.00    -0.530 OA
ATOM     12  H   LIG    1       -4.889   0.456  -1.331  0.00  0.00    +0.370 HD
ENDBRANCH   1  11
BRANCH   1  13
ATOM     13  C   LIG    1       -5.264  -0.160   1.220  0.00  0.00    +0.160 C 
BRANCH  13  14
ATOM     14  O   LIG    1       -4.548   1.075   1.162  0.00  0.00    -0.530 OA
ATOM     15  H   LIG    1       -4.711   1.587   0.358  0.00  0.00    +0.370 HD
ENDBRANCH  13  14
BRANCH  13  16
ATOM     16  C   LIG    1       -6.768   0.119   1.160  0.00  0.00    +0.190 C 
BRANCH  16  17
ATOM     17  O   LIG    1       -7.096   0.688  -0.110  0.00  0.00    -0.530 OA
ATOM     18  H   LIG    1       -6.643   1.522  -0.296  0.00  0.00    +0.360 HD
ENDBRANCH  16  17
BRANCH  16  19
ATOM     19  C   LIG    1       -7.149   1.098   2.272  0.00  0.00    +0.160 C 
BRANCH  19  20
ATOM     20  O   LIG    1       -8.568   1.269   2.290  0.00  0.00    -0.570 OA
ATOM     21  H   LIG    1       -8.882   1.878   2.971  0.00  0.00    +0.380 HD
ENDBRANCH  19  20
ENDBRANCH  16  19
ENDBRANCH  13  16
ENDBRANCH   1  13
TORSDOF 9
ENDMDL
MODEL      818
REMARK  Name = ZINC000005919450
REMARK                            x       y       z     vdW  Elec       q    Type
REMARK                         _______ _______ _______ _____ _____    ______ ____
ROOT
ATOM      1  C   VAL A  1       -1.413  -2.041   0.005  0.00  0.00    +0.490 C 
ATOM      2  N   THR A  2       -1.212  -2.705  -1.150  0.00  0.00    -0.660 N 
ATOM      3  H   THR A  2       -1.081  -2.214  -1.976  0.00  0.00    +0.410 HD
ATOM      4  O   VAL A  1       -1.577  -2.655   1.037  0.00  0.00    -0.540 OA
ENDROOT
BRANCH   1   5
ATOM      5  CA  VAL A  1       -1.433  -0.534   0.013  0.00  0.00    +0.170 C 
BRANCH   5   6
ATOM      6  N   VAL A  1       -2.121  -0.060   1.222  0.00  0.00    -0.620 N 
ATOM      7  H1  VAL A  1       -1.633  -0.394   2.039  0.00  0.00    +0.440 HD
ATOM      8  H2  VAL A  1       -3.067  -0.409   1.229  0.00  0.00    +0.440 HD
ATOM      9  H3  VAL A  1       -2.135   0.949   1.227  0.00  0.00    +0.430 HD
ENDBRANCH   5   6
BRANCH   5  11
ATOM     10  CG1 VAL A  1       -0.019   1.526   0.010  0.00  0.00    +0.050 C 
ATOM     11  CB  VAL A  1        0.002  -0.004   0.002  0.00  0.00    +0.020 C 
ATOM     12  CG2 VAL A  1        0.742  -0.511   1.242  0.00  0.00    +0.060 C 
ENDBRANCH   5  11
ENDBRANCH   1   5
BRANCH   2  13
ATOM     13  CA  THR A  2       -1.192  -4.170  -1.159  0.00  0.00    +0.130 C 
BRANCH  13  14
ATOM     14  C   THR A  2        0.190  -4.656  -0.806  0.00  0.00    +0.490 C 
ATOM     15  OXT THR A  2        1.165  -3.982  -1.095  0.00  0.00    -0.680 OA
ATOM     16  O   THR A  2        0.334  -5.722  -0.234  0.00  0.00    -0.670 OA
ENDBRANCH  13  14
BRANCH  13  17
ATOM     17  CB  THR A  2       -1.572  -4.678  -2.551  0.00  0.00    +0.200 C 
ATOM     18  CG2 THR A  2       -1.673  -6.204  -2.527  0.00  0.00    +0.020 C 
BRANCH  17  19
ATOM     19  OG1 THR A  2       -0.572  -4.281  -3.492  0.00  0.00    -0.570 OA
ATOM     20  HG1 THR A  2        0.311  -4.622  -3.295  0.00  0.00    +0.390 HD
ENDBRANCH  17  19
ENDBRANCH  13  17
ENDBRANCH   2  13
TORSDOF 7
ENDMDL
MODEL      819
REMARK  Name = ZINC000095933636
REMARK                            x       y       z     vdW  Elec       q    Type
REMARK                         _______ _______ _______ _____ _____    ______ ____
ROOT
ATOM      1  C   LIG    1       -2.108   1.549   1.768  0.00  0.00    +0.080 C 
ENDROOT
BRANCH   1   2
ATOM      2  C   LIG    1       -0.657   2.004   1.603  0.00  0.00    -0.230 C 
BRANCH   2   4
ATOM      3  O   LIG    1        0.002  -0.004   0.002  0.00  0.00    -0.840 OA
ATOM      4  S   LIG    1       -0.017   1.417   0.010  0.00  0.00    +1.260 S 
BRANCH   4   5
ATOM      5  C   LIG    1        1.685   2.045  -0.003  0.00  0.00    -0.250 C 
BRANCH   5   6
ATOM      6  C   LIG    1        2.373   1.627  -1.304  0.00  0.00    +0.210 C 
BRANCH   6   7
ATOM      7  O   LIG    1        3.713   2.121  -1.314  0.00  0.00    -0.570 OA
ATOM      8  H   LIG    1        4.211   1.893  -2.112  0.00  0.00    +0.380 HD
ENDBRANCH   6   7
ENDBRANCH   5   6
ENDBRANCH   4   5
ENDBRANCH   2   4
ENDBRANCH   1   2
BRANCH   1   9
ATOM      9  C   LIG    1       -2.647   2.044   3.112  0.00  0.00    -0.230 C 
BRANCH   9  10
ATOM     10  S   LIG    1       -4.368   1.505   3.308  0.00  0.00    +1.260 S 
ATOM     11  O   LIG    1       -4.417   0.085   3.353  0.00  0.00    -0.840 OA
BRANCH  10  12
ATOM     12  C   LIG    1       -4.823   2.176   4.931  0.00  0.00    -0.250 C 
BRANCH  12  13
ATOM     13  C   LIG    1       -6.272   1.801   5.250  0.00  0.00    +0.210 C 
BRANCH  13  14
ATOM     14  O   LIG    1       -6.631   2.330   6.528  0.00  0.00    -0.570 OA
ATOM     15  H   LIG    1       -7.538   2.131   6.796  0.00  0.00    +0.380 HD
ENDBRANCH  13  14
ENDBRANCH  12  13
ENDBRANCH  10  12
ENDBRANCH   9  10
ENDBRANCH   1   9
TORSDOF 10
ENDMDL
MODEL      820
REMARK  Name = ZINC000000339589
REMARK                            x       y       z     vdW  Elec       q    Type
REMARK                         _______ _______ _______ _____ _____    ______ ____
ROOT
ATOM      1  C   LIG    1       -0.018   1.461   0.010  0.00  0.00    +0.360 C 
ATOM      2  N   LIG    1        0.002  -0.004   0.002  0.00  0.00    -0.560 N 
ATOM      3  C   LIG    1        0.005  -0.661  -1.178  0.00  0.00    +0.580 A 
ATOM      4  C   LIG    1        0.026  -2.135  -1.158  0.00  0.00    -0.090 A 
ATOM      5  N   LIG    1        0.031  -2.845  -2.280  0.00  0.00    -0.310 NA
ATOM      6  C   LIG    1        0.050  -4.160  -2.219  0.00  0.00    +0.150 A 
ATOM      7  C   LIG    1        0.065  -4.808  -0.979  0.00  0.00    +0.430 A 
ATOM      8  N   LIG    1        0.060  -4.104   0.147  0.00  0.00    -0.540 NA
ATOM      9  C   LIG    1        0.041  -2.781   0.092  0.00  0.00    +0.420 A 
ATOM     10  N   LIG    1        0.036  -2.011   1.240  0.00  0.00    -0.530 N 
ATOM     11  C   LIG    1        0.052  -2.665   2.551  0.00  0.00    +0.370 C 
ATOM     12  O   LIG    1       -0.008  -0.052  -2.231  0.00  0.00    -0.470 OA
ATOM     13  C   LIG    1        0.022  -0.669   1.168  0.00  0.00    +0.710 A 
ATOM     14  O   LIG    1        0.019  -0.031   2.202  0.00  0.00    -0.520 OA
ENDROOT
BRANCH   7  15
ATOM     15  N   LIG    1        0.085  -6.191  -0.925  0.00  0.00    -0.820 N 
ATOM     16  H   LIG    1        0.096  -6.643  -0.067  0.00  0.00    +0.410 HD
ATOM     17  H   LIG    1        0.089  -6.708  -1.746  0.00  0.00    +0.420 HD
ENDBRANCH   7  15
TORSDOF 1
ENDMDL
MODEL      821
REMARK  Name = ZINC000018059633
REMARK                            x       y       z     vdW  Elec       q    Type
REMARK                         _______ _______ _______ _____ _____    ______ ____
ROOT
ATOM      1  C   LIG    1        0.655  -2.037   1.299  0.00  0.00    +0.210 C 
ATOM      2  C   LIG    1        1.270  -2.544   2.612  0.00  0.00    +0.290 C 
ATOM      3  N   LIG    1        0.459  -2.033   3.726  0.00  0.00    -0.720 N 
ATOM      4  H   LIG    1        0.884  -1.649   4.508  0.00  0.00    +0.400 HD
ATOM      5  C   LIG    1       -0.918  -2.107   3.645  0.00  0.00    +0.330 A 
ATOM      6  C   LIG    1       -1.528  -2.313   2.441  0.00  0.00    -0.040 A 
ATOM      7  C   LIG    1       -2.935  -2.379   2.387  0.00  0.00    +0.540 A 
ATOM      8  N   LIG    1       -3.644  -2.242   3.519  0.00  0.00    -0.630 NA
ATOM      9  C   LIG    1       -3.046  -2.047   4.675  0.00  0.00    +0.650 A 
ATOM     10  O   LIG    1       -3.504  -2.559   1.320  0.00  0.00    -0.530 OA
ATOM     11  N   LIG    1       -1.691  -1.975   4.769  0.00  0.00    -0.640 N 
ATOM     12  H   LIG    1       -1.271  -1.831   5.632  0.00  0.00    +0.410 HD
ATOM     13  N   LIG    1       -0.755  -2.458   1.266  0.00  0.00    -0.700 N 
ATOM     14  H   LIG    1       -1.145  -2.826   0.458  0.00  0.00    +0.410 HD
ENDROOT
BRANCH   9  15
ATOM     15  N   LIG    1       -3.806  -1.913   5.809  0.00  0.00    -0.830 N 
ATOM     16  H   LIG    1       -3.376  -1.768   6.667  0.00  0.00    +0.410 HD
ATOM     17  H   LIG    1       -4.773  -1.962   5.754  0.00  0.00    +0.430 HD
ENDBRANCH   9  15
BRANCH   1  18
ATOM     18  C   LIG    1        0.742  -0.511   1.242  0.00  0.00    +0.210 C 
BRANCH  18  20
ATOM     19  C   LIG    1       -0.019   1.526   0.010  0.00  0.00    +0.010 C 
ATOM     20  C   LIG    1        0.002  -0.004   0.002  0.00  0.00    +0.130 C 
BRANCH  20  21
ATOM     21  O   LIG    1       -1.339  -0.499   0.012  0.00  0.00    -0.540 OA
ATOM     22  H   LIG    1       -1.868  -0.216  -0.746  0.00  0.00    +0.370 HD
ENDBRANCH  20  21
ENDBRANCH  18  20
BRANCH  18  23
ATOM     23  O   LIG    1        0.143   0.044   2.414  0.00  0.00    -0.550 OA
ATOM     24  H   LIG    1       -0.790  -0.184   2.525  0.00  0.00    +0.380 HD
ENDBRANCH  18  23
ENDBRANCH   1  18
TORSDOF 5
ENDMDL
MODEL      822
REMARK  Name = ZINC000040513945
REMARK                            x       y       z     vdW  Elec       q    Type
REMARK                         _______ _______ _______ _____ _____    ______ ____
ROOT
ATOM      1  C   LIG    1       -0.018   1.461   0.010  0.00  0.00    +0.330 C 
ATOM      2  N   LIG    1        0.002  -0.004   0.002  0.00  0.00    -0.560 N 
ATOM      3  C   LIG    1        0.006  -0.669  -1.171  0.00  0.00    +0.550 A 
ATOM      4  C   LIG    1        0.025  -2.085  -1.167  0.00  0.00    -0.120 A 
ATOM      5  C   LIG    1        0.040  -2.738   0.015  0.00  0.00    +0.360 A 
ATOM      6  N   LIG    1        0.036  -2.026   1.183  0.00  0.00    -0.520 N 
ATOM      7  O   LIG    1       -0.008  -0.058  -2.224  0.00  0.00    -0.510 OA
ATOM      8  C   LIG    1        0.022  -0.681   1.165  0.00  0.00    +0.700 A 
ATOM      9  O   LIG    1        0.019  -0.067   2.215  0.00  0.00    -0.540 OA
ENDROOT
BRANCH   6  10
ATOM     10  C   LIG    1        0.052  -2.735   2.465  0.00  0.00    +0.360 C 
BRANCH  10  11
ATOM     11  C   LIG    1        1.479  -2.957   2.897  0.00  0.00    +0.500 C 
ATOM     12  N   LIG    1        1.740  -3.595   4.056  0.00  0.00    -0.700 N 
ATOM     13  H   LIG    1        1.010  -3.910   4.611  0.00  0.00    +0.400 HD
ATOM     14  O   LIG    1        2.392  -2.563   2.203  0.00  0.00    -0.520 OA
BRANCH  12  15
ATOM     15  C   LIG    1        3.127  -3.812   4.476  0.00  0.00    +0.220 C 
ATOM     16  C   LIG    1        3.469  -3.550   5.944  0.00  0.00    +0.010 C 
ATOM     17  C   LIG    1        3.404  -4.985   5.418  0.00  0.00    +0.020 C 
ENDBRANCH  12  15
ENDBRANCH  10  11
ENDBRANCH   6  10
TORSDOF 3
ENDMDL
MODEL      823
REMARK  Name = ZINC000039150540
REMARK                            x       y       z     vdW  Elec       q    Type
REMARK                         _______ _______ _______ _____ _____    ______ ____
ROOT
ATOM      1  C   LIG    1       -4.861  -1.039   0.034  0.00  0.00    +0.280 C 
ENDROOT
BRANCH   1   4
ATOM      2  C   LIG    1       -1.257  -0.754   0.010  0.00  0.00    +0.110 A 
ATOM      3  N   LIG    1       -2.468  -0.232   0.019  0.00  0.00    -0.410 NA
ATOM      4  C   LIG    1       -3.364  -1.213   0.024  0.00  0.00    -0.030 A 
ATOM      5  C   LIG    1       -2.702  -2.398   0.019  0.00  0.00    +0.200 A 
ATOM      6  N   LIG    1       -1.379  -2.117   0.004  0.00  0.00    -0.520 N 
ATOM      7  H   LIG    1       -0.653  -2.761  -0.003  0.00  0.00    +0.430 HD
BRANCH   2   9
ATOM      8  C   LIG    1       -0.018   1.503   0.010  0.00  0.00    +0.110 C 
ATOM      9  C   LIG    1        0.002  -0.004   0.002  0.00  0.00    +0.440 C 
ATOM     10  O   LIG    1        1.061  -0.596  -0.011  0.00  0.00    -0.460 OA
ENDBRANCH   2   9
ENDBRANCH   1   4
BRANCH   1  11
ATOM     11  O   LIG    1       -5.277  -0.417  -1.183  0.00  0.00    -0.530 OA
ATOM     12  H   LIG    1       -4.889   0.456  -1.331  0.00  0.00    +0.380 HD
ENDBRANCH   1  11
BRANCH   1  13
ATOM     13  C   LIG    1       -5.264  -0.160   1.220  0.00  0.00    +0.170 C 
BRANCH  13  14
ATOM     14  O   LIG    1       -4.849  -0.782   2.437  0.00  0.00    -0.540 OA
ATOM     15  H   LIG    1       -5.236  -1.655   2.585  0.00  0.00    +0.380 HD
ENDBRANCH  13  14
BRANCH  13  16
ATOM     16  C   LIG    1       -6.784   0.016   1.230  0.00  0.00    +0.190 C 
BRANCH  16  17
ATOM     17  O   LIG    1       -7.200   0.638   0.013  0.00  0.00    -0.530 OA
ATOM     18  H   LIG    1       -6.813   1.512  -0.135  0.00  0.00    +0.370 HD
ENDBRANCH  16  17
BRANCH  16  19
ATOM     19  C   LIG    1       -7.188   0.895   2.416  0.00  0.00    +0.150 C 
BRANCH  19  20
ATOM     20  O   LIG    1       -8.613   0.965   2.494  0.00  0.00    -0.570 OA
ATOM     21  H   LIG    1       -8.941   1.507   3.224  0.00  0.00    +0.380 HD
ENDBRANCH  19  20
ENDBRANCH  16  19
ENDBRANCH  13  16
ENDBRANCH   1  13
TORSDOF 9
ENDMDL
MODEL      824
REMARK  Name = ZINC000040471038
REMARK                            x       y       z     vdW  Elec       q    Type
REMARK                         _______ _______ _______ _____ _____    ______ ____
ROOT
ATOM      1  C   VAL A  1       -1.413  -2.041   0.005  0.00  0.00    +0.500 C 
ATOM      2  N   THR A  2       -1.212  -2.705  -1.150  0.00  0.00    -0.660 N 
ATOM      3  H   THR A  2       -1.081  -2.214  -1.976  0.00  0.00    +0.390 HD
ATOM      4  O   VAL A  1       -1.577  -2.655   1.037  0.00  0.00    -0.530 OA
ENDROOT
BRANCH   1   5
ATOM      5  CA  VAL A  1       -1.433  -0.534   0.013  0.00  0.00    +0.170 C 
BRANCH   5   6
ATOM      6  N   VAL A  1       -2.121  -0.060   1.222  0.00  0.00    -0.620 N 
ATOM      7  H1  VAL A  1       -1.633  -0.394   2.039  0.00  0.00    +0.440 HD
ATOM      8  H2  VAL A  1       -3.067  -0.409   1.229  0.00  0.00    +0.440 HD
ATOM      9  H3  VAL A  1       -2.135   0.949   1.227  0.00  0.00    +0.430 HD
ENDBRANCH   5   6
BRANCH   5  11
ATOM     10  CG1 VAL A  1       -0.019   1.526   0.010  0.00  0.00    +0.050 C 
ATOM     11  CB  VAL A  1        0.002  -0.004   0.002  0.00  0.00    +0.010 C 
ATOM     12  CG2 VAL A  1        0.742  -0.511   1.242  0.00  0.00    +0.040 C 
ENDBRANCH   5  11
ENDBRANCH   1   5
BRANCH   2  13
ATOM     13  CA  THR A  2       -1.192  -4.170  -1.159  0.00  0.00    +0.140 C 
BRANCH  13  14
ATOM     14  C   THR A  2       -2.602  -4.691  -1.272  0.00  0.00    +0.500 C 
ATOM     15  OXT THR A  2       -2.827  -5.879  -1.113  0.00  0.00    -0.680 OA
ATOM     16  O   THR A  2       -3.517  -3.925  -1.522  0.00  0.00    -0.690 OA
ENDBRANCH  13  14
BRANCH  13  17
ATOM     17  CB  THR A  2       -0.369  -4.662  -2.351  0.00  0.00    +0.230 C 
ATOM     18  CG2 THR A  2        1.062  -4.134  -2.236  0.00  0.00    +0.010 C 
BRANCH  17  19
ATOM     19  OG1 THR A  2       -0.957  -4.188  -3.564  0.00  0.00    -0.540 OA
ATOM     20  HG1 THR A  2       -1.003  -3.224  -3.627  0.00  0.00    +0.360 HD
ENDBRANCH  17  19
ENDBRANCH  13  17
ENDBRANCH   2  13
TORSDOF 7
ENDMDL
MODEL      825
REMARK  Name = ZINC000050027673
REMARK                            x       y       z     vdW  Elec       q    Type
REMARK                         _______ _______ _______ _____ _____    ______ ____
ROOT
ATOM      1  C   THR A  1        0.739  -2.004  -1.265  0.00  0.00    +0.500 C 
ATOM      2  N   GLN A  2       -0.353  -2.691  -1.658  0.00  0.00    -0.660 N 
ATOM      3  H   GLN A  2       -1.151  -2.215  -1.935  0.00  0.00    +0.400 HD
ATOM      4  O   THR A  1        1.737  -2.599  -0.918  0.00  0.00    -0.530 OA
ENDROOT
BRANCH   1   5
ATOM      5  CA  THR A  1        0.718  -0.497  -1.257  0.00  0.00    +0.140 C 
BRANCH   5   6
ATOM      6  N   THR A  1        2.096   0.011  -1.267  0.00  0.00    -0.620 N 
ATOM      7  H1  THR A  1        2.584  -0.323  -0.450  0.00  0.00    +0.440 HD
ATOM      8  H2  THR A  1        2.083   1.020  -1.262  0.00  0.00    +0.440 HD
ATOM      9  H3  THR A  1        2.569  -0.314  -2.097  0.00  0.00    +0.440 HD
ENDBRANCH   5   6
BRANCH   5  11
ATOM     10  CG2 THR A  1       -0.019   1.526   0.010  0.00  0.00    +0.050 C 
ATOM     11  CB  THR A  1        0.002  -0.004   0.002  0.00  0.00    +0.240 C 
BRANCH  11  12
ATOM     12  OG1 THR A  1        0.693  -0.477   1.160  0.00  0.00    -0.520 OA
ATOM     13  HG1 THR A  1        1.611  -0.180   1.219  0.00  0.00    +0.360 HD
ENDBRANCH  11  12
ENDBRANCH   5  11
ENDBRANCH   1   5
BRANCH   2  14
ATOM     14  CA  GLN A  2       -0.333  -4.156  -1.666  0.00  0.00    +0.160 C 
BRANCH  14  15
ATOM     15  C   GLN A  2       -0.681  -4.670  -0.293  0.00  0.00    +0.490 C 
ATOM     16  OXT GLN A  2       -0.222  -5.732   0.095  0.00  0.00    -0.680 OA
ATOM     17  O   GLN A  2       -1.420  -4.025   0.431  0.00  0.00    -0.680 OA
ENDBRANCH  14  15
BRANCH  14  18
ATOM     18  CB  GLN A  2       -1.355  -4.674  -2.679  0.00  0.00    +0.070 C 
BRANCH  18  19
ATOM     19  CG  GLN A  2       -0.934  -4.256  -4.089  0.00  0.00    +0.030 C 
BRANCH  19  20
ATOM     20  CD  GLN A  2       -1.941  -4.766  -5.087  0.00  0.00    +0.510 C 
ATOM     21  OE1 GLN A  2       -2.902  -5.402  -4.707  0.00  0.00    -0.530 OA
ATOM     22  NE2 GLN A  2       -1.774  -4.516  -6.400  0.00  0.00    -0.860 N 
ATOM     23 HE21 GLN A  2       -2.423  -4.845  -7.043  0.00  0.00    +0.400 HD
ATOM     24 HE22 GLN A  2       -1.006  -4.008  -6.704  0.00  0.00    +0.400 HD
ENDBRANCH  19  20
ENDBRANCH  18  19
ENDBRANCH  14  18
ENDBRANCH   2  14
TORSDOF 9
ENDMDL
MODEL      826
REMARK  Name = ZINC000069486009
REMARK                            x       y       z     vdW  Elec       q    Type
REMARK                         _______ _______ _______ _____ _____    ______ ____
ROOT
ATOM      1  C   THR A  1        0.739  -2.004  -1.265  0.00  0.00    +0.500 C 
ATOM      2  N   GLN A  2        1.649  -2.670  -0.527  0.00  0.00    -0.650 N 
ATOM      3  H   GLN A  2        2.291  -2.179   0.009  0.00  0.00    +0.400 HD
ATOM      4  O   THR A  1       -0.064  -2.618  -1.936  0.00  0.00    -0.540 OA
ENDROOT
BRANCH   1   5
ATOM      5  CA  THR A  1        0.718  -0.497  -1.257  0.00  0.00    +0.130 C 
BRANCH   5   6
ATOM      6  N   THR A  1        0.008  -0.011  -2.447  0.00  0.00    -0.610 N 
ATOM      7  H1  THR A  1       -0.939  -0.360  -2.440  0.00  0.00    +0.440 HD
ATOM      8  H2  THR A  1        0.480  -0.336  -3.277  0.00  0.00    +0.450 HD
ATOM      9  H3  THR A  1       -0.006   0.998  -2.441  0.00  0.00    +0.430 HD
ENDBRANCH   5   6
BRANCH   5  11
ATOM     10  CG2 THR A  1       -0.019   1.526   0.010  0.00  0.00    +0.040 C 
ATOM     11  CB  THR A  1        0.002  -0.004   0.002  0.00  0.00    +0.230 C 
BRANCH  11  12
ATOM     12  OG1 THR A  1        0.693  -0.477   1.160  0.00  0.00    -0.530 OA
ATOM     13  HG1 THR A  1        1.611  -0.180   1.219  0.00  0.00    +0.390 HD
ENDBRANCH  11  12
ENDBRANCH   5  11
ENDBRANCH   1   5
BRANCH   2  14
ATOM     14  CA  GLN A  2        1.669  -4.135  -0.535  0.00  0.00    +0.160 C 
BRANCH  14  15
ATOM     15  C   GLN A  2        2.479  -4.620  -1.709  0.00  0.00    +0.490 C 
ATOM     16  OXT GLN A  2        2.211  -5.686  -2.236  0.00  0.00    -0.670 OA
ATOM     17  O   GLN A  2        3.403  -3.946  -2.132  0.00  0.00    -0.690 OA
ENDBRANCH  14  15
BRANCH  14  18
ATOM     18  CB  GLN A  2        2.298  -4.644   0.764  0.00  0.00    +0.070 C 
BRANCH  18  19
ATOM     19  CG  GLN A  2        1.408  -4.257   1.947  0.00  0.00    +0.040 C 
BRANCH  19  20
ATOM     20  CD  GLN A  2        2.027  -4.758   3.226  0.00  0.00    +0.510 C 
ATOM     21  OE1 GLN A  2        3.077  -5.365   3.194  0.00  0.00    -0.540 OA
ATOM     22  NE2 GLN A  2        1.415  -4.533   4.405  0.00  0.00    -0.860 N 
ATOM     23 HE21 GLN A  2        1.813  -4.855   5.228  0.00  0.00    +0.400 HD
ATOM     24 HE22 GLN A  2        0.575  -4.048   4.430  0.00  0.00    +0.400 HD
ENDBRANCH  19  20
ENDBRANCH  18  19
ENDBRANCH  14  18
ENDBRANCH   2  14
TORSDOF 9
ENDMDL
MODEL      827
REMARK  Name = ZINC000016321625
REMARK                            x       y       z     vdW  Elec       q    Type
REMARK                         _______ _______ _______ _____ _____    ______ ____
ROOT
ATOM      1  C   LIG    1        0.021  -2.119  -1.096  0.00  0.00    +0.440 C 
ATOM      2  C   LIG    1        0.367  -2.709  -2.474  0.00  0.00    +0.450 C 
ATOM      3  N   LIG    1       -0.570  -3.835  -2.652  0.00  0.00    -0.640 N 
ATOM      4  C   LIG    1       -1.768  -3.467  -1.878  0.00  0.00    +0.510 C 
ATOM      5  C   LIG    1       -0.372  -4.959  -3.369  0.00  0.00    +0.690 C 
ATOM      6  O   LIG    1       -1.241  -5.804  -3.424  0.00  0.00    -0.520 OA
ATOM      7  N   LIG    1       -1.318  -2.629  -0.756  0.00  0.00    -0.640 N 
ATOM      8  C   LIG    1       -2.005  -2.375   0.374  0.00  0.00    +0.670 C 
ATOM      9  O   LIG    1       -3.107  -2.857   0.536  0.00  0.00    -0.530 OA
ENDROOT
BRANCH   1  10
ATOM     10  O   LIG    1        0.000  -0.669  -1.164  0.00  0.00    -0.340 OA
BRANCH  10  12
ATOM     11  C   LIG    1       -0.018   1.503   0.010  0.00  0.00    +0.170 C 
ATOM     12  C   LIG    1        0.002  -0.004   0.002  0.00  0.00    +0.460 C 
ATOM     13  O   LIG    1        0.020  -0.614   1.045  0.00  0.00    -0.510 OA
ENDBRANCH  10  12
ENDBRANCH   1  10
BRANCH   2  14
ATOM     14  O   LIG    1        0.169  -1.714  -3.514  0.00  0.00    -0.340 OA
BRANCH  14  15
ATOM     15  C   LIG    1        0.625  -2.015  -4.740  0.00  0.00    +0.470 C 
ATOM     16  O   LIG    1        1.172  -3.074  -4.938  0.00  0.00    -0.510 OA
ATOM     17  C   LIG    1        0.455  -1.032  -5.869  0.00  0.00    +0.160 C 
ENDBRANCH  14  15
ENDBRANCH   2  14
TORSDOF 4
ENDMDL
MODEL      828
REMARK  Name = ZINC000014712101
REMARK                            x       y       z     vdW  Elec       q    Type
REMARK                         _______ _______ _______ _____ _____    ______ ____
ROOT
ATOM      1  C   LIG    1       -0.019   1.526   0.010  0.00  0.00    +0.050 C 
ATOM      2  C   LIG    1        0.002  -0.004   0.002  0.00  0.00    +0.250 C 
ATOM      3  O   LIG    1        0.688  -0.472  -1.172  0.00  0.00    -0.360 OA
ATOM      4  C   LIG    1        2.050  -0.711  -0.737  0.00  0.00    +0.270 C 
ATOM      5  C   LIG    1        1.831  -1.229   0.701  0.00  0.00    +0.240 C 
ATOM      6  O   LIG    1        1.550  -2.622   0.683  0.00  0.00    -0.350 OA
ATOM      7  C   LIG    1        1.302  -3.188   1.973  0.00  0.00    +0.210 C 
ATOM      8  C   LIG    1        2.533  -2.987   2.861  0.00  0.00    +0.110 C 
ATOM      9  C   LIG    1        2.841  -1.490   2.965  0.00  0.00    +0.170 C 
ATOM     10  C   LIG    1        3.056  -0.927   1.556  0.00  0.00    +0.200 C 
ATOM     11  C   LIG    1       -1.432  -0.538   0.003  0.00  0.00    +0.070 C 
ATOM     12  O   LIG    1        0.696  -0.483   1.164  0.00  0.00    -0.370 OA
ENDROOT
BRANCH   9  13
ATOM     13  O   LIG    1        4.023  -1.298   3.745  0.00  0.00    -0.550 OA
ATOM     14  H   LIG    1        3.958  -1.639   4.648  0.00  0.00    +0.390 HD
ENDBRANCH   9  13
BRANCH   8  15
ATOM     15  O   LIG    1        3.651  -3.667   2.286  0.00  0.00    -0.550 OA
ATOM     16  H   LIG    1        3.524  -4.620   2.187  0.00  0.00    +0.380 HD
ENDBRANCH   8  15
BRANCH  10  17
ATOM     17  O   LIG    1        3.250   0.487   1.632  0.00  0.00    -0.550 OA
ATOM     18  H   LIG    1        4.012   0.752   2.164  0.00  0.00    +0.390 HD
ENDBRANCH  10  17
TORSDOF 3
ENDMDL
MODEL      829
REMARK  Name = ZINC000001408269
REMARK                            x       y       z     vdW  Elec       q    Type
REMARK                         _______ _______ _______ _____ _____    ______ ____
ROOT
ATOM      1  N   LIG    1        0.711  -0.489   1.189  0.00  0.00    -0.620 N 
ATOM      2  C   LIG    1        2.049  -0.743   1.312  0.00  0.00    +0.720 C 
ATOM      3  N   LIG    1        2.345  -1.459   2.437  0.00  0.00    -0.620 N 
ATOM      4  C   LIG    1        1.083  -1.980   2.907  0.00  0.00    +0.400 C 
ATOM      5  N   LIG    1        0.738  -2.134   4.310  0.00  0.00    -1.090 NA
ATOM      6  H   LIG    1        1.313  -2.233   5.085  0.00  0.00    +0.440 HD
ATOM      7  S   LIG    1       -0.951  -2.094   4.211  0.00  0.00    +2.770 S 
ATOM      8  N   LIG    1       -1.182  -1.232   2.776  0.00  0.00    -1.090 NA
ATOM      9  H   LIG    1       -2.006  -1.067   2.292  0.00  0.00    +0.440 HD
ATOM     10  O   LIG    1       -1.417  -1.277   5.277  0.00  0.00    -0.950 OA
ATOM     11  O   LIG    1       -1.393  -3.424   3.980  0.00  0.00    -0.950 OA
ATOM     12  O   LIG    1        2.883  -0.373   0.508  0.00  0.00    -0.530 OA
ATOM     13  C   LIG    1        0.152  -0.794   2.471  0.00  0.00    +0.390 C 
ENDROOT
BRANCH   1  15
ATOM     14  C   LIG    1       -0.019   1.526   0.010  0.00  0.00    +0.020 C 
ATOM     15  C   LIG    1        0.002  -0.004   0.002  0.00  0.00    +0.320 C 
ENDBRANCH   1  15
BRANCH   3  16
ATOM     16  C   LIG    1        3.665  -1.657   3.041  0.00  0.00    +0.320 C 
ATOM     17  C   LIG    1        3.935  -0.542   4.053  0.00  0.00    +0.020 C 
ENDBRANCH   3  16
TORSDOF 2
ENDMDL
MODEL      830
REMARK  Name = ZINC000095617488
REMARK                            x       y       z     vdW  Elec       q    Type
REMARK                         _______ _______ _______ _____ _____    ______ ____
ROOT
ATOM      1  C   LIG    1       -1.413  -2.041   0.005  0.00  0.00    +0.020 C 
ATOM      2  N   LIG    1       -0.281  -2.655  -0.004  0.00  0.00    -0.340 NA
ATOM      3  C   LIG    1       -0.202  -4.014  -0.045  0.00  0.00    -0.220 A 
ATOM      4  C   LIG    1       -1.339  -4.773  -0.355  0.00  0.00    +0.470 A 
ATOM      5  N   LIG    1       -2.517  -4.104  -0.634  0.00  0.00    -0.700 N 
ATOM      6  H   LIG    1       -3.184  -4.483  -1.228  0.00  0.00    +0.420 HD
ATOM      7  N   LIG    1       -1.266  -6.102  -0.384  0.00  0.00    -0.610 NA
ATOM      8  C   LIG    1       -0.128  -6.723  -0.144  0.00  0.00    +0.680 A 
ATOM      9  N   LIG    1        1.015  -6.040   0.141  0.00  0.00    -0.660 N 
ATOM     10  H   LIG    1        1.837  -6.526   0.307  0.00  0.00    +0.420 HD
ATOM     11  C   LIG    1        1.011  -4.690   0.194  0.00  0.00    +0.580 A 
ATOM     12  O   LIG    1        2.032  -4.071   0.443  0.00  0.00    -0.500 OA
ATOM     13  C   LIG    1       -2.717  -2.795   0.013  0.00  0.00    +0.320 C 
ENDROOT
BRANCH   8  14
ATOM     14  N   LIG    1       -0.094  -8.091  -0.182  0.00  0.00    -0.810 N 
ATOM     15  H   LIG    1        0.736  -8.560  -0.007  0.00  0.00    +0.420 HD
ATOM     16  H   LIG    1       -0.901  -8.590  -0.384  0.00  0.00    +0.430 HD
ENDBRANCH   8  14
BRANCH   1  17
ATOM     17  C   LIG    1       -1.433  -0.534   0.013  0.00  0.00    +0.250 C 
BRANCH  17  19
ATOM     18  C   LIG    1       -0.019   1.526   0.010  0.00  0.00    +0.010 C 
ATOM     19  C   LIG    1        0.002  -0.004   0.002  0.00  0.00    +0.190 C 
BRANCH  19  20
ATOM     20  O   LIG    1        0.693  -0.477   1.160  0.00  0.00    -0.530 OA
ATOM     21  H   LIG    1        0.294  -0.202   1.996  0.00  0.00    +0.360 HD
ENDBRANCH  19  20
ENDBRANCH  17  19
BRANCH  17  22
ATOM     22  O   LIG    1       -2.124  -0.060  -1.145  0.00  0.00    -0.550 OA
ATOM     23  H   LIG    1       -1.725  -0.336  -1.981  0.00  0.00    +0.380 HD
ENDBRANCH  17  22
ENDBRANCH   1  17
TORSDOF 5
ENDMDL
MODEL      831
REMARK  Name = ZINC000000481101
REMARK                            x       y       z     vdW  Elec       q    Type
REMARK                         _______ _______ _______ _____ _____    ______ ____
ROOT
ATOM      1  C   LIG    1       -2.493  -4.070  -0.107  0.00  0.00    -0.330 A 
ATOM      2  C   LIG    1       -3.705  -4.726  -0.210  0.00  0.00    +0.470 A 
ATOM      3  N   LIG    1       -3.721  -6.080  -0.318  0.00  0.00    -0.520 N 
ATOM      4  C   LIG    1       -2.586  -6.796  -0.328  0.00  0.00    +0.700 A 
ATOM      5  N   LIG    1       -1.376  -6.220  -0.231  0.00  0.00    -0.650 N 
ATOM      6  H   LIG    1       -0.578  -6.771  -0.242  0.00  0.00    +0.440 HD
ATOM      7  O   LIG    1       -2.655  -8.006  -0.427  0.00  0.00    -0.520 OA
ATOM      8  C   LIG    1       -5.007  -6.774  -0.427  0.00  0.00    +0.370 C 
ATOM      9  C   LIG    1       -1.264  -4.879  -0.125  0.00  0.00    +0.570 A 
ATOM     10  O   LIG    1       -0.171  -4.352  -0.038  0.00  0.00    -0.500 OA
ENDROOT
BRANCH   1  14
ATOM     11  C   LIG    1       -1.190  -0.631   0.002  0.00  0.00    +0.640 C 
ATOM     12  N   LIG    1       -1.241  -1.978   0.001  0.00  0.00    -0.650 N 
ATOM     13  H   LIG    1       -0.421  -2.494  -0.009  0.00  0.00    +0.430 HD
ATOM     14  C   LIG    1       -2.433  -2.606   0.011  0.00  0.00    +0.610 C 
ATOM     15  O   LIG    1       -3.460  -1.962   0.119  0.00  0.00    -0.470 OA
ATOM     16  O   LIG    1       -2.218   0.016   0.014  0.00  0.00    -0.510 OA
BRANCH  11  18
ATOM     17  C   LIG    1       -0.020   1.449  -0.006  0.00  0.00    +0.300 C 
ATOM     18  O   LIG    1        0.001  -0.003  -0.009  0.00  0.00    -0.360 OA
ENDBRANCH  11  18
ENDBRANCH   1  14
TORSDOF 2
ENDMDL
MODEL      832
REMARK  Name = ZINC000005753435
REMARK                            x       y       z     vdW  Elec       q    Type
REMARK                         _______ _______ _______ _____ _____    ______ ____
ROOT
ATOM      1  C   LIG    1       -0.917  -3.680   1.560  0.00  0.00    +0.460 A 
ATOM      2  C   LIG    1       -1.536  -3.447   2.757  0.00  0.00    -0.130 A 
ATOM      3  C   LIG    1       -1.994  -4.538   3.512  0.00  0.00    +0.550 A 
ATOM      4  N   LIG    1       -1.818  -5.790   3.046  0.00  0.00    -0.560 N 
ATOM      5  C   LIG    1       -1.208  -6.002   1.866  0.00  0.00    +0.700 A 
ATOM      6  O   LIG    1       -1.059  -7.140   1.465  0.00  0.00    -0.540 OA
ATOM      7  C   LIG    1       -2.296  -6.931   3.832  0.00  0.00    +0.340 C 
ATOM      8  O   LIG    1       -2.549  -4.354   4.582  0.00  0.00    -0.520 OA
ATOM      9  N   LIG    1       -0.764  -4.973   1.121  0.00  0.00    -0.550 N 
ATOM     10  C   LIG    1       -0.103  -5.233  -0.160  0.00  0.00    +0.340 C 
ENDROOT
BRANCH   1  15
ATOM     11  C   LIG    1        0.164   1.459   0.112  0.00  0.00    +0.190 C 
ATOM     12  N   LIG    1        0.097  -0.007   0.055  0.00  0.00    -0.540 NA
ATOM     13  C   LIG    1       -1.297  -0.470   0.052  0.00  0.00    +0.170 C 
ATOM     14  C   LIG    1       -1.329  -1.983  -0.190  0.00  0.00    +0.290 C 
ATOM     15  N   LIG    1       -0.460  -2.633   0.802  0.00  0.00    -0.670 N 
ATOM     16  C   LIG    1        0.914  -2.131   0.960  0.00  0.00    +0.290 C 
ATOM     17  C   LIG    1        0.857  -0.612   1.157  0.00  0.00    +0.170 C 
ENDBRANCH   1  15
TORSDOF 1
ENDMDL
MODEL      833
REMARK  Name = ZINC000005282321
REMARK                            x       y       z     vdW  Elec       q    Type
REMARK                         _______ _______ _______ _____ _____    ______ ____
ROOT
ATOM      1  C   LIG    1       -3.113  -4.049   0.039  0.00  0.00    +0.340 C 
ATOM      2  C   LIG    1       -4.456  -4.289   0.241  0.00  0.00    -0.300 C 
ATOM      3  C   LIG    1       -2.138  -5.197   0.009  0.00  0.00    +0.170 C 
ENDROOT
BRANCH   2   4
ATOM      4  C   LIG    1       -4.916  -5.640   0.578  0.00  0.00    +0.590 C 
ATOM      5  N   LIG    1       -6.236  -5.896   0.683  0.00  0.00    -0.700 N 
ATOM      6  H   LIG    1       -6.880  -5.186   0.536  0.00  0.00    +0.410 HD
ATOM      7  C   LIG    1       -6.659  -7.137   0.993  0.00  0.00    +0.640 C 
ATOM      8  O   LIG    1       -5.853  -8.024   1.177  0.00  0.00    -0.480 OA
ATOM      9  O   LIG    1       -4.108  -6.530   0.762  0.00  0.00    -0.480 OA
ENDBRANCH   2   4
BRANCH   1  10
ATOM     10  N   LIG    1       -2.671  -2.783  -0.132  0.00  0.00    -0.690 N 
ATOM     11  H   LIG    1       -3.299  -2.044  -0.113  0.00  0.00    +0.420 HD
BRANCH  10  12
ATOM     12  C   LIG    1       -1.245  -2.528  -0.347  0.00  0.00    +0.370 C 
BRANCH  12  13
ATOM     13  C   LIG    1       -1.018  -1.047  -0.509  0.00  0.00    +0.460 C 
ATOM     14  O   LIG    1       -1.952  -0.283  -0.451  0.00  0.00    -0.500 OA
BRANCH  13  16
ATOM     15  C   LIG    1        0.365   0.861  -0.864  0.00  0.00    +0.290 C 
ATOM     16  O   LIG    1        0.222  -0.576  -0.717  0.00  0.00    -0.350 OA
ENDBRANCH  13  16
ENDBRANCH  12  13
ENDBRANCH  10  12
ENDBRANCH   1  10
BRANCH   2  17
ATOM     17  C   LIG    1       -5.400  -3.219   0.122  0.00  0.00    +0.250 C 
ATOM     18  N   LIG    1       -6.150  -2.371   0.028  0.00  0.00    -0.430 NA
ENDBRANCH   2  17
TORSDOF 6
ENDMDL
MODEL      834
REMARK  Name = ZINC000048890688
REMARK                            x       y       z     vdW  Elec       q    Type
REMARK                         _______ _______ _______ _____ _____    ______ ____
ROOT
ATOM      1  N   LIG    1        1.354  -2.503  -2.345  0.00  0.00    -0.720 N 
ATOM      2  H   LIG    1        1.691  -1.827  -2.954  0.00  0.00    +0.420 HD
ATOM      3  C   LIG    1        1.527  -3.809  -2.627  0.00  0.00    +0.520 C 
ATOM      4  O   LIG    1        1.106  -4.655  -1.866  0.00  0.00    -0.530 OA
ENDROOT
BRANCH   1   5
ATOM      5  C   LIG    1        0.657  -2.104  -1.120  0.00  0.00    +0.370 C 
BRANCH   5   6
ATOM      6  C   LIG    1        0.598  -0.600  -1.043  0.00  0.00    +0.460 C 
ATOM      7  O   LIG    1        1.088   0.070  -1.921  0.00  0.00    -0.500 OA
BRANCH   6   9
ATOM      8  C   LIG    1       -0.018   1.448   0.010  0.00  0.00    +0.290 C 
ATOM      9  O   LIG    1        0.002  -0.004   0.002  0.00  0.00    -0.350 OA
ENDBRANCH   6   9
ENDBRANCH   5   6
ENDBRANCH   1   5
BRANCH   3  10
ATOM     10  C   LIG    1        2.243  -4.220  -3.888  0.00  0.00    +0.340 C 
BRANCH  10  11
ATOM     11  N   LIG    1        2.301  -5.682  -3.962  0.00  0.00    -0.700 N 
ATOM     12  H   LIG    1        1.908  -6.220  -3.257  0.00  0.00    +0.420 HD
ATOM     13  C   LIG    1        2.899  -6.280  -5.011  0.00  0.00    +0.650 C 
ATOM     14  O   LIG    1        3.391  -5.607  -5.895  0.00  0.00    -0.570 OA
BRANCH  13  15
ATOM     15  O   LIG    1        2.952  -7.624  -5.080  0.00  0.00    -0.370 OA
ATOM     16  C   LIG    1        3.612  -8.199  -6.238  0.00  0.00    +0.310 C 
ENDBRANCH  13  15
ENDBRANCH  10  11
ENDBRANCH   3  10
TORSDOF 6
ENDMDL
MODEL      835
REMARK  Name = ZINC000006145154
REMARK                            x       y       z     vdW  Elec       q    Type
REMARK                         _______ _______ _______ _____ _____    ______ ____
ROOT
ATOM      1  C   LIG    1       -0.911  -3.661   1.547  0.00  0.00    +0.490 C 
ATOM      2  C   LIG    1       -2.201  -4.132   1.372  0.00  0.00    -0.440 C 
ATOM      3  C   LIG    1       -2.836  -5.131   2.155  0.00  0.00    +0.410 C 
ATOM      4  C   LIG    1       -4.223  -5.290   1.574  0.00  0.00    +0.250 C 
ATOM      5  N   LIG    1       -4.312  -4.346   0.456  0.00  0.00    -0.730 N 
ATOM      6  H   LIG    1       -5.087  -4.220  -0.113  0.00  0.00    +0.420 HD
ATOM      7  O   LIG    1       -2.362  -5.733   3.097  0.00  0.00    -0.470 OA
ATOM      8  C   LIG    1       -3.150  -3.680   0.349  0.00  0.00    +0.570 C 
ATOM      9  O   LIG    1       -2.915  -2.827  -0.486  0.00  0.00    -0.550 OA
ENDROOT
BRANCH   1  14
ATOM     10  C   LIG    1        1.195   1.243   0.576  0.00  0.00    +0.190 C 
ATOM     11  N   LIG    1        0.598  -0.077   0.335  0.00  0.00    -0.540 NA
ATOM     12  C   LIG    1       -0.734  -0.171   0.946  0.00  0.00    +0.160 C 
ATOM     13  C   LIG    1       -1.396  -1.487   0.522  0.00  0.00    +0.330 C 
ATOM     14  N   LIG    1       -0.483  -2.594   0.845  0.00  0.00    -0.570 N 
ATOM     15  C   LIG    1        0.910  -2.505   0.381  0.00  0.00    +0.290 C 
ATOM     16  C   LIG    1        1.481  -1.149   0.811  0.00  0.00    +0.170 C 
ENDBRANCH   1  14
TORSDOF 1
ENDMDL
MODEL      836
REMARK  Name = ZINC000005821543
REMARK                            x       y       z     vdW  Elec       q    Type
REMARK                         _______ _______ _______ _____ _____    ______ ____
ROOT
ATOM      1  C   LIG    1        1.531  -3.938   2.480  0.00  0.00    +0.300 C 
ATOM      2  O   LIG    1        0.217  -4.477   2.642  0.00  0.00    -0.380 OA
ATOM      3  C   LIG    1        0.176  -5.904   2.716  0.00  0.00    +0.190 C 
ATOM      4  C   LIG    1        0.984  -6.373   3.929  0.00  0.00    +0.170 C 
ATOM      5  C   LIG    1        2.420  -5.855   3.808  0.00  0.00    +0.160 C 
ATOM      6  C   LIG    1        2.393  -4.329   3.683  0.00  0.00    +0.140 C 
ENDROOT
BRANCH   5   7
ATOM      7  O   LIG    1        3.163  -6.228   4.971  0.00  0.00    -0.560 OA
ATOM      8  H   LIG    1        4.083  -5.932   4.962  0.00  0.00    +0.400 HD
ENDBRANCH   5   7
BRANCH   4   9
ATOM      9  O   LIG    1        0.992  -7.801   3.974  0.00  0.00    -0.550 OA
ATOM     10  H   LIG    1        1.487  -8.169   4.719  0.00  0.00    +0.390 HD
ENDBRANCH   4   9
BRANCH   6  11
ATOM     11  O   LIG    1        3.723  -3.840   3.498  0.00  0.00    -0.560 OA
ATOM     12  H   LIG    1        3.780  -2.879   3.412  0.00  0.00    +0.400 HD
ENDBRANCH   6  11
BRANCH   1  13
ATOM     13  O   LIG    1        1.454  -2.514   2.391  0.00  0.00    -0.370 OA
BRANCH  13  14
ATOM     14  C   LIG    1        0.763  -2.041   1.233  0.00  0.00    +0.170 C 
BRANCH  14  15
ATOM     15  C   LIG    1        0.742  -0.511   1.242  0.00  0.00    +0.020 C 
BRANCH  15  17
ATOM     16  C   LIG    1       -0.019   1.526   0.010  0.00  0.00    +0.030 C 
ATOM     17  C   LIG    1        0.002  -0.004   0.002  0.00  0.00    +0.010 C 
ENDBRANCH  15  17
ENDBRANCH  14  15
ENDBRANCH  13  14
ENDBRANCH   1  13
BRANCH   3  18
ATOM     18  C   LIG    1       -1.275  -6.366   2.859  0.00  0.00    +0.230 C 
BRANCH  18  19
ATOM     19  O   LIG    1       -2.001  -6.029   1.676  0.00  0.00    -0.570 OA
ATOM     20  H   LIG    1       -2.931  -6.293   1.696  0.00  0.00    +0.380 HD
ENDBRANCH  18  19
ENDBRANCH   3  18
TORSDOF 9
ENDMDL
MODEL      837
REMARK  Name = ZINC000074813534
REMARK                            x       y       z     vdW  Elec       q    Type
REMARK                         _______ _______ _______ _____ _____    ______ ____
ROOT
ATOM      1  N   LIG    1        0.796  -0.399  -1.397  0.00  0.00    -1.010 NA
ATOM      2  C   LIG    1        0.037  -0.578  -2.636  0.00  0.00    +0.350 C 
ATOM      3  C   LIG    1        0.451   0.495  -3.648  0.00  0.00    -0.340 C 
ATOM      4  S   LIG    1        2.238   0.364  -3.949  0.00  0.00    +2.420 S 
ATOM      5  C   LIG    1        2.897   0.508  -2.263  0.00  0.00    -0.340 C 
ATOM      6  O   LIG    1        2.656   1.496  -4.700  0.00  0.00    -0.940 OA
ATOM      7  O   LIG    1        2.522  -0.939  -4.439  0.00  0.00    -0.930 OA
ATOM      8  C   LIG    1        2.251  -0.560  -1.384  0.00  0.00    +0.340 C 
ENDROOT
BRANCH   1  10
ATOM      9  C   LIG    1       -0.022   1.810   0.012  0.00  0.00    -0.290 C 
ATOM     10  S   LIG    1        0.002  -0.004   0.002  0.00  0.00    +2.610 S 
ATOM     11  O   LIG    1       -1.309  -0.519  -0.182  0.00  0.00    -0.940 OA
ATOM     12  O   LIG    1        0.845  -0.497   1.035  0.00  0.00    -0.940 OA
ENDBRANCH   1  10
TORSDOF 1
ENDMDL
MODEL      838
REMARK  Name = ZINC000040387189
REMARK                            x       y       z     vdW  Elec       q    Type
REMARK                         _______ _______ _______ _____ _____    ______ ____
ROOT
ATOM      1  C   LIG    1        2.120  -0.064  -1.553  0.00  0.00    +0.640 C 
ATOM      2  N   LIG    1        2.739   0.555  -0.597  0.00  0.00    -0.650 NA
ATOM      3  C   LIG    1        4.137   0.962  -0.688  0.00  0.00    +0.400 C 
ATOM      4  N   LIG    1        4.840   0.182  -1.714  0.00  0.00    -0.570 NA
ATOM      5  C   LIG    1        4.086   0.208  -2.981  0.00  0.00    +0.440 C 
ATOM      6  N   LIG    1        2.770  -0.398  -2.721  0.00  0.00    -0.750 N 
ATOM      7  H   LIG    1        2.369  -1.011  -3.357  0.00  0.00    +0.410 HD
ENDROOT
BRANCH   1   8
ATOM      8  N   LIG    1        0.796  -0.399  -1.397  0.00  0.00    -1.040 N 
ATOM      9  H   LIG    1        0.327  -0.866  -2.105  0.00  0.00    +0.430 HD
BRANCH   8  11
ATOM     10  C   LIG    1       -0.022   1.810   0.012  0.00  0.00    -0.270 C 
ATOM     11  S   LIG    1        0.002  -0.004   0.002  0.00  0.00    +2.620 S 
ATOM     12  O   LIG    1       -1.309  -0.519  -0.182  0.00  0.00    -0.950 OA
ATOM     13  O   LIG    1        0.845  -0.497   1.035  0.00  0.00    -0.920 OA
ENDBRANCH   8  11
ENDBRANCH   1   8
BRANCH   4  14
ATOM     14  C   LIG    1        6.209   0.678  -1.906  0.00  0.00    +0.240 C 
BRANCH  14  15
ATOM     15  C   LIG    1        6.163   2.091  -2.491  0.00  0.00    -0.020 C 
BRANCH  15  16
ATOM     16  C   LIG    1        7.589   2.607  -2.691  0.00  0.00    +0.180 C 
BRANCH  16  17
ATOM     17  O   LIG    1        7.546   3.927  -3.237  0.00  0.00    -0.580 OA
ATOM     18  H   LIG    1        8.417   4.318  -3.390  0.00  0.00    +0.380 HD
ENDBRANCH  16  17
ENDBRANCH  15  16
ENDBRANCH  14  15
ENDBRANCH   4  14
TORSDOF 6
ENDMDL
MODEL      839
REMARK  Name = ZINC000020010402
REMARK                            x       y       z     vdW  Elec       q    Type
REMARK                         _______ _______ _______ _____ _____    ______ ____
ROOT
ATOM      1  C   LIG    1        2.207  -0.042  -1.563  0.00  0.00    +0.270 C 
ENDROOT
BRANCH   1   2
ATOM      2  N   LIG    1        0.796  -0.399  -1.397  0.00  0.00    -1.120 NA
ATOM      3  H   LIG    1        0.327  -0.866  -2.105  0.00  0.00    +0.420 HD
BRANCH   2   5
ATOM      4  C   LIG    1       -0.022   1.810   0.012  0.00  0.00    -0.280 C 
ATOM      5  S   LIG    1        0.002  -0.004   0.002  0.00  0.00    +2.620 S 
ATOM      6  O   LIG    1       -1.309  -0.519  -0.182  0.00  0.00    -0.960 OA
ATOM      7  O   LIG    1        0.845  -0.497   1.035  0.00  0.00    -0.950 OA
ENDBRANCH   2   5
ENDBRANCH   1   2
BRANCH   1   8
ATOM      8  C   LIG    1        2.795  -0.825  -2.739  0.00  0.00    +0.180 C 
BRANCH   8   9
ATOM      9  N   LIG    1        4.210  -0.467  -2.907  0.00  0.00    -0.530 NA
ATOM     10  C   LIG    1        4.396   0.990  -2.850  0.00  0.00    +0.150 C 
ATOM     11  C   LIG    1        5.887   1.314  -2.968  0.00  0.00    +0.220 C 
ATOM     12  O   LIG    1        6.398   0.750  -4.179  0.00  0.00    -0.380 OA
ATOM     13  C   LIG    1        6.235  -0.668  -4.267  0.00  0.00    +0.220 C 
ATOM     14  C   LIG    1        4.747  -1.012  -4.162  0.00  0.00    +0.160 C 
ENDBRANCH   8   9
ENDBRANCH   1   8
TORSDOF 4
ENDMDL
MODEL      840
REMARK  Name = ZINC000005886110
REMARK                            x       y       z     vdW  Elec       q    Type
REMARK                         _______ _______ _______ _____ _____    ______ ____
ROOT
ATOM      1  C   LIG    1        2.607  -0.574  -0.020  0.00  0.00    +0.610 C 
ATOM      2  N   LIG    1        3.531  -1.555  -0.024  0.00  0.00    -0.700 N 
ATOM      3  H   LIG    1        3.252  -2.484  -0.023  0.00  0.00    +0.420 HD
ATOM      4  O   LIG    1        2.956   0.590  -0.022  0.00  0.00    -0.510 OA
ENDROOT
BRANCH   1  10
ATOM      5  C   LIG    1        0.002  -0.004   0.002  0.00  0.00    +0.370 A 
ATOM      6  N   LIG    1       -1.011  -0.839   0.001  0.00  0.00    -0.370 NA
ATOM      7  O   LIG    1       -0.599  -1.975  -0.006  0.00  0.00    +0.310 OA
ATOM      8  N   LIG    1        0.602  -2.106  -0.012  0.00  0.00    -0.010 N 
ATOM      9  O   LIG    1        1.292  -3.342  -0.021  0.00  0.00    -0.430 OA
ATOM     10  C   LIG    1        1.170  -0.914  -0.014  0.00  0.00    -0.080 A 
BRANCH   5  11
ATOM     11  N   LIG    1       -0.017   1.384   0.010  0.00  0.00    -0.780 N 
ATOM     12  H   LIG    1       -0.863   1.857   0.016  0.00  0.00    +0.430 HD
ATOM     13  H   LIG    1        0.817   1.880   0.004  0.00  0.00    +0.440 HD
ENDBRANCH   5  11
ENDBRANCH   1  10
BRANCH   2  14
ATOM     14  C   LIG    1        4.957  -1.218  -0.030  0.00  0.00    +0.280 C 
BRANCH  14  15
ATOM     15  C   LIG    1        5.785  -2.505  -0.034  0.00  0.00    +0.120 C 
BRANCH  15  16
ATOM     16  C   LIG    1        7.251  -2.158  -0.040  0.00  0.00    -0.030 A 
ATOM     17  C   LIG    1        8.005  -1.876  -1.120  0.00  0.00    +0.160 A 
ATOM     18  N   LIG    1        9.253  -1.622  -0.700  0.00  0.00    -0.490 NA
ATOM     19  C   LIG    1        9.302  -1.736   0.599  0.00  0.00    +0.400 A 
ATOM     20  N   LIG    1        8.072  -2.063   1.051  0.00  0.00    -0.570 N 
ATOM     21  H   LIG    1        7.819  -2.210   1.976  0.00  0.00    +0.420 HD
ENDBRANCH  15  16
ENDBRANCH  14  15
ENDBRANCH   2  14
TORSDOF 5
ENDMDL
MODEL      841
REMARK  Name = ZINC000095180228
REMARK                            x       y       z     vdW  Elec       q    Type
REMARK                         _______ _______ _______ _____ _____    ______ ____
ROOT
ATOM      1  C   LIG    1        0.000  -0.688  -1.197  0.00  0.00    +0.630 A 
ATOM      2  N   LIG    1        0.013  -2.016  -1.205  0.00  0.00    -0.650 NA
ATOM      3  C   LIG    1        0.010  -2.670  -2.362  0.00  0.00    +0.630 A 
ATOM      4  N   LIG    1       -0.005  -1.992  -3.507  0.00  0.00    -0.630 NA
ATOM      5  C   LIG    1       -0.017  -0.670  -3.495  0.00  0.00    +0.430 A 
ATOM      6  N   LIG    1       -0.020  -0.017  -2.346  0.00  0.00    -0.620 NA
ENDROOT
BRANCH   1   8
ATOM      7  C   LIG    1       -0.018   1.461   0.010  0.00  0.00    +0.320 C 
ATOM      8  N   LIG    1        0.002  -0.004   0.002  0.00  0.00    -0.580 N 
ATOM      9  C   LIG    1        0.024  -0.743   1.267  0.00  0.00    +0.300 C 
ENDBRANCH   1   8
BRANCH   3  10
ATOM     10  N   LIG    1        0.022  -4.049  -2.376  0.00  0.00    -0.810 N 
ATOM     11  H   LIG    1        0.021  -4.526  -3.220  0.00  0.00    +0.420 HD
ATOM     12  H   LIG    1        0.033  -4.543  -1.541  0.00  0.00    +0.420 HD
ENDBRANCH   3  10
BRANCH   5  13
ATOM     13  C   LIG    1       -0.034   0.093  -4.794  0.00  0.00    +0.310 C 
BRANCH  13  14
ATOM     14  C   LIG    1       -1.461   0.334  -5.216  0.00  0.00    +0.180 A 
ATOM     15  N   LIG    1       -2.196  -0.451  -5.964  0.00  0.00    -0.280 NA
ATOM     16  N   LIG    1       -3.353   0.101  -6.100  0.00  0.00    -0.230 N 
ATOM     17  H   LIG    1       -4.095  -0.266  -6.606  0.00  0.00    +0.480 HD
ATOM     18  N   LIG    1       -3.367   1.216  -5.455  0.00  0.00    -0.050 NA
ATOM     19  N   LIG    1       -2.217   1.385  -4.896  0.00  0.00    -0.260 NA
ENDBRANCH  13  14
ENDBRANCH   5  13
TORSDOF 4
ENDMDL
MODEL      842
REMARK  Name = ZINC000008672839
REMARK                            x       y       z     vdW  Elec       q    Type
REMARK                         _______ _______ _______ _____ _____    ______ ____
ROOT
ATOM      1  C   LIG    1       -0.018   1.461   0.010  0.00  0.00    +0.360 C 
ATOM      2  N   LIG    1        0.002  -0.004   0.002  0.00  0.00    -0.560 N 
ATOM      3  C   LIG    1        0.005  -0.663  -1.177  0.00  0.00    +0.580 A 
ATOM      4  C   LIG    1        0.025  -2.134  -1.152  0.00  0.00    -0.120 A 
ATOM      5  C   LIG    1        0.040  -2.773   0.093  0.00  0.00    +0.430 A 
ATOM      6  N   LIG    1        0.035  -2.014   1.231  0.00  0.00    -0.540 N 
ATOM      7  C   LIG    1        0.051  -2.674   2.539  0.00  0.00    +0.360 C 
ATOM      8  N   LIG    1        0.058  -4.131   0.151  0.00  0.00    -0.600 N 
ATOM      9  H   LIG    1        0.069  -4.587   1.007  0.00  0.00    +0.420 HD
ATOM     10  C   LIG    1        0.062  -4.835  -1.002  0.00  0.00    +0.510 A 
ATOM     11  C   LIG    1        0.047  -4.154  -2.242  0.00  0.00    +0.220 A 
ATOM     12  O   LIG    1        0.078  -6.053  -0.974  0.00  0.00    -0.500 OA
ATOM     13  N   LIG    1        0.029  -2.847  -2.282  0.00  0.00    -0.320 NA
ATOM     14  O   LIG    1       -0.007  -0.057  -2.231  0.00  0.00    -0.460 OA
ATOM     15  C   LIG    1        0.022  -0.672   1.167  0.00  0.00    +0.710 A 
ATOM     16  O   LIG    1        0.019  -0.038   2.204  0.00  0.00    -0.510 OA
ENDROOT
TORSDOF 0
ENDMDL
MODEL      843
REMARK  Name = ZINC000013518823
REMARK                            x       y       z     vdW  Elec       q    Type
REMARK                         _______ _______ _______ _____ _____    ______ ____
ROOT
ATOM      1  C   LIG    1        0.746  -1.888  -1.280  0.00  0.00    +0.320 C 
ATOM      2  O   LIG    1       -0.557  -2.416  -1.538  0.00  0.00    -0.370 OA
ATOM      3  C   LIG    1       -1.163  -1.915  -2.732  0.00  0.00    +0.190 C 
ATOM      4  C   LIG    1       -0.300  -2.293  -3.938  0.00  0.00    +0.160 C 
ATOM      5  C   LIG    1        1.111  -1.731  -3.744  0.00  0.00    +0.160 C 
ATOM      6  C   LIG    1        1.685  -2.266  -2.428  0.00  0.00    +0.150 C 
ENDROOT
BRANCH   5   7
ATOM      7  O   LIG    1        1.943  -2.140  -4.831  0.00  0.00    -0.560 OA
ATOM      8  H   LIG    1        2.853  -1.819  -4.773  0.00  0.00    +0.390 HD
ENDBRANCH   5   7
BRANCH   4   9
ATOM      9  O   LIG    1       -0.874  -1.746  -5.127  0.00  0.00    -0.550 OA
ATOM     10  H   LIG    1       -0.378  -1.947  -5.932  0.00  0.00    +0.390 HD
ENDBRANCH   4   9
BRANCH   6  11
ATOM     11  O   LIG    1        2.974  -1.692  -2.201  0.00  0.00    -0.550 OA
ATOM     12  H   LIG    1        3.397  -1.986  -1.383  0.00  0.00    +0.390 HD
ENDBRANCH   6  11
BRANCH   1  13
ATOM     13  O   LIG    1        0.671  -0.465  -1.174  0.00  0.00    -0.390 OA
BRANCH  13  15
ATOM     14  C   LIG    1       -0.019   1.526   0.010  0.00  0.00    +0.040 C 
ATOM     15  C   LIG    1        0.002  -0.004   0.002  0.00  0.00    +0.170 C 
ENDBRANCH  13  15
ENDBRANCH   1  13
BRANCH   3  16
ATOM     16  C   LIG    1       -2.558  -2.524  -2.890  0.00  0.00    +0.220 C 
BRANCH  16  17
ATOM     17  O   LIG    1       -3.397  -2.076  -1.823  0.00  0.00    -0.570 OA
ATOM     18  H   LIG    1       -4.298  -2.424  -1.860  0.00  0.00    +0.380 HD
ENDBRANCH  16  17
ENDBRANCH   3  16
TORSDOF 7
ENDMDL
MODEL      844
REMARK  Name = ZINC000013515170
REMARK                            x       y       z     vdW  Elec       q    Type
REMARK                         _______ _______ _______ _____ _____    ______ ____
ROOT
ATOM      1  C   LIG    1        1.531  -3.938   2.480  0.00  0.00    +0.320 C 
ATOM      2  O   LIG    1        2.414  -4.432   1.471  0.00  0.00    -0.370 OA
ATOM      3  C   LIG    1        3.742  -3.912   1.553  0.00  0.00    +0.190 C 
ATOM      4  C   LIG    1        4.362  -4.308   2.896  0.00  0.00    +0.160 C 
ATOM      5  C   LIG    1        3.479  -3.782   4.032  0.00  0.00    +0.160 C 
ATOM      6  C   LIG    1        2.061  -4.335   3.860  0.00  0.00    +0.150 C 
ENDROOT
BRANCH   5   7
ATOM      7  O   LIG    1        4.012  -4.208   5.287  0.00  0.00    -0.560 OA
ATOM      8  H   LIG    1        3.502  -3.910   6.053  0.00  0.00    +0.390 HD
ENDBRANCH   5   7
BRANCH   4   9
ATOM      9  O   LIG    1        5.670  -3.742   3.004  0.00  0.00    -0.550 OA
ATOM     10  H   LIG    1        6.122  -3.953   3.832  0.00  0.00    +0.390 HD
ENDBRANCH   4   9
BRANCH   6  11
ATOM     11  O   LIG    1        1.212  -3.795   4.874  0.00  0.00    -0.550 OA
ATOM     12  H   LIG    1        0.296  -4.103   4.826  0.00  0.00    +0.390 HD
ENDBRANCH   6  11
BRANCH   1  13
ATOM     13  O   LIG    1        1.454  -2.514   2.391  0.00  0.00    -0.380 OA
BRANCH  13  14
ATOM     14  C   LIG    1        0.763  -2.041   1.233  0.00  0.00    +0.170 C 
BRANCH  14  15
ATOM     15  C   LIG    1        0.742  -0.511   1.242  0.00  0.00    +0.020 C 
BRANCH  15  17
ATOM     16  C   LIG    1       -0.019   1.526   0.010  0.00  0.00    +0.020 C 
ATOM     17  C   LIG    1        0.002  -0.004   0.002  0.00  0.00    +0.000 C 
ENDBRANCH  15  17
ENDBRANCH  14  15
ENDBRANCH  13  14
ENDBRANCH   1  13
BRANCH   3  18
ATOM     18  C   LIG    1        4.586  -4.485   0.412  0.00  0.00    +0.210 C 
BRANCH  18  19
ATOM     19  O   LIG    1        4.074  -4.020  -0.838  0.00  0.00    -0.570 OA
ATOM     20  H   LIG    1        4.562  -4.345  -1.608  0.00  0.00    +0.380 HD
ENDBRANCH  18  19
ENDBRANCH   3  18
TORSDOF 9
ENDMDL
MODEL      845
REMARK  Name = ZINC000101185929
REMARK                            x       y       z     vdW  Elec       q    Type
REMARK                         _______ _______ _______ _____ _____    ______ ____
ROOT
ATOM      1  C   LIG    1        0.877  -0.392  -1.539  0.00  0.00    +0.180 C 
ATOM      2  O   LIG    1        0.099   0.051  -2.653  0.00  0.00    -0.340 OA
ATOM      3  C   LIG    1        0.711  -0.184  -3.923  0.00  0.00    +0.180 C 
ATOM      4  C   LIG    1        0.919  -1.688  -4.117  0.00  0.00    +0.170 C 
ATOM      5  C   LIG    1        1.776  -2.229  -2.969  0.00  0.00    +0.160 C 
ATOM      6  C   LIG    1        1.092  -1.904  -1.637  0.00  0.00    +0.140 C 
ENDROOT
BRANCH   1   8
ATOM      7  C   LIG    1       -0.022   1.810   0.012  0.00  0.00    +0.150 C 
ATOM      8  S   LIG    1        0.002  -0.004   0.002  0.00  0.00    -0.220 S 
ENDBRANCH   1   8
BRANCH   5   9
ATOM      9  O   LIG    1        3.067  -1.617  -3.006  0.00  0.00    -0.550 OA
ATOM     10  H   LIG    1        3.664  -1.915  -2.306  0.00  0.00    +0.390 HD
ENDBRANCH   5   9
BRANCH   4  11
ATOM     11  O   LIG    1       -0.348  -2.349  -4.121  0.00  0.00    -0.520 OA
ATOM     12  H   LIG    1       -0.291  -3.307  -4.240  0.00  0.00    +0.380 HD
ENDBRANCH   4  11
BRANCH   6  13
ATOM     13  O   LIG    1       -0.170  -2.572  -1.574  0.00  0.00    -0.530 OA
ATOM     14  H   LIG    1       -0.660  -2.411  -0.756  0.00  0.00    +0.380 HD
ENDBRANCH   6  13
BRANCH   3  15
ATOM     15  C   LIG    1       -0.194   0.354  -5.033  0.00  0.00    +0.220 C 
BRANCH  15  16
ATOM     16  O   LIG    1       -0.295   1.774  -4.919  0.00  0.00    -0.570 OA
ATOM     17  H   LIG    1       -0.856   2.184  -5.593  0.00  0.00    +0.380 HD
ENDBRANCH  15  16
ENDBRANCH   3  15
TORSDOF 6
ENDMDL
MODEL      846
REMARK  Name = ZINC000229821919
REMARK                            x       y       z     vdW  Elec       q    Type
REMARK                         _______ _______ _______ _____ _____    ______ ____
ROOT
ATOM      1  C   LIG    1       -0.019   1.526   0.010  0.00  0.00    +0.130 C 
ATOM      2  C   LIG    1        0.002  -0.004   0.002  0.00  0.00    +0.130 C 
ATOM      3  C   LIG    1        0.763  -0.650  -1.159  0.00  0.00    -0.030 C 
ATOM      4  C   LIG    1        1.089  -1.868  -0.762  0.00  0.00    -0.020 C 
ATOM      5  C   LIG    1        0.543  -2.023   0.660  0.00  0.00    +0.130 C 
ATOM      6  C   LIG    1       -1.001  -2.170   0.488  0.00  0.00    +0.000 C 
ATOM      7  C   LIG    1       -1.265  -3.045  -0.716  0.00  0.00    +0.550 C 
ATOM      8  N   LIG    1       -1.726  -2.294  -1.722  0.00  0.00    -0.670 N 
ATOM      9  H   LIG    1       -1.959  -2.664  -2.588  0.00  0.00    +0.420 HD
ATOM     10  C   LIG    1       -1.841  -0.992  -1.437  0.00  0.00    +0.530 C 
ATOM     11  O   LIG    1       -2.238  -0.141  -2.203  0.00  0.00    -0.470 OA
ATOM     12  O   LIG    1       -1.086  -4.243  -0.762  0.00  0.00    -0.470 OA
ATOM     13  C   LIG    1       -1.395  -0.698   0.034  0.00  0.00    +0.030 C 
ATOM     14  O   LIG    1        0.661  -0.644   1.147  0.00  0.00    -0.330 OA
ENDROOT
BRANCH   5  15
ATOM     15  C   LIG    1        1.219  -3.096   1.516  0.00  0.00    +0.260 C 
BRANCH  15  16
ATOM     16  O   LIG    1        2.615  -2.812   1.620  0.00  0.00    -0.560 OA
ATOM     17  H   LIG    1        3.108  -3.453   2.151  0.00  0.00    +0.390 HD
ENDBRANCH  15  16
ENDBRANCH   5  15
TORSDOF 2
ENDMDL
MODEL      847
REMARK  Name = ZINC000070643939
REMARK                            x       y       z     vdW  Elec       q    Type
REMARK                         _______ _______ _______ _____ _____    ______ ____
ROOT
ATOM      1  N   LIG    1        1.168  -4.161  -2.230  0.00  0.00    -0.690 N 
ATOM      2  H   LIG    1        0.688  -4.586  -1.502  0.00  0.00    +0.420 HD
ATOM      3  C   LIG    1        1.706  -4.911  -3.212  0.00  0.00    +0.510 C 
ATOM      4  O   LIG    1        2.307  -4.379  -4.122  0.00  0.00    -0.520 OA
ENDROOT
BRANCH   3   5
ATOM      5  C   LIG    1        1.562  -6.399  -3.179  0.00  0.00    +0.510 C 
ATOM      6  N   LIG    1        2.100  -7.149  -4.161  0.00  0.00    -0.670 N 
ATOM      7  H   LIG    1        2.580  -6.724  -4.889  0.00  0.00    +0.410 HD
ATOM      8  O   LIG    1        0.961  -6.930  -2.269  0.00  0.00    -0.510 OA
BRANCH   6   9
ATOM      9  C   LIG    1        1.959  -8.607  -4.130  0.00  0.00    +0.210 C 
ATOM     10  C   LIG    1        1.601  -9.311  -5.440  0.00  0.00    +0.020 C 
ATOM     11  C   LIG    1        3.014  -9.435  -4.866  0.00  0.00    +0.030 C 
ENDBRANCH   6   9
ENDBRANCH   3   5
BRANCH   1  12
ATOM     12  C   LIG    1        1.309  -2.703  -2.261  0.00  0.00    +0.260 C 
BRANCH  12  13
ATOM     13  C   LIG    1        0.613  -2.097  -1.041  0.00  0.00    +0.120 C 
ATOM     14  C   LIG    1       -0.842  -2.568  -0.997  0.00  0.00    +0.070 C 
BRANCH  13  15
ATOM     15  O   LIG    1        1.286  -2.516   0.148  0.00  0.00    -0.540 OA
ATOM     16  H   LIG    1        2.215  -2.251   0.188  0.00  0.00    +0.380 HD
ENDBRANCH  13  15
BRANCH  13  17
ATOM     17  C   LIG    1        0.652  -0.570  -1.138  0.00  0.00    +0.160 C 
BRANCH  17  19
ATOM     18  C   LIG    1       -0.017   1.425   0.010  0.00  0.00    +0.200 C 
ATOM     19  O   LIG    1        0.002  -0.004   0.002  0.00  0.00    -0.380 OA
ENDBRANCH  17  19
ENDBRANCH  13  17
ENDBRANCH  12  13
ENDBRANCH   1  12
TORSDOF 7
ENDMDL
MODEL      848
REMARK  Name = ZINC000009680397
REMARK                            x       y       z     vdW  Elec       q    Type
REMARK                         _______ _______ _______ _____ _____    ______ ____
ROOT
ATOM      1  N   LIG    1        0.688  -0.476  -1.203  0.00  0.00    -0.700 N 
ATOM      2  H   LIG    1        1.485  -1.024  -1.125  0.00  0.00    +0.410 HD
ATOM      3  C   LIG    1        0.211  -0.151  -2.421  0.00  0.00    +0.600 C 
ATOM      4  O   LIG    1       -0.787   0.535  -2.519  0.00  0.00    -0.520 OA
ENDROOT
BRANCH   3   5
ATOM      5  C   LIG    1        0.903  -0.628  -3.638  0.00  0.00    +0.020 A 
ATOM      6  N   LIG    1        1.980  -1.373  -3.529  0.00  0.00    -0.180 NA
ATOM      7  N   LIG    1        2.616  -1.812  -4.554  0.00  0.00    -0.440 N 
ATOM      8  H   LIG    1        3.406  -2.359  -4.421  0.00  0.00    +0.440 HD
ATOM      9  C   LIG    1        2.217  -1.533  -5.809  0.00  0.00    +0.480 A 
ATOM     10  C   LIG    1        1.069  -0.737  -6.015  0.00  0.00    -0.010 A 
ATOM     11  O   LIG    1        2.844  -1.965  -6.763  0.00  0.00    -0.520 OA
ATOM     12  C   LIG    1        0.401  -0.284  -4.916  0.00  0.00    +0.140 A 
ENDBRANCH   3   5
BRANCH   1  14
ATOM     13  C   LIG    1       -0.019   1.526   0.010  0.00  0.00    +0.060 C 
ATOM     14  C   LIG    1        0.002  -0.004   0.002  0.00  0.00    +0.180 C 
BRANCH  14  15
ATOM     15  C   LIG    1       -1.433  -0.534   0.013  0.00  0.00    +0.190 C 
BRANCH  15  16
ATOM     16  O   LIG    1       -1.414  -1.962   0.005  0.00  0.00    -0.570 OA
ATOM     17  H   LIG    1       -2.292  -2.368   0.011  0.00  0.00    +0.380 HD
ENDBRANCH  15  16
ENDBRANCH  14  15
BRANCH  14  18
ATOM     18  C   LIG    1        0.742  -0.511   1.242  0.00  0.00    +0.190 C 
BRANCH  18  19
ATOM     19  O   LIG    1        0.073  -0.050   2.417  0.00  0.00    -0.560 OA
ATOM     20  H   LIG    1        0.488  -0.334   3.243  0.00  0.00    +0.390 HD
ENDBRANCH  18  19
ENDBRANCH  14  18
ENDBRANCH   1  14
TORSDOF 6
ENDMDL
MODEL      849
REMARK  Name = ZINC000028568295
REMARK                            x       y       z     vdW  Elec       q    Type
REMARK                         _______ _______ _______ _____ _____    ______ ____
ROOT
ATOM      1  C   LIG    1        0.020  -2.136  -1.177  0.00  0.00    +0.440 C 
ATOM      2  N   LIG    1       -1.314  -2.641  -1.524  0.00  0.00    -0.510 N 
ATOM      3  C   LIG    1       -1.323  -4.108  -1.460  0.00  0.00    +0.290 C 
ATOM      4  C   LIG    1       -0.356  -4.674  -2.502  0.00  0.00    -0.120 C 
ATOM      5  C   LIG    1        1.056  -4.158  -2.212  0.00  0.00    +0.170 C 
ATOM      6  H   LIG    1       -1.552  -2.346  -2.459  0.00  0.00    +0.420 HD
ATOM      7  H   LIG    1       -1.992  -2.273  -0.873  0.00  0.00    +0.430 HD
ATOM      8  C   LIG    1        1.038  -2.627  -2.208  0.00  0.00    +0.190 C 
ENDROOT
BRANCH   1  11
ATOM      9  C   LIG    1       -0.018   1.503   0.010  0.00  0.00    +0.130 C 
ATOM     10  C   LIG    1        0.002  -0.004   0.002  0.00  0.00    +0.520 C 
ATOM     11  N   LIG    1        0.000  -0.672  -1.169  0.00  0.00    -0.730 N 
ATOM     12  H   LIG    1       -0.015  -0.182  -2.006  0.00  0.00    +0.410 HD
ATOM     13  O   LIG    1        0.020  -0.616   1.049  0.00  0.00    -0.520 OA
ENDBRANCH   1  11
BRANCH   4  14
ATOM     14  C   LIG    1       -0.367  -6.179  -2.433  0.00  0.00    +0.510 C 
ATOM     15  O   LIG    1        0.660  -6.785  -2.181  0.00  0.00    -0.670 OA
ATOM     16  O   LIG    1       -1.403  -6.791  -2.631  0.00  0.00    -0.660 OA
ENDBRANCH   4  14
BRANCH   5  17
ATOM     17  O   LIG    1        1.488  -4.636  -0.937  0.00  0.00    -0.570 OA
ATOM     18  H   LIG    1        1.517  -5.600  -0.868  0.00  0.00    +0.410 HD
ENDBRANCH   5  17
BRANCH   8  19
ATOM     19  O   LIG    1        2.336  -2.135  -1.868  0.00  0.00    -0.540 OA
ATOM     20  H   LIG    1        3.034  -2.410  -2.479  0.00  0.00    +0.400 HD
ENDBRANCH   8  19
TORSDOF 4
ENDMDL
MODEL      850
REMARK  Name = ZINC000096191867
REMARK                            x       y       z     vdW  Elec       q    Type
REMARK                         _______ _______ _______ _____ _____    ______ ____
ROOT
ATOM      1  C   LIG    1       -0.018   1.461   0.010  0.00  0.00    +0.370 C 
ATOM      2  N   LIG    1        0.002  -0.004   0.002  0.00  0.00    -0.560 N 
ATOM      3  C   LIG    1        0.006  -0.671  -1.169  0.00  0.00    +0.700 A 
ATOM      4  N   LIG    1        0.024  -2.019  -1.176  0.00  0.00    -0.560 N 
ATOM      5  C   LIG    1        0.040  -2.699  -0.013  0.00  0.00    +0.700 A 
ATOM      6  N   LIG    1        0.036  -2.032   1.158  0.00  0.00    -0.560 N 
ATOM      7  O   LIG    1        0.057  -3.914  -0.019  0.00  0.00    -0.490 OA
ATOM      8  C   LIG    1        0.029  -2.745  -2.449  0.00  0.00    +0.380 C 
ATOM      9  O   LIG    1       -0.008  -0.058  -2.218  0.00  0.00    -0.510 OA
ATOM     10  C   LIG    1        0.022  -0.684   1.165  0.00  0.00    +0.700 A 
ATOM     11  O   LIG    1        0.019  -0.082   2.221  0.00  0.00    -0.500 OA
ENDROOT
BRANCH   6  12
ATOM     12  C   LIG    1        0.053  -2.771   2.423  0.00  0.00    +0.460 C 
BRANCH  12  13
ATOM     13  C   LIG    1        1.479  -3.004   2.849  0.00  0.00    -0.020 A 
ATOM     14  N   LIG    1        2.259  -3.975   2.467  0.00  0.00    -0.330 NA
ATOM     15  O   LIG    1        3.351  -3.897   2.980  0.00  0.00    +0.110 OA
ATOM     16  C   LIG    1        3.439  -2.834   3.792  0.00  0.00    +0.160 A 
ATOM     17  C   LIG    1        2.238  -2.209   3.739  0.00  0.00    -0.030 A 
ENDBRANCH  12  13
ENDBRANCH   6  12
TORSDOF 2
ENDMDL
MODEL      851
REMARK  Name = ZINC000033327123
REMARK                            x       y       z     vdW  Elec       q    Type
REMARK                         _______ _______ _______ _____ _____    ______ ____
ROOT
ATOM      1  O   LIG    1        0.002  -0.004   0.002  0.00  0.00    -0.520 OA
ATOM      2  C   LIG    1       -0.014   1.212   0.009  0.00  0.00    +0.700 A 
ATOM      3  N   LIG    1       -1.194   1.859   0.029  0.00  0.00    -0.630 N 
ATOM      4  H   LIG    1       -2.020   1.351   0.037  0.00  0.00    +0.450 HD
ATOM      5  C   LIG    1       -1.238   3.226   0.037  0.00  0.00    +0.530 A 
ATOM      6  C   LIG    1       -0.088   3.933   0.025  0.00  0.00    -0.860 A 
ATOM      7  C   LIG    1        1.146   3.239   0.004  0.00  0.00    +0.590 A 
ATOM      8  O   LIG    1        2.197   3.855  -0.008  0.00  0.00    -0.490 OA
ATOM      9  N   LIG    1        1.147   1.891   0.001  0.00  0.00    -0.650 N 
ATOM     10  H   LIG    1        1.989   1.409  -0.013  0.00  0.00    +0.440 HD
ENDROOT
BRANCH   6  11
ATOM     11  S   LIG    1       -0.122   5.695   0.036  0.00  0.00    +2.740 S 
ATOM     12  O   LIG    1       -1.491   6.070  -0.026  0.00  0.00    -0.950 OA
ATOM     13  O   LIG    1        0.845   6.120  -0.914  0.00  0.00    -0.930 OA
BRANCH  11  14
ATOM     14  N   LIG    1        0.431   6.186   1.518  0.00  0.00    -1.010 NA
ATOM     15  C   LIG    1       -0.399   6.410   2.711  0.00  0.00    +0.260 C 
ATOM     16  C   LIG    1        0.541   6.883   3.840  0.00  0.00    +0.030 C 
ATOM     17  C   LIG    1        1.763   7.441   3.065  0.00  0.00    +0.030 C 
ATOM     18  C   LIG    1        1.837   6.466   1.861  0.00  0.00    +0.280 C 
ENDBRANCH  11  14
ENDBRANCH   6  11
TORSDOF 2
ENDMDL
MODEL      852
REMARK  Name = ZINC000088583408
REMARK                            x       y       z     vdW  Elec       q    Type
REMARK                         _______ _______ _______ _____ _____    ______ ____
ROOT
ATOM      1  N   LIG    1        1.407  -0.222   2.977  0.00  0.00    -0.530 N 
ATOM      2  C   LIG    1        2.060  -1.289   3.531  0.00  0.00    +0.370 A 
ATOM      3  C   LIG    1        3.334  -1.146   3.956  0.00  0.00    -0.110 A 
ATOM      4  C   LIG    1        3.969   0.112   3.818  0.00  0.00    +0.550 A 
ATOM      5  N   LIG    1        3.291   1.138   3.267  0.00  0.00    -0.660 N 
ATOM      6  H   LIG    1        3.719   2.003   3.169  0.00  0.00    +0.430 HD
ATOM      7  O   LIG    1        5.117   0.265   4.194  0.00  0.00    -0.510 OA
ATOM      8  C   LIG    1        2.023   0.967   2.847  0.00  0.00    +0.700 A 
ATOM      9  O   LIG    1        1.424   1.901   2.352  0.00  0.00    -0.540 OA
ENDROOT
BRANCH   1  10
ATOM     10  C   LIG    1        0.025  -0.377   2.515  0.00  0.00    +0.470 C 
BRANCH  10  16
ATOM     11  C   LIG    1       -0.018   1.461   0.010  0.00  0.00    +0.380 C 
ATOM     12  N   LIG    1        0.002  -0.004   0.002  0.00  0.00    -0.360 N 
ATOM     13  N   LIG    1        0.009  -0.840  -1.127  0.00  0.00    -0.310 NA
ATOM     14  C   LIG    1        0.028  -2.070  -0.686  0.00  0.00    +0.420 A 
ATOM     15  N   LIG    1        0.034  -2.052   0.646  0.00  0.00    -0.530 NA
ATOM     16  C   LIG    1        0.023  -0.816   1.074  0.00  0.00    +0.240 A 
ENDBRANCH  10  16
ENDBRANCH   1  10
TORSDOF 2
ENDMDL
MODEL      853
REMARK  Name = ZINC000016124914
REMARK                            x       y       z     vdW  Elec       q    Type
REMARK                         _______ _______ _______ _____ _____    ______ ____
ROOT
ATOM      1  C   LIG    1       -1.136  -2.159   0.001  0.00  0.00    +0.250 C 
ATOM      2  C   LIG    1       -1.146  -2.662  -1.444  0.00  0.00    +0.340 C 
ATOM      3  O   LIG    1       -2.353  -2.243  -2.085  0.00  0.00    -0.390 OA
ATOM      4  C   LIG    1       -3.542  -2.750  -1.477  0.00  0.00    +0.150 C 
ATOM      5  C   LIG    1       -3.629  -2.250  -0.033  0.00  0.00    +0.120 C 
ATOM      6  C   LIG    1       -2.374  -2.691   0.729  0.00  0.00    +0.180 C 
ENDROOT
BRANCH   1   9
ATOM      7  C   LIG    1       -0.618   1.489   1.041  0.00  0.00    +0.090 C 
ATOM      8  C   LIG    1       -0.597  -0.018   1.033  0.00  0.00    +0.520 C 
ATOM      9  N   LIG    1       -1.156  -0.694   0.009  0.00  0.00    -0.690 N 
ATOM     10  H   LIG    1       -1.571  -0.210  -0.722  0.00  0.00    +0.410 HD
ATOM     11  O   LIG    1       -0.078  -0.622   1.947  0.00  0.00    -0.540 OA
ENDBRANCH   1   9
BRANCH   5  12
ATOM     12  O   LIG    1       -3.716  -0.824  -0.026  0.00  0.00    -0.530 OA
ATOM     13  H   LIG    1       -4.486  -0.474  -0.495  0.00  0.00    +0.370 HD
ENDBRANCH   5  12
BRANCH   2  14
ATOM     14  O   LIG    1       -0.023  -2.124  -2.144  0.00  0.00    -0.530 OA
ATOM     15  H   LIG    1        0.035  -2.402  -3.069  0.00  0.00    +0.390 HD
ENDBRANCH   2  14
BRANCH   6  16
ATOM     16  O   LIG    1       -2.413  -2.168   2.058  0.00  0.00    -0.530 OA
ATOM     17  H   LIG    1       -3.177  -2.460   2.574  0.00  0.00    +0.380 HD
ENDBRANCH   6  16
BRANCH   4  18
ATOM     18  C   LIG    1       -4.763  -2.263  -2.260  0.00  0.00    +0.210 C 
BRANCH  18  19
ATOM     19  O   LIG    1       -4.742  -2.824  -3.574  0.00  0.00    -0.560 OA
ATOM     20  H   LIG    1       -5.488  -2.557  -4.128  0.00  0.00    +0.390 HD
ENDBRANCH  18  19
ENDBRANCH   4  18
TORSDOF 6
ENDMDL
MODEL      854
REMARK  Name = ZINC000085482195
REMARK                            x       y       z     vdW  Elec       q    Type
REMARK                         _______ _______ _______ _____ _____    ______ ____
ROOT
ATOM      1  C1* LIG    1       -0.047   5.392   0.031  0.00  0.00    +0.480 C 
ATOM      2  O4* LIG    1       -0.415   5.875   1.334  0.00  0.00    -0.350 OA
ATOM      3  C4* LIG    1       -1.155   7.099   1.136  0.00  0.00    +0.190 C 
ATOM      4  C3* LIG    1       -2.038   6.791  -0.100  0.00  0.00    +0.140 C 
ATOM      5  C2* LIG    1       -1.090   5.926  -0.970  0.00  0.00    +0.140 C 
ENDROOT
BRANCH   1  10
ATOM      6  O   LIG    1        0.002  -0.004   0.002  0.00  0.00    -0.480 OA
ATOM      7  C   LIG    1       -0.014   1.213   0.009  0.00  0.00    +0.520 A 
ATOM      8  C   LIG    1       -1.288   1.938   0.031  0.00  0.00    +0.280 A 
ATOM      9  N   LIG    1       -1.275   3.242   0.038  0.00  0.00    -0.160 NA
ATOM     10  N   LIG    1       -0.054   3.927   0.024  0.00  0.00    -0.440 N 
ATOM     11  C   LIG    1        1.112   3.258   0.004  0.00  0.00    +0.690 A 
ATOM     12  O   LIG    1        2.158   3.878  -0.007  0.00  0.00    -0.520 OA
ATOM     13  N   LIG    1        1.140   1.912   0.001  0.00  0.00    -0.660 N 
ATOM     14  H   LIG    1        1.989   1.444  -0.013  0.00  0.00    +0.440 HD
ENDBRANCH   1  10
BRANCH   4  15
ATOM     15  O3* LIG    1       -3.203   6.054   0.277  0.00  0.00    -0.540 OA
ATOM     16  H3* LIG    1       -3.788   5.837  -0.463  0.00  0.00    +0.380 HD
ENDBRANCH   4  15
BRANCH   5  17
ATOM     17  O2* LIG    1       -0.464   6.726  -1.975  0.00  0.00    -0.550 OA
ATOM     18  H2* LIG    1       -1.083   7.133  -2.596  0.00  0.00    +0.390 HD
ENDBRANCH   5  17
BRANCH   3  19
ATOM     19  C5* LIG    1       -2.022   7.408   2.358  0.00  0.00    +0.220 C 
BRANCH  19  20
ATOM     20  O5* LIG    1       -1.181   7.701   3.476  0.00  0.00    -0.570 OA
ATOM     21  H5* LIG    1       -1.665   7.907   4.288  0.00  0.00    +0.380 HD
ENDBRANCH  19  20
ENDBRANCH   3  19
TORSDOF 5
ENDMDL
MODEL      855
REMARK  Name = ZINC000030695513
REMARK                            x       y       z     vdW  Elec       q    Type
REMARK                         _______ _______ _______ _____ _____    ______ ____
ROOT
ATOM      1  N   LIG    1       -2.644  -2.569  -0.019  0.00  0.00    -0.700 N 
ATOM      2  H   LIG    1       -3.357  -1.911  -0.017  0.00  0.00    +0.420 HD
ATOM      3  C   LIG    1       -2.941  -3.883  -0.005  0.00  0.00    +0.600 C 
ATOM      4  O   LIG    1       -2.048  -4.708  -0.007  0.00  0.00    -0.540 OA
ENDROOT
BRANCH   3   5
ATOM      5  C   LIG    1       -4.351  -4.322   0.013  0.00  0.00    -0.060 A 
ATOM      6  N   LIG    1       -5.329  -3.426   0.122  0.00  0.00    -0.370 NA
ATOM      7  C   LIG    1       -6.585  -3.821   0.139  0.00  0.00    +0.160 A 
ATOM      8  C   LIG    1       -6.898  -5.169   0.042  0.00  0.00    +0.330 A 
ATOM      9  N   LIG    1       -5.939  -6.070  -0.066  0.00  0.00    -0.510 NA
ATOM     10  C   LIG    1       -4.668  -5.687  -0.090  0.00  0.00    +0.420 A 
BRANCH  10  11
ATOM     11  N   LIG    1       -3.660  -6.627  -0.203  0.00  0.00    -0.810 N 
ATOM     12  H   LIG    1       -2.732  -6.352  -0.143  0.00  0.00    +0.430 HD
ATOM     13  H   LIG    1       -3.881  -7.561  -0.344  0.00  0.00    +0.400 HD
ENDBRANCH  10  11
ENDBRANCH   3   5
BRANCH   1  14
ATOM     14  C   LIG    1       -1.246  -2.134  -0.037  0.00  0.00    +0.370 C 
BRANCH  14  15
ATOM     15  C   LIG    1       -1.188  -0.628  -0.051  0.00  0.00    +0.460 C 
ATOM     16  O   LIG    1       -2.210   0.016  -0.045  0.00  0.00    -0.500 OA
BRANCH  15  18
ATOM     17  C   LIG    1       -0.021   1.450  -0.081  0.00  0.00    +0.290 C 
ATOM     18  O   LIG    1       -0.001  -0.002  -0.069  0.00  0.00    -0.350 OA
ENDBRANCH  15  18
ENDBRANCH  14  15
ENDBRANCH   1  14
TORSDOF 5
ENDMDL
MODEL      856
REMARK  Name = ZINC000040527726
REMARK                            x       y       z     vdW  Elec       q    Type
REMARK                         _______ _______ _______ _____ _____    ______ ____
ROOT
ATOM      1  S   LIG    1       -2.040  -0.858   1.746  0.00  0.00    +2.780 S 
ATOM      2  O   LIG    1       -0.922  -0.895   2.623  0.00  0.00    -0.970 OA
ATOM      3  O   LIG    1       -3.022  -1.884   1.695  0.00  0.00    -0.970 OA
ENDROOT
BRANCH   1   4
ATOM      4  N   LIG    1       -2.849   0.548   2.080  0.00  0.00    -0.990 NA
ATOM      5  C   LIG    1       -2.176   1.626   2.808  0.00  0.00    +0.320 C 
BRANCH   4   6
ATOM      6  C   LIG    1       -4.239   0.713   1.647  0.00  0.00    +0.330 C 
BRANCH   6   7
ATOM      7  C   LIG    1       -5.165   0.330   2.773  0.00  0.00    +0.500 C 
ATOM      8  O   LIG    1       -4.711   0.041   3.860  0.00  0.00    -0.530 OA
ATOM      9  N   LIG    1       -6.497   0.308   2.572  0.00  0.00    -0.850 N 
ATOM     10  H   LIG    1       -7.093   0.061   3.297  0.00  0.00    +0.400 HD
ATOM     11  H   LIG    1       -6.861   0.538   1.703  0.00  0.00    +0.400 HD
ENDBRANCH   6   7
ENDBRANCH   4   6
ENDBRANCH   1   4
BRANCH   1  12
ATOM     12  N   LIG    1       -1.427  -0.719   0.214  0.00  0.00    -1.010 NA
BRANCH  12  14
ATOM     13  C   LIG    1       -0.046   1.237  -0.283  0.00  0.00    +0.020 C 
ATOM     14  C   LIG    1       -0.049  -0.264   0.015  0.00  0.00    +0.280 C 
ENDBRANCH  12  14
BRANCH  12  15
ATOM     15  C   LIG    1       -2.264  -1.051  -0.942  0.00  0.00    +0.270 C 
ATOM     16  C   LIG    1       -2.001  -2.499  -1.362  0.00  0.00    +0.010 C 
ENDBRANCH  12  15
ENDBRANCH   1  12
TORSDOF 6
ENDMDL
MODEL      857
REMARK  Name = ZINC000003860151
REMARK                            x       y       z     vdW  Elec       q    Type
REMARK                         _______ _______ _______ _____ _____    ______ ____
ROOT
ATOM      1  C   LIG    1       -1.136  -2.159   0.001  0.00  0.00    +0.260 C 
ATOM      2  C   LIG    1       -2.444  -2.685  -0.596  0.00  0.00    +0.190 C 
ATOM      3  C   LIG    1       -2.445  -4.215  -0.528  0.00  0.00    +0.130 C 
ATOM      4  C   LIG    1       -2.253  -4.653   0.926  0.00  0.00    +0.150 C 
ATOM      5  O   LIG    1       -1.033  -4.105   1.430  0.00  0.00    -0.370 OA
ATOM      6  C   LIG    1       -0.993  -2.676   1.435  0.00  0.00    +0.370 C 
ENDROOT
BRANCH   1   9
ATOM      7  C   LIG    1       -0.018   1.503   0.010  0.00  0.00    +0.100 C 
ATOM      8  C   LIG    1        0.002  -0.004   0.002  0.00  0.00    +0.510 C 
ATOM      9  N   LIG    1       -1.156  -0.694   0.009  0.00  0.00    -0.710 N 
ATOM     10  H   LIG    1       -2.002  -0.220   0.020  0.00  0.00    +0.410 HD
ATOM     11  O   LIG    1        1.060  -0.596  -0.011  0.00  0.00    -0.550 OA
ENDBRANCH   1   9
BRANCH   3  12
ATOM     12  O   LIG    1       -3.691  -4.715  -1.018  0.00  0.00    -0.560 OA
ATOM     13  H   LIG    1       -3.761  -5.679  -1.004  0.00  0.00    +0.390 HD
ENDBRANCH   3  12
BRANCH   2  14
ATOM     14  O   LIG    1       -2.551  -2.265  -1.958  0.00  0.00    -0.550 OA
ATOM     15  H   LIG    1       -3.357  -2.564  -2.400  0.00  0.00    +0.390 HD
ENDBRANCH   2  14
BRANCH   6  16
ATOM     16  O   LIG    1       -2.066  -2.171   2.232  0.00  0.00    -0.570 OA
ATOM     17  H   LIG    1       -2.041  -2.460   3.154  0.00  0.00    +0.390 HD
ENDBRANCH   6  16
BRANCH   4  18
ATOM     18  C   LIG    1       -2.192  -6.181   0.995  0.00  0.00    +0.200 C 
BRANCH  18  19
ATOM     19  O   LIG    1       -2.130  -6.594   2.362  0.00  0.00    -0.560 OA
ATOM     20  H   LIG    1       -2.089  -7.552   2.482  0.00  0.00    +0.380 HD
ENDBRANCH  18  19
ENDBRANCH   4  18
TORSDOF 6
ENDMDL
MODEL      858
REMARK  Name = ZINC000100019188
REMARK                            x       y       z     vdW  Elec       q    Type
REMARK                         _______ _______ _______ _____ _____    ______ ____
ROOT
ATOM      1  N   LIG    1       -1.185  -0.595  -0.004  0.00  0.00    -0.560 NA
ATOM      2  C   LIG    1       -1.268  -1.927   0.040  0.00  0.00    +0.340 A 
ATOM      3  S   LIG    1       -2.693  -2.888  -0.075  0.00  0.00    +0.250 S 
ATOM      4  C   LIG    1       -1.845  -4.436   0.078  0.00  0.00    -0.520 A 
ATOM      5  N   LIG    1       -0.594  -4.138   0.202  0.00  0.00    -0.080 NA
ATOM      6  N   LIG    1       -0.255  -2.803   0.179  0.00  0.00    -0.430 N 
ATOM      7  C   LIG    1        1.134  -2.358   0.311  0.00  0.00    +0.380 C 
ENDROOT
BRANCH   1   9
ATOM      8  C   LIG    1        0.698   0.261  -1.327  0.00  0.00    +0.100 C 
ATOM      9  C   LIG    1        0.003  -0.005  -0.017  0.00  0.00    +0.500 C 
ATOM     10  O   LIG    1        0.532   0.321   1.029  0.00  0.00    -0.490 OA
ENDBRANCH   1   9
BRANCH   4  11
ATOM     11  S   LIG    1       -2.559  -6.046   0.065  0.00  0.00    +2.740 S 
ATOM     12  O   LIG    1       -1.478  -6.965   0.133  0.00  0.00    -0.910 OA
ATOM     13  O   LIG    1       -3.518  -6.051  -0.984  0.00  0.00    -0.920 OA
BRANCH  11  14
ATOM     14  N   LIG    1       -3.409  -6.217   1.476  0.00  0.00    -1.230 NA
ATOM     15  H   LIG    1       -3.121  -5.748   2.275  0.00  0.00    +0.420 HD
ATOM     16  H   LIG    1       -4.194  -6.786   1.504  0.00  0.00    +0.430 HD
ENDBRANCH  11  14
ENDBRANCH   4  11
TORSDOF 3
ENDMDL
MODEL      859
REMARK  Name = ZINC000008602584
REMARK                            x       y       z     vdW  Elec       q    Type
REMARK                         _______ _______ _______ _____ _____    ______ ____
ROOT
ATOM      1  C   LIG    1       -0.019   1.526   0.010  0.00  0.00    +0.070 C 
ATOM      2  C   LIG    1        0.002  -0.004   0.002  0.00  0.00    +0.250 C 
ATOM      3  O   LIG    1        0.685  -0.481  -1.194  0.00  0.00    -0.330 OA
ATOM      4  C   LIG    1        2.022  -0.646  -0.743  0.00  0.00    +0.100 C 
ATOM      5  C   LIG    1        2.919  -1.719  -1.348  0.00  0.00    +0.200 C 
ATOM      6  C   LIG    1        3.575  -2.368  -0.096  0.00  0.00    +0.130 C 
ATOM      7  O   LIG    1        2.958  -1.746   1.071  0.00  0.00    -0.330 OA
ATOM      8  C   LIG    1        1.701  -1.337   0.635  0.00  0.00    +0.280 C 
ATOM      9  C   LIG    1       -1.430  -0.541   0.030  0.00  0.00    +0.080 C 
ATOM     10  O   LIG    1        0.735  -0.493   1.161  0.00  0.00    -0.350 OA
ENDROOT
BRANCH   5  11
ATOM     11  O   LIG    1        2.145  -2.676  -2.072  0.00  0.00    -0.540 OA
ATOM     12  H   LIG    1        2.669  -3.381  -2.478  0.00  0.00    +0.380 HD
ENDBRANCH   5  11
BRANCH   6  13
ATOM     13  C   LIG    1        5.082  -2.103  -0.097  0.00  0.00    +0.230 C 
BRANCH  13  14
ATOM     14  O   LIG    1        5.663  -2.663  -1.276  0.00  0.00    -0.540 OA
ATOM     15  H   LIG    1        5.542  -3.619  -1.358  0.00  0.00    +0.380 HD
ENDBRANCH  13  14
BRANCH  13  16
ATOM     16  C   LIG    1        5.714  -2.747   1.139  0.00  0.00    +0.170 C 
BRANCH  16  17
ATOM     17  O   LIG    1        7.099  -2.402   1.200  0.00  0.00    -0.560 OA
ATOM     18  H   LIG    1        7.565  -2.776   1.960  0.00  0.00    +0.380 HD
ENDBRANCH  16  17
ENDBRANCH  13  16
ENDBRANCH   6  13
TORSDOF 5
ENDMDL
MODEL      860
REMARK  Name = ZINC000006169447
REMARK                            x       y       z     vdW  Elec       q    Type
REMARK                         _______ _______ _______ _____ _____    ______ ____
ROOT
ATOM      1  C   LIG    1       -0.567   1.194   0.302  0.00  0.00    +0.340 C 
ATOM      2  N   LIG    1       -0.345  -0.254   0.289  0.00  0.00    -0.640 N 
ATOM      3  C   LIG    1       -0.504  -1.105  -0.769  0.00  0.00    +0.720 C 
ATOM      4  N   LIG    1        0.096  -2.322  -0.544  0.00  0.00    -0.620 N 
ATOM      5  C   LIG    1        0.973  -2.072   0.526  0.00  0.00    +0.380 C 
ATOM      6  N   LIG    1        1.729  -2.710   1.519  0.00  0.00    -0.720 N 
ATOM      7  H   LIG    1        2.010  -3.638   1.547  0.00  0.00    +0.430 HD
ATOM      8  C   LIG    1        1.984  -1.728   2.444  0.00  0.00    +0.720 C 
ATOM      9  N   LIG    1        1.200  -0.626   2.253  0.00  0.00    -0.630 N 
ATOM     10  O   LIG    1        2.812  -1.828   3.329  0.00  0.00    -0.520 OA
ATOM     11  C   LIG    1       -0.126  -3.585  -1.254  0.00  0.00    +0.330 C 
ATOM     12  O   LIG    1       -1.105  -0.821  -1.787  0.00  0.00    -0.530 OA
ATOM     13  C   LIG    1        0.099  -1.093   1.403  0.00  0.00    +0.420 C 
ENDROOT
BRANCH   9  14
ATOM     14  C   LIG    1        1.410   0.717   2.800  0.00  0.00    +0.350 C 
BRANCH  14  15
ATOM     15  C   LIG    1        0.595   0.878   4.084  0.00  0.00    +0.160 C 
BRANCH  15  16
ATOM     16  O   LIG    1        1.098  -0.011   5.083  0.00  0.00    -0.560 OA
ATOM     17  H   LIG    1        0.627   0.037   5.927  0.00  0.00    +0.380 HD
ENDBRANCH  15  16
ENDBRANCH  14  15
ENDBRANCH   9  14
TORSDOF 3
ENDMDL
MODEL      861
REMARK  Name = ZINC000006169443
REMARK                            x       y       z     vdW  Elec       q    Type
REMARK                         _______ _______ _______ _____ _____    ______ ____
ROOT
ATOM      1  C   LIG    1       -0.018   1.461   0.010  0.00  0.00    +0.320 C 
ATOM      2  N   LIG    1        0.002  -0.004   0.002  0.00  0.00    -0.620 N 
ATOM      3  C   LIG    1        0.009  -0.843  -1.088  0.00  0.00    +0.720 C 
ATOM      4  N   LIG    1       -0.330  -2.123  -0.750  0.00  0.00    -0.630 N 
ATOM      5  C   LIG    1       -0.903  -2.043   0.587  0.00  0.00    +0.430 C 
ATOM      6  N   LIG    1       -0.571  -3.017   1.617  0.00  0.00    -0.630 N 
ATOM      7  C   LIG    1       -0.362  -2.260   2.764  0.00  0.00    +0.720 C 
ATOM      8  O   LIG    1       -0.340  -2.729   3.886  0.00  0.00    -0.530 OA
ATOM      9  N   LIG    1       -0.183  -0.929   2.487  0.00  0.00    -0.710 N 
ATOM     10  H   LIG    1       -0.198  -0.188   3.113  0.00  0.00    +0.430 HD
ATOM     11  C   LIG    1       -0.153  -3.328  -1.565  0.00  0.00    +0.340 C 
ATOM     12  O   LIG    1        0.285  -0.488  -2.218  0.00  0.00    -0.530 OA
ATOM     13  C   LIG    1        0.024  -0.872   1.104  0.00  0.00    +0.360 C 
ENDROOT
BRANCH   6  14
ATOM     14  C   LIG    1       -0.475  -4.473   1.490  0.00  0.00    +0.340 C 
BRANCH  14  15
ATOM     15  C   LIG    1       -1.839  -5.102   1.781  0.00  0.00    +0.160 C 
BRANCH  15  16
ATOM     16  O   LIG    1       -2.773  -4.696   0.778  0.00  0.00    -0.570 OA
ATOM     17  H   LIG    1       -3.662  -5.057   0.899  0.00  0.00    +0.380 HD
ENDBRANCH  15  16
ENDBRANCH  14  15
ENDBRANCH   6  14
TORSDOF 3
ENDMDL
MODEL      862
REMARK  Name = ZINC000006169444
REMARK                            x       y       z     vdW  Elec       q    Type
REMARK                         _______ _______ _______ _____ _____    ______ ____
ROOT
ATOM      1  C   LIG    1       -0.588   1.530   0.217  0.00  0.00    +0.330 C 
ATOM      2  N   LIG    1       -0.299   0.094   0.167  0.00  0.00    -0.640 N 
ATOM      3  C   LIG    1       -0.205  -0.638  -0.951  0.00  0.00    +0.700 C 
ATOM      4  N   LIG    1        0.068  -1.930  -0.732  0.00  0.00    -0.640 N 
ATOM      5  C   LIG    1        0.185  -2.165   0.714  0.00  0.00    +0.460 C 
ATOM      6  N   LIG    1       -0.948  -2.979   1.176  0.00  0.00    -0.630 N 
ATOM      7  C   LIG    1       -1.753  -2.192   1.939  0.00  0.00    +0.710 C 
ATOM      8  O   LIG    1       -2.776  -2.601   2.454  0.00  0.00    -0.550 OA
ATOM      9  N   LIG    1       -1.319  -0.933   2.078  0.00  0.00    -0.740 N 
ATOM     10  H   LIG    1       -1.763  -0.240   2.591  0.00  0.00    +0.430 HD
ATOM     11  C   LIG    1        0.225  -2.950  -1.772  0.00  0.00    +0.330 C 
ATOM     12  O   LIG    1       -0.353  -0.171  -2.063  0.00  0.00    -0.570 OA
ATOM     13  C   LIG    1       -0.062  -0.766   1.334  0.00  0.00    +0.470 C 
ENDROOT
BRANCH   6  14
ATOM     14  C   LIG    1       -1.191  -4.390   0.865  0.00  0.00    +0.340 C 
BRANCH  14  15
ATOM     15  C   LIG    1       -0.600  -5.265   1.972  0.00  0.00    +0.170 C 
BRANCH  15  16
ATOM     16  O   LIG    1       -1.305  -5.030   3.193  0.00  0.00    -0.560 OA
ATOM     17  H   LIG    1       -1.035  -5.606   3.921  0.00  0.00    +0.380 HD
ENDBRANCH  15  16
ENDBRANCH  14  15
ENDBRANCH   6  14
TORSDOF 3
ENDMDL
MODEL      863
REMARK  Name = ZINC000006169445
REMARK                            x       y       z     vdW  Elec       q    Type
REMARK                         _______ _______ _______ _____ _____    ______ ____
ROOT
ATOM      1  C   LIG    1       -0.018   1.461   0.010  0.00  0.00    +0.340 C 
ATOM      2  N   LIG    1        0.002  -0.004   0.002  0.00  0.00    -0.640 N 
ATOM      3  C   LIG    1        0.008  -0.772  -1.095  0.00  0.00    +0.700 C 
ATOM      4  N   LIG    1        0.028  -2.086  -0.838  0.00  0.00    -0.640 N 
ATOM      5  C   LIG    1        0.037  -2.298   0.617  0.00  0.00    +0.480 C 
ATOM      6  N   LIG    1        1.339  -2.840   1.029  0.00  0.00    -0.630 N 
ATOM      7  C   LIG    1        2.001  -1.894   1.728  0.00  0.00    +0.700 C 
ATOM      8  O   LIG    1        3.111  -2.071   2.192  0.00  0.00    -0.570 OA
ATOM      9  N   LIG    1        1.326  -0.746   1.870  0.00  0.00    -0.740 N 
ATOM     10  H   LIG    1        1.646   0.038   2.343  0.00  0.00    +0.430 HD
ATOM     11  C   LIG    1        0.038  -3.147  -1.848  0.00  0.00    +0.330 C 
ATOM     12  O   LIG    1       -0.003  -0.318  -2.222  0.00  0.00    -0.570 OA
ATOM     13  C   LIG    1        0.025  -0.860   1.196  0.00  0.00    +0.470 C 
ENDROOT
BRANCH   6  14
ATOM     14  C   LIG    1        1.847  -4.181   0.728  0.00  0.00    +0.340 C 
BRANCH  14  15
ATOM     15  C   LIG    1        1.439  -5.143   1.847  0.00  0.00    +0.170 C 
BRANCH  15  16
ATOM     16  O   LIG    1        0.016  -5.272   1.868  0.00  0.00    -0.570 OA
ATOM     17  H   LIG    1       -0.314  -5.869   2.554  0.00  0.00    +0.380 HD
ENDBRANCH  15  16
ENDBRANCH  14  15
ENDBRANCH   6  14
TORSDOF 3
ENDMDL
MODEL      864
REMARK  Name = ZINC000026505953
REMARK                            x       y       z     vdW  Elec       q    Type
REMARK                         _______ _______ _______ _____ _____    ______ ____
ROOT
ATOM      1  C   LIG    1        0.707  -0.490  -1.238  0.00  0.00    +0.150 A 
ATOM      2  N   LIG    1        1.189   0.364  -2.095  0.00  0.00    -0.150 NA
ATOM      3  N   LIG    1        1.842  -0.088  -3.243  0.00  0.00    -0.250 N 
ATOM      4  N   LIG    1        2.453   0.559  -4.326  0.00  0.00    -0.010 NA
ATOM      5  N   LIG    1        2.900  -0.366  -5.107  0.00  0.00    +0.010 NA
ATOM      6  N   LIG    1        2.636  -1.529  -4.630  0.00  0.00    -0.320 NA
ATOM      7  C   LIG    1        1.988  -1.422  -3.489  0.00  0.00    +0.410 A 
ATOM      8  N   LIG    1        1.490  -2.347  -2.603  0.00  0.00    -0.330 N 
ATOM      9  C   LIG    1        0.862  -1.929  -1.484  0.00  0.00    +0.520 A 
ATOM     10  O   LIG    1        0.417  -2.739  -0.692  0.00  0.00    -0.440 OA
ENDROOT
BRANCH   1  12
ATOM     11  C   LIG    1       -0.019   1.526   0.010  0.00  0.00    +0.080 C 
ATOM     12  C   LIG    1        0.002  -0.004   0.002  0.00  0.00    +0.010 C 
ATOM     13  C   LIG    1       -1.433  -0.534   0.013  0.00  0.00    +0.070 C 
ATOM     14  C   LIG    1        0.742  -0.511   1.242  0.00  0.00    +0.070 C 
ENDBRANCH   1  12
BRANCH   8  15
ATOM     15  N   LIG    1        1.638  -3.683  -2.850  0.00  0.00    -0.570 N 
ATOM     16  H   LIG    1        2.103  -4.143  -2.082  0.00  0.00    +0.370 HD
ATOM     17  H   LIG    1        2.131  -3.838  -3.716  0.00  0.00    +0.390 HD
ENDBRANCH   8  15
TORSDOF 2
ENDMDL
MODEL      865
REMARK  Name = ZINC000002216764
REMARK                            x       y       z     vdW  Elec       q    Type
REMARK                         _______ _______ _______ _____ _____    ______ ____
ROOT
ATOM      1  C   LIG    1       -3.715   1.698   0.029  0.00  0.00    +0.200 C 
ATOM      2  C   LIG    1       -3.888   2.476  -1.302  0.00  0.00    -0.290 C 
ATOM      3  S   LIG    1       -5.700   2.785  -1.301  0.00  0.00    +2.410 S 
ATOM      4  C   LIG    1       -6.146   1.185  -0.527  0.00  0.00    -0.310 C 
ATOM      5  O   LIG    1       -6.179   2.822  -2.639  0.00  0.00    -0.910 OA
ATOM      6  O   LIG    1       -6.003   3.848  -0.407  0.00  0.00    -0.910 OA
ATOM      7  C   LIG    1       -4.864   0.697   0.161  0.00  0.00    +0.210 C 
ENDROOT
BRANCH   1   8
ATOM      8  N   LIG    1       -2.433   0.981   0.019  0.00  0.00    -0.460 N 
ATOM      9  H   LIG    1       -2.368   0.397   0.839  0.00  0.00    +0.430 HD
ATOM     10  H   LIG    1       -2.376   0.406  -0.808  0.00  0.00    +0.440 HD
BRANCH   8  11
ATOM     11  C   LIG    1       -1.330   1.951   0.019  0.00  0.00    +0.170 C 
BRANCH  11  13
ATOM     12  O   LIG    1        0.002  -0.004   0.002  0.00  0.00    -0.670 OA
ATOM     13  C   LIG    1       -0.015   1.215   0.009  0.00  0.00    +0.490 C 
ATOM     14  O   LIG    1        1.033   1.839   0.002  0.00  0.00    -0.640 OA
ENDBRANCH  11  13
ENDBRANCH   8  11
ENDBRANCH   1   8
BRANCH   7  15
ATOM     15  O   LIG    1       -4.467  -0.544  -0.426  0.00  0.00    -0.570 OA
ATOM     16  H   LIG    1       -5.116  -1.253  -0.325  0.00  0.00    +0.410 HD
ENDBRANCH   7  15
TORSDOF 4
ENDMDL
MODEL      866
REMARK  Name = ZINC000061510768
REMARK                            x       y       z     vdW  Elec       q    Type
REMARK                         _______ _______ _______ _____ _____    ______ ____
ROOT
ATOM      1  C   LIG    1       -2.550  -2.680   0.012  0.00  0.00    +0.510 C 
ATOM      2  N   LIG    1       -2.778  -4.008   0.007  0.00  0.00    -0.710 N 
ATOM      3  H   LIG    1       -2.032  -4.629  -0.003  0.00  0.00    +0.420 HD
ATOM      4  O   LIG    1       -3.482  -1.905   0.025  0.00  0.00    -0.540 OA
ENDROOT
BRANCH   1   5
ATOM      5  C   LIG    1       -1.136  -2.159   0.001  0.00  0.00    +0.300 C 
BRANCH   5   8
ATOM      6  C   LIG    1       -0.018   1.503   0.010  0.00  0.00    +0.110 C 
ATOM      7  C   LIG    1        0.002  -0.004   0.002  0.00  0.00    +0.510 C 
ATOM      8  N   LIG    1       -1.156  -0.694   0.009  0.00  0.00    -0.720 N 
ATOM      9  H   LIG    1       -2.002  -0.220   0.020  0.00  0.00    +0.410 HD
ATOM     10  O   LIG    1        1.060  -0.596  -0.011  0.00  0.00    -0.550 OA
ENDBRANCH   5   8
ENDBRANCH   1   5
BRANCH   2  11
ATOM     11  C   LIG    1       -4.152  -4.516   0.018  0.00  0.00    +0.300 C 
BRANCH  11  12
ATOM     12  C   LIG    1       -4.132  -6.022   0.009  0.00  0.00    +0.510 C 
ATOM     13  N   LIG    1       -5.290  -6.712   0.017  0.00  0.00    -0.720 N 
ATOM     14  H   LIG    1       -6.136  -6.239   0.027  0.00  0.00    +0.400 HD
ATOM     15  O   LIG    1       -3.074  -6.614  -0.004  0.00  0.00    -0.530 OA
BRANCH  13  16
ATOM     16  C   LIG    1       -5.270  -8.177   0.009  0.00  0.00    +0.230 C 
ATOM     17  C   LIG    1       -6.576  -8.701  -0.592  0.00  0.00    +0.040 C 
ATOM     18  C   LIG    1       -5.124  -8.693   1.441  0.00  0.00    +0.020 C 
ENDBRANCH  13  16
ENDBRANCH  11  12
ENDBRANCH   2  11
TORSDOF 5
ENDMDL
MODEL      867
REMARK  Name = ZINC000101377162
REMARK                            x       y       z     vdW  Elec       q    Type
REMARK                         _______ _______ _______ _____ _____    ______ ____
ROOT
ATOM      1  C   LIG    1        0.659  -2.065  -1.123  0.00  0.00    +0.030 C 
ATOM      2  C   LIG    1        1.262  -2.667  -2.179  0.00  0.00    +0.160 A 
ATOM      3  N   LIG    1        1.869  -2.049  -3.254  0.00  0.00    -0.590 N 
ATOM      4  H   LIG    1        1.944  -1.092  -3.395  0.00  0.00    +0.460 HD
ATOM      5  C   LIG    1        2.352  -3.036  -4.096  0.00  0.00    +0.410 A 
ATOM      6  N   LIG    1        2.995  -3.237  -5.224  0.00  0.00    -0.270 NA
ATOM      7  N   LIG    1        3.123  -4.497  -5.439  0.00  0.00    -0.250 NA
ATOM      8  C   LIG    1        2.576  -5.177  -4.471  0.00  0.00    +0.240 A 
ATOM      9  C   LIG    1        2.517  -6.678  -4.353  0.00  0.00    +0.230 C 
ATOM     10  N   LIG    1        2.065  -4.267  -3.579  0.00  0.00    -0.520 N 
ATOM     11  C   LIG    1        1.409  -4.126  -2.413  0.00  0.00    +0.580 A 
ATOM     12  O   LIG    1        1.016  -5.019  -1.690  0.00  0.00    -0.400 OA
ENDROOT
BRANCH   1  13
ATOM     13  C   LIG    1        0.601  -0.603  -1.048  0.00  0.00    +0.510 C 
ATOM     14  O   LIG    1        1.094   0.071  -1.932  0.00  0.00    -0.510 OA
BRANCH  13  16
ATOM     15  C   LIG    1       -0.018   1.448   0.010  0.00  0.00    +0.290 C 
ATOM     16  O   LIG    1        0.002  -0.004   0.002  0.00  0.00    -0.340 OA
ENDBRANCH  13  16
ENDBRANCH   1  13
TORSDOF 2
ENDMDL
MODEL      868
REMARK  Name = ZINC000238361210
REMARK                            x       y       z     vdW  Elec       q    Type
REMARK                         _______ _______ _______ _____ _____    ______ ____
ROOT
ATOM      1  C   LIG    1        0.657  -2.018  -1.120  0.00  0.00    -0.440 C 
ATOM      2  C   LIG    1        1.279  -2.639  -2.210  0.00  0.00    +0.590 C 
ATOM      3  N   LIG    1        1.854  -1.955  -3.228  0.00  0.00    -0.680 N 
ATOM      4  H   LIG    1        1.892  -0.989  -3.306  0.00  0.00    +0.450 HD
ATOM      5  C   LIG    1        2.409  -2.911  -4.197  0.00  0.00    +0.270 C 
ATOM      6  C   LIG    1        2.078  -4.291  -3.599  0.00  0.00    +0.270 C 
ATOM      7  N   LIG    1        1.371  -3.983  -2.348  0.00  0.00    -0.680 N 
ATOM      8  H   LIG    1        1.021  -4.637  -1.723  0.00  0.00    +0.450 HD
ENDROOT
BRANCH   1   9
ATOM      9  C   LIG    1        0.601  -0.603  -1.048  0.00  0.00    +0.540 C 
ATOM     10  O   LIG    1        1.094   0.072  -1.933  0.00  0.00    -0.570 OA
BRANCH   9  12
ATOM     11  C   LIG    1       -0.017   1.425   0.010  0.00  0.00    +0.260 C 
ATOM     12  O   LIG    1        0.002  -0.004   0.002  0.00  0.00    -0.330 OA
ENDBRANCH   9  12
ENDBRANCH   1   9
BRANCH   1  13
ATOM     13  C   LIG    1        0.083  -2.803  -0.089  0.00  0.00    +0.540 C 
ATOM     14  O   LIG    1        0.131  -4.018  -0.151  0.00  0.00    -0.570 OA
BRANCH  13  15
ATOM     15  O   LIG    1       -0.516  -2.205   0.961  0.00  0.00    -0.330 OA
ATOM     16  C   LIG    1       -1.073  -3.058   1.963  0.00  0.00    +0.260 C 
ENDBRANCH  13  15
ENDBRANCH   1  13
TORSDOF 4
ENDMDL
MODEL      869
REMARK  Name = ZINC000618256670
REMARK                            x       y       z     vdW  Elec       q    Type
REMARK                         _______ _______ _______ _____ _____    ______ ____
ROOT
ATOM      1  C   LIG    1        0.714  -2.778   1.706  0.00  0.00    +0.310 C 
ENDROOT
BRANCH   1   2
ATOM      2  C   LIG    1        1.238  -3.599   2.856  0.00  0.00    +0.520 C 
ATOM      3  N   LIG    1        0.534  -4.657   3.304  0.00  0.00    -0.620 N 
ATOM      4  C   LIG    1       -0.746  -5.034   2.684  0.00  0.00    +0.260 C 
ATOM      5  C   LIG    1       -0.702  -6.530   2.353  0.00  0.00    +0.210 C 
ATOM      6  O   LIG    1       -0.325  -7.260   3.523  0.00  0.00    -0.380 OA
ATOM      7  C   LIG    1        0.981  -6.946   4.013  0.00  0.00    +0.220 C 
ATOM      8  C   LIG    1        1.026  -5.474   4.425  0.00  0.00    +0.260 C 
ATOM      9  O   LIG    1        2.294  -3.308   3.377  0.00  0.00    -0.520 OA
ENDBRANCH   1   2
BRANCH   1  10
ATOM     10  N   LIG    1        1.655  -1.695   1.411  0.00  0.00    -1.110 NA
ATOM     11  H   LIG    1        2.345  -1.464   2.052  0.00  0.00    +0.430 HD
BRANCH  10  12
ATOM     12  S   LIG    1        1.540  -0.864  -0.017  0.00  0.00    +2.690 S 
ATOM     13  O   LIG    1        2.555   0.129   0.013  0.00  0.00    -0.950 OA
ATOM     14  O   LIG    1        1.440  -1.842  -1.043  0.00  0.00    -0.960 OA
BRANCH  12  16
ATOM     15  C   LIG    1       -0.016   1.306   0.009  0.00  0.00    +0.240 C 
ATOM     16  C   LIG    1        0.002  -0.004   0.002  0.00  0.00    -0.590 C 
ENDBRANCH  12  16
ENDBRANCH  10  12
ENDBRANCH   1  10
TORSDOF 4
ENDMDL
MODEL      870
REMARK  Name = ZINC000004343056
REMARK                            x       y       z     vdW  Elec       q    Type
REMARK                         _______ _______ _______ _____ _____    ______ ____
ROOT
ATOM      1  C   LIG    1       -0.019   1.526   0.010  0.00  0.00    +0.050 C 
ATOM      2  C   LIG    1        0.002  -0.004   0.002  0.00  0.00    +0.250 C 
ATOM      3  O   LIG    1        0.696  -0.474  -1.170  0.00  0.00    -0.360 OA
ATOM      4  C   LIG    1        2.071  -0.658  -0.715  0.00  0.00    +0.390 C 
ATOM      5  O   LIG    1        2.662   0.617  -0.659  0.00  0.00    -0.380 OA
ATOM      6  C   LIG    1        3.329   1.154   0.430  0.00  0.00    +0.190 C 
ATOM      7  C   LIG    1        3.477   0.345   1.686  0.00  0.00    +0.140 C 
ATOM      8  C   LIG    1        3.036  -1.098   1.562  0.00  0.00    +0.210 C 
ATOM      9  C   LIG    1        1.809  -1.254   0.682  0.00  0.00    +0.140 C 
ATOM     10  C   LIG    1       -1.431  -0.539  -0.001  0.00  0.00    +0.080 C 
ATOM     11  O   LIG    1        0.697  -0.486   1.167  0.00  0.00    -0.350 OA
ENDROOT
BRANCH   8  12
ATOM     12  O   LIG    1        4.100  -1.863   0.994  0.00  0.00    -0.550 OA
ATOM     13  H   LIG    1        4.914  -1.853   1.517  0.00  0.00    +0.390 HD
ENDBRANCH   8  12
BRANCH   7  14
ATOM     14  O   LIG    1        2.706   0.964   2.717  0.00  0.00    -0.540 OA
ATOM     15  H   LIG    1        2.974   1.872   2.918  0.00  0.00    +0.380 HD
ENDBRANCH   7  14
BRANCH   6  16
ATOM     16  C   LIG    1        4.735   1.533  -0.037  0.00  0.00    +0.180 C 
BRANCH  16  17
ATOM     17  O   LIG    1        4.649   2.577  -1.009  0.00  0.00    -0.560 OA
ATOM     18  H   LIG    1        5.506   2.868  -1.350  0.00  0.00    +0.380 HD
ENDBRANCH  16  17
ENDBRANCH   6  16
TORSDOF 4
ENDMDL
MODEL      871
REMARK  Name = ZINC000000405635
REMARK                            x       y       z     vdW  Elec       q    Type
REMARK                         _______ _______ _______ _____ _____    ______ ____
ROOT
ATOM      1  C   LIG    1        0.737  -2.206  -1.435  0.00  0.00    +0.160 C 
ATOM      2  O   LIG    1        1.289  -2.895  -2.577  0.00  0.00    -0.330 OA
ATOM      3  C   LIG    1        0.581  -4.153  -2.619  0.00  0.00    +0.240 C 
ATOM      4  O   LIG    1       -0.781  -3.817  -2.274  0.00  0.00    -0.330 OA
ATOM      5  C   LIG    1        1.167  -5.130  -1.598  0.00  0.00    +0.030 C 
ATOM      6  C   LIG    1        0.642  -4.752  -4.026  0.00  0.00    +0.100 C 
ATOM      7  C   LIG    1       -0.658  -2.827  -1.229  0.00  0.00    +0.160 C 
ENDROOT
BRANCH   1  11
ATOM      8  C   LIG    1        0.339   1.572  -0.978  0.00  0.00    +0.290 C 
ATOM      9  N   LIG    1        0.349   0.130  -0.721  0.00  0.00    -0.730 N 
ATOM     10  H   LIG    1        0.163  -0.205   0.170  0.00  0.00    +0.400 HD
ATOM     11  C   LIG    1        0.617  -0.731  -1.722  0.00  0.00    +0.510 C 
ATOM     12  O   LIG    1        0.762  -0.320  -2.854  0.00  0.00    -0.490 OA
ENDBRANCH   1  11
BRANCH   7  13
ATOM     13  C   LIG    1       -1.729  -1.776  -1.374  0.00  0.00    +0.510 C 
ATOM     14  N   LIG    1       -1.997  -0.941  -0.351  0.00  0.00    -0.730 N 
ATOM     15  H   LIG    1       -1.553  -1.062   0.503  0.00  0.00    +0.400 HD
ATOM     16  C   LIG    1       -2.959   0.149  -0.528  0.00  0.00    +0.290 C 
ATOM     17  O   LIG    1       -2.349  -1.682  -2.412  0.00  0.00    -0.490 OA
ENDBRANCH   7  13
TORSDOF 2
ENDMDL
MODEL      872
REMARK  Name = ZINC000000405636
REMARK                            x       y       z     vdW  Elec       q    Type
REMARK                         _______ _______ _______ _____ _____    ______ ____
ROOT
ATOM      1  C   LIG    1        0.606  -2.171  -1.026  0.00  0.00    +0.180 C 
ATOM      2  O   LIG    1        1.321  -2.657  -2.182  0.00  0.00    -0.330 OA
ATOM      3  C   LIG    1        0.294  -2.912  -3.165  0.00  0.00    +0.240 C 
ATOM      4  O   LIG    1       -0.800  -3.479  -2.412  0.00  0.00    -0.330 OA
ATOM      5  C   LIG    1        0.795  -3.906  -4.214  0.00  0.00    +0.110 C 
ATOM      6  C   LIG    1       -0.140  -1.605  -3.833  0.00  0.00    +0.050 C 
ATOM      7  C   LIG    1       -0.825  -2.726  -1.179  0.00  0.00    +0.150 C 
ENDROOT
BRANCH   1  11
ATOM      8  C   LIG    1       -0.018   1.461   0.010  0.00  0.00    +0.300 C 
ATOM      9  N   LIG    1        0.002  -0.004   0.002  0.00  0.00    -0.730 N 
ATOM     10  H   LIG    1       -0.404  -0.499   0.731  0.00  0.00    +0.390 HD
ATOM     11  C   LIG    1        0.585  -0.664  -1.018  0.00  0.00    +0.490 C 
ATOM     12  O   LIG    1        1.093  -0.046  -1.929  0.00  0.00    -0.500 OA
ENDBRANCH   1  11
BRANCH   7  13
ATOM     13  C   LIG    1       -1.169  -3.627  -0.021  0.00  0.00    +0.510 C 
ATOM     14  N   LIG    1       -1.316  -3.110   1.215  0.00  0.00    -0.730 N 
ATOM     15  H   LIG    1       -1.200  -2.158   1.359  0.00  0.00    +0.390 HD
ATOM     16  C   LIG    1       -1.651  -3.986   2.340  0.00  0.00    +0.310 C 
ATOM     17  O   LIG    1       -1.314  -4.818  -0.202  0.00  0.00    -0.490 OA
ENDBRANCH   7  13
TORSDOF 2
ENDMDL
MODEL      873
REMARK  Name = ZINC000001703948
REMARK                            x       y       z     vdW  Elec       q    Type
REMARK                         _______ _______ _______ _____ _____    ______ ____
ROOT
ATOM      1  C1*   U A  1        2.406   1.113  -0.032  0.00  0.00    +0.440 C 
ATOM      2  O4*   U A  1        2.384   0.140  -1.099  0.00  0.00    -0.340 OA
ATOM      3  C4*   U A  1        3.357  -0.865  -0.770  0.00  0.00    +0.150 C 
ATOM      4  C3*   U A  1        3.499  -0.881   0.764  0.00  0.00    +0.120 C 
ATOM      5  C2*   U A  1        2.555   0.250   1.247  0.00  0.00    +0.180 C 
ENDROOT
BRANCH   1  13
ATOM      6  O2    U A  1        0.002  -0.004   0.002  0.00  0.00    -0.580 OA
ATOM      7  C2    U A  1       -0.014   1.212   0.009  0.00  0.00    +0.720 C 
ATOM      8  N3    U A  1       -1.200   1.840   0.029  0.00  0.00    -0.750 N 
ATOM      9  H3    U A  1       -2.015   1.315   0.029  0.00  0.00    +0.410 HD
ATOM     10  C4    U A  1       -1.287   3.301   0.051  0.00  0.00    +0.390 C 
ATOM     11  C5    U A  1       -0.060   3.888  -0.655  0.00  0.00    +0.050 C 
ATOM     12  C6    U A  1        1.201   3.335   0.016  0.00  0.00    +0.290 C 
ATOM     13  N1    U A  1        1.153   1.872   0.001  0.00  0.00    -0.610 N 
BRANCH  10  14
ATOM     14  O4    U A  1       -2.474   3.718  -0.625  0.00  0.00    -0.560 OA
ATOM     15  H4    U A  1       -3.290   3.378  -0.233  0.00  0.00    +0.390 HD
ENDBRANCH  10  14
ENDBRANCH   1  13
BRANCH   4  16
ATOM     16  O3*   U A  1        4.848  -0.601   1.144  0.00  0.00    -0.540 OA
ATOM     17  H3*   U A  1        5.490  -1.246   0.819  0.00  0.00    +0.380 HD
ENDBRANCH   4  16
BRANCH   5  18
ATOM     18  O2*   U A  1        3.155   0.997   2.307  0.00  0.00    -0.540 OA
ATOM     19  H2*   U A  1        3.348   0.473   3.096  0.00  0.00    +0.390 HD
ENDBRANCH   5  18
BRANCH   3  20
ATOM     20  C5*   U A  1        2.879  -2.232  -1.265  0.00  0.00    +0.200 C 
BRANCH  20  21
ATOM     21  O5*   U A  1        2.848  -2.237  -2.694  0.00  0.00    -0.560 OA
ATOM     22  H5*   U A  1        2.554  -3.074  -3.078  0.00  0.00    +0.380 HD
ENDBRANCH  20  21
ENDBRANCH   3  20
TORSDOF 6
ENDMDL
MODEL      874
REMARK  Name = ZINC000006031665
REMARK                            x       y       z     vdW  Elec       q    Type
REMARK                         _______ _______ _______ _____ _____    ______ ____
ROOT
ATOM      1  C   LIG    1       -0.019   1.526   0.010  0.00  0.00    +0.090 C 
ATOM      2  C   LIG    1        0.002  -0.004   0.002  0.00  0.00    +0.300 C 
ATOM      3  O   LIG    1       -1.339  -0.496   0.006  0.00  0.00    -0.380 OA
ATOM      4  C   LIG    1       -1.445  -1.924   0.056  0.00  0.00    +0.250 C 
ATOM      5  C   LIG    1       -0.709  -2.418   1.302  0.00  0.00    +0.120 C 
ATOM      6  O   LIG    1       -0.684  -3.843   1.357  0.00  0.00    -0.380 OA
ATOM      7  C   LIG    1       -0.045  -4.354   2.531  0.00  0.00    +0.340 C 
ATOM      8  C   LIG    1        1.410  -3.885   2.581  0.00  0.00    +0.150 C 
ATOM      9  C   LIG    1        1.461  -2.353   2.517  0.00  0.00    +0.210 C 
ATOM     10  C   LIG    1        0.734  -1.900   1.251  0.00  0.00    +0.150 C 
ATOM     11  O   LIG    1        0.700  -0.476   1.160  0.00  0.00    -0.370 OA
ENDROOT
BRANCH   9  12
ATOM     12  O   LIG    1        2.822  -1.919   2.475  0.00  0.00    -0.550 OA
ATOM     13  H   LIG    1        3.344  -2.189   3.243  0.00  0.00    +0.390 HD
ENDBRANCH   9  12
BRANCH   8  14
ATOM     14  O   LIG    1        2.011  -4.329   3.799  0.00  0.00    -0.550 OA
ATOM     15  H   LIG    1        2.017  -5.290   3.907  0.00  0.00    +0.390 HD
ENDBRANCH   8  14
BRANCH   7  16
ATOM     16  O   LIG    1       -0.734  -3.882   3.690  0.00  0.00    -0.560 OA
ATOM     17  H   LIG    1       -1.662  -4.148   3.732  0.00  0.00    +0.390 HD
ENDBRANCH   7  16
TORSDOF 3
ENDMDL
MODEL      875
REMARK  Name = ZINC000000001332
REMARK                            x       y       z     vdW  Elec       q    Type
REMARK                         _______ _______ _______ _____ _____    ______ ____
ROOT
ATOM      1  C   LIG    1       -0.019   1.526   0.010  0.00  0.00    +0.060 C 
ATOM      2  C   LIG    1        0.002  -0.004   0.002  0.00  0.00    +0.130 C 
ATOM      3  O   LIG    1       -1.342  -0.511   0.052  0.00  0.00    -0.320 OA
ATOM      4  C   LIG    1       -1.302  -1.734   0.819  0.00  0.00    +0.430 C 
ATOM      5  C   LIG    1       -0.315  -1.409   1.968  0.00  0.00    +0.160 C 
ATOM      6  C   LIG    1        0.739  -0.525   1.251  0.00  0.00    +0.130 C 
ENDROOT
BRANCH   4   7
ATOM      7  N   LIG    1       -2.630  -2.054   1.350  0.00  0.00    -0.530 N 
ATOM      8  C   LIG    1       -2.797  -3.162   2.138  0.00  0.00    +0.350 A 
ATOM      9  C   LIG    1       -4.022  -3.456   2.627  0.00  0.00    -0.070 A 
ATOM     10  C   LIG    1       -5.111  -2.606   2.312  0.00  0.00    +0.540 A 
ATOM     11  N   LIG    1       -4.904  -1.525   1.533  0.00  0.00    -0.650 N 
ATOM     12  H   LIG    1       -5.645  -0.939   1.313  0.00  0.00    +0.440 HD
ATOM     13  O   LIG    1       -6.225  -2.849   2.742  0.00  0.00    -0.490 OA
ATOM     14  F   LIG    1       -4.205  -4.544   3.406  0.00  0.00    -0.100 F 
ATOM     15  C   LIG    1       -3.673  -1.253   1.063  0.00  0.00    +0.690 A 
ATOM     16  O   LIG    1       -3.502  -0.274   0.362  0.00  0.00    -0.490 OA
ENDBRANCH   4   7
BRANCH   5  17
ATOM     17  O   LIG    1        0.284  -2.602   2.479  0.00  0.00    -0.540 OA
ATOM     18  H   LIG    1        0.909  -2.450   3.201  0.00  0.00    +0.390 HD
ENDBRANCH   5  17
BRANCH   6  19
ATOM     19  O   LIG    1        1.877  -1.306   0.880  0.00  0.00    -0.540 OA
ATOM     20  H   LIG    1        2.568  -0.803   0.427  0.00  0.00    +0.390 HD
ENDBRANCH   6  19
TORSDOF 3
ENDMDL
MODEL      876
REMARK  Name = ZINC000000530533
REMARK                            x       y       z     vdW  Elec       q    Type
REMARK                         _______ _______ _______ _____ _____    ______ ____
ROOT
ATOM      1  C   LIG    1        0.619  -0.692   1.028  0.00  0.00    +0.630 A 
ATOM      2  N   LIG    1        1.191  -0.024   2.026  0.00  0.00    -0.620 NA
ATOM      3  C   LIG    1        1.784  -0.685   3.013  0.00  0.00    +0.400 A 
ATOM      4  N   LIG    1        1.807  -2.012   3.003  0.00  0.00    -0.590 NA
ATOM      5  C   LIG    1        1.236  -2.681   2.005  0.00  0.00    +0.630 A 
ATOM      6  N   LIG    1        0.637  -2.020   1.020  0.00  0.00    -0.640 NA
ENDROOT
BRANCH   5   7
ATOM      7  N   LIG    1        1.260  -4.061   1.996  0.00  0.00    -0.570 N 
ATOM      8  C   LIG    1        0.640  -4.822   0.899  0.00  0.00    +0.280 C 
ATOM      9  C   LIG    1        1.661  -5.841   0.381  0.00  0.00    +0.220 C 
ATOM     10  O   LIG    1        2.162  -6.606   1.480  0.00  0.00    -0.380 OA
ATOM     11  C   LIG    1        2.866  -5.835   2.457  0.00  0.00    +0.220 C 
ATOM     12  C   LIG    1        1.912  -4.814   3.079  0.00  0.00    +0.280 C 
ENDBRANCH   5   7
BRANCH   3  13
ATOM     13  C   LIG    1        2.423   0.062   4.130  0.00  0.00    +0.590 C 
ATOM     14  O   LIG    1        2.966  -0.542   5.033  0.00  0.00    -0.500 OA
ATOM     15  N   LIG    1        2.399   1.410   4.140  0.00  0.00    -0.830 N 
ATOM     16  H   LIG    1        2.816   1.897   4.868  0.00  0.00    +0.410 HD
ATOM     17  H   LIG    1        1.966   1.892   3.419  0.00  0.00    +0.410 HD
ENDBRANCH   3  13
BRANCH   1  19
ATOM     18  C   LIG    1       -0.018   1.461   0.010  0.00  0.00    +0.300 C 
ATOM     19  N   LIG    1        0.002  -0.004   0.002  0.00  0.00    -0.690 N 
ATOM     20  H   LIG    1       -0.418  -0.491  -0.724  0.00  0.00    +0.420 HD
ENDBRANCH   1  19
TORSDOF 3
ENDMDL
MODEL      877
REMARK  Name = ZINC000000537816
REMARK                            x       y       z     vdW  Elec       q    Type
REMARK                         _______ _______ _______ _____ _____    ______ ____
ROOT
ATOM      1  C   LIG    1       -1.180  -0.708   0.009  0.00  0.00    +0.560 A 
ATOM      2  N   LIG    1       -2.385  -0.174   0.018  0.00  0.00    -0.530 NA
ATOM      3  C   LIG    1       -3.309  -1.135   0.024  0.00  0.00    +0.360 A 
ATOM      4  C   LIG    1       -2.644  -2.357   0.018  0.00  0.00    -0.180 A 
ATOM      5  C   LIG    1       -3.394  -3.547   0.022  0.00  0.00    +0.600 A 
ATOM      6  N   LIG    1       -4.741  -3.478   0.032  0.00  0.00    -0.650 N 
ATOM      7  H   LIG    1       -5.261  -4.297   0.034  0.00  0.00    +0.440 HD
ATOM      8  C   LIG    1       -5.374  -2.292   0.037  0.00  0.00    +0.710 A 
ATOM      9  O   LIG    1       -6.590  -2.269   0.046  0.00  0.00    -0.540 OA
ATOM     10  O   LIG    1       -2.832  -4.628   0.018  0.00  0.00    -0.520 OA
ATOM     11  N   LIG    1       -4.695  -1.130   0.033  0.00  0.00    -0.510 N 
ATOM     12  C   LIG    1       -5.421   0.142   0.039  0.00  0.00    +0.350 C 
ATOM     13  N   LIG    1       -1.287  -2.063   0.003  0.00  0.00    -0.450 N 
ENDROOT
BRANCH   1  15
ATOM     14  C   LIG    1       -0.018   1.461   0.010  0.00  0.00    +0.330 C 
ATOM     15  N   LIG    1        0.002  -0.004   0.002  0.00  0.00    -0.700 N 
ATOM     16  H   LIG    1        0.849  -0.478  -0.009  0.00  0.00    +0.420 HD
ENDBRANCH   1  15
BRANCH  13  17
ATOM     17  C   LIG    1       -0.184  -3.027  -0.008  0.00  0.00    +0.330 C 
BRANCH  17  18
ATOM     18  C   LIG    1        0.184  -3.364  -1.454  0.00  0.00    +0.180 C 
BRANCH  18  19
ATOM     19  O   LIG    1        1.260  -4.305  -1.465  0.00  0.00    -0.570 OA
ATOM     20  H   LIG    1        1.546  -4.565  -2.351  0.00  0.00    +0.390 HD
ENDBRANCH  18  19
ENDBRANCH  17  18
ENDBRANCH  13  17
TORSDOF 4
ENDMDL
MODEL      878
REMARK  Name = ZINC000071924402
REMARK                            x       y       z     vdW  Elec       q    Type
REMARK                         _______ _______ _______ _____ _____    ______ ____
ROOT
ATOM      1  C   LIG    1       -2.550  -2.680   0.012  0.00  0.00    +0.520 C 
ATOM      2  N   LIG    1       -2.778  -4.008   0.007  0.00  0.00    -0.710 N 
ATOM      3  H   LIG    1       -2.032  -4.629  -0.003  0.00  0.00    +0.420 HD
ATOM      4  O   LIG    1       -3.482  -1.905   0.025  0.00  0.00    -0.540 OA
ENDROOT
BRANCH   1   5
ATOM      5  C   LIG    1       -1.136  -2.159   0.001  0.00  0.00    +0.300 C 
BRANCH   5   8
ATOM      6  C   LIG    1       -0.018   1.503   0.010  0.00  0.00    +0.110 C 
ATOM      7  C   LIG    1        0.002  -0.004   0.002  0.00  0.00    +0.510 C 
ATOM      8  N   LIG    1       -1.156  -0.694   0.009  0.00  0.00    -0.720 N 
ATOM      9  H   LIG    1       -2.002  -0.220   0.020  0.00  0.00    +0.410 HD
ATOM     10  O   LIG    1        1.060  -0.596  -0.011  0.00  0.00    -0.550 OA
ENDBRANCH   5   8
ENDBRANCH   1   5
BRANCH   2  11
ATOM     11  C   LIG    1       -4.152  -4.516   0.018  0.00  0.00    +0.300 C 
BRANCH  11  12
ATOM     12  C   LIG    1       -4.132  -6.022   0.009  0.00  0.00    +0.510 C 
ATOM     13  N   LIG    1       -5.290  -6.712   0.017  0.00  0.00    -0.620 N 
ATOM     14  C   LIG    1       -6.568  -5.997   0.033  0.00  0.00    +0.290 C 
ATOM     15  C   LIG    1       -5.270  -8.177   0.009  0.00  0.00    +0.290 C 
ATOM     16  O   LIG    1       -3.074  -6.614  -0.004  0.00  0.00    -0.530 OA
ENDBRANCH  11  12
ENDBRANCH   2  11
TORSDOF 4
ENDMDL
MODEL      879
REMARK  Name = ZINC000044901098
REMARK                            x       y       z     vdW  Elec       q    Type
REMARK                         _______ _______ _______ _____ _____    ______ ____
ROOT
ATOM      1  C   LIG    1       -2.561  -4.172   0.439  0.00  0.00    +0.520 C 
ATOM      2  N   LIG    1       -3.711  -4.861   0.297  0.00  0.00    -0.630 N 
ATOM      3  H   LIG    1       -4.551  -4.387   0.194  0.00  0.00    +0.420 HD
ATOM      4  O   LIG    1       -1.523  -4.761   0.658  0.00  0.00    -0.490 OA
ENDROOT
BRANCH   2   5
ATOM      5  C   LIG    1       -3.692  -6.261   0.299  0.00  0.00    -0.030 A 
ATOM      6  C   LIG    1       -4.414  -6.957   1.214  0.00  0.00    +0.300 A 
ATOM      7  N   LIG    1       -4.398  -8.315   1.219  0.00  0.00    -0.580 N 
ATOM      8  H   LIG    1       -4.920  -8.793   1.881  0.00  0.00    +0.430 HD
ATOM      9  C   LIG    1       -3.668  -9.017   0.319  0.00  0.00    +0.300 A 
ATOM     10  C   LIG    1       -2.928  -8.384  -0.619  0.00  0.00    -0.130 A 
ATOM     11  C   LIG    1       -2.924  -6.972  -0.660  0.00  0.00    +0.390 A 
ATOM     12  O   LIG    1       -2.263  -6.374  -1.497  0.00  0.00    -0.500 OA
ENDBRANCH   2   5
BRANCH   1  15
ATOM     13  N   LIG    1       -1.415  -1.994   0.467  0.00  0.00    -0.690 N 
ATOM     14  H   LIG    1       -0.585  -2.465   0.643  0.00  0.00    +0.420 HD
ATOM     15  C   LIG    1       -2.564  -2.683   0.326  0.00  0.00    +0.510 C 
ATOM     16  O   LIG    1       -3.602  -2.093   0.106  0.00  0.00    -0.520 OA
BRANCH  13  17
ATOM     17  C   LIG    1       -1.418  -0.533   0.356  0.00  0.00    +0.290 C 
BRANCH  17  19
ATOM     18  C   LIG    1       -0.018   1.526   0.564  0.00  0.00    +0.030 C 
ATOM     19  C   LIG    1        0.004  -0.003   0.556  0.00  0.00    +0.160 C 
BRANCH  19  20
ATOM     20  O   LIG    1        0.837  -0.462  -0.511  0.00  0.00    -0.560 OA
ATOM     21  H   LIG    1        1.755  -0.163  -0.449  0.00  0.00    +0.380 HD
ENDBRANCH  19  20
ENDBRANCH  17  19
ENDBRANCH  13  17
ENDBRANCH   1  15
TORSDOF 5
ENDMDL
MODEL      880
REMARK  Name = ZINC000253389829
REMARK                            x       y       z     vdW  Elec       q    Type
REMARK                         _______ _______ _______ _____ _____    ______ ____
ROOT
ATOM      1  C   LIG    1        1.237  -2.730  -2.134  0.00  0.00    +0.270 C 
ATOM      2  C   LIG    1        0.201  -2.997  -3.229  0.00  0.00    +0.350 C 
ATOM      3  O   LIG    1       -0.835  -3.832  -2.710  0.00  0.00    -0.390 OA
ATOM      4  C   LIG    1       -0.384  -5.114  -2.267  0.00  0.00    +0.150 C 
ATOM      5  C   LIG    1        0.628  -4.932  -1.132  0.00  0.00    +0.120 C 
ATOM      6  C   LIG    1        1.792  -4.066  -1.629  0.00  0.00    +0.190 C 
ENDROOT
BRANCH   1  11
ATOM      7  C   LIG    1        1.572   0.272   1.688  0.00  0.00    +0.300 C 
ATOM      8  N   LIG    1        0.764  -0.574   0.806  0.00  0.00    -0.750 N 
ATOM      9  H   LIG    1       -0.191  -0.658   0.956  0.00  0.00    +0.400 HD
ATOM     10  C   LIG    1        1.347  -1.234  -0.214  0.00  0.00    +0.710 C 
ATOM     11  N   LIG    1        0.603  -2.012  -1.025  0.00  0.00    -0.700 N 
ATOM     12  H   LIG    1       -0.351  -2.097  -0.875  0.00  0.00    +0.410 HD
ATOM     13  O   LIG    1        2.543  -1.128  -0.402  0.00  0.00    -0.600 OA
ENDBRANCH   1  11
BRANCH   5  14
ATOM     14  O   LIG    1       -0.006  -4.292  -0.024  0.00  0.00    -0.540 OA
ATOM     15  H   LIG    1       -0.755  -4.784   0.339  0.00  0.00    +0.380 HD
ENDBRANCH   5  14
BRANCH   2  16
ATOM     16  O   LIG    1       -0.360  -1.757  -3.667  0.00  0.00    -0.540 OA
ATOM     17  H   LIG    1       -1.026  -1.850  -4.362  0.00  0.00    +0.390 HD
ENDBRANCH   2  16
BRANCH   6  18
ATOM     18  O   LIG    1        2.468  -4.738  -2.693  0.00  0.00    -0.550 OA
ATOM     19  H   LIG    1        2.838  -5.596  -2.444  0.00  0.00    +0.390 HD
ENDBRANCH   6  18
BRANCH   4  20
ATOM     20  C   LIG    1       -1.577  -5.928  -1.761  0.00  0.00    +0.200 C 
BRANCH  20  21
ATOM     21  O   LIG    1       -2.466  -6.195  -2.847  0.00  0.00    -0.560 OA
ATOM     22  H   LIG    1       -3.247  -6.709  -2.599  0.00  0.00    +0.380 HD
ENDBRANCH  20  21
ENDBRANCH   4  20
TORSDOF 6
ENDMDL
MODEL      881
REMARK  Name = ZINC000253389827
REMARK                            x       y       z     vdW  Elec       q    Type
REMARK                         _______ _______ _______ _____ _____    ______ ____
ROOT
ATOM      1  C   LIG    1        1.237  -2.730  -2.134  0.00  0.00    +0.280 C 
ATOM      2  C   LIG    1        0.235  -2.887  -3.281  0.00  0.00    +0.330 C 
ATOM      3  O   LIG    1       -0.875  -3.670  -2.838  0.00  0.00    -0.390 OA
ATOM      4  C   LIG    1       -0.528  -4.994  -2.427  0.00  0.00    +0.150 C 
ATOM      5  C   LIG    1        0.443  -4.921  -1.245  0.00  0.00    +0.110 C 
ATOM      6  C   LIG    1        1.681  -4.117  -1.659  0.00  0.00    +0.190 C 
ENDROOT
BRANCH   1  11
ATOM      7  C   LIG    1       -0.018   1.461   0.010  0.00  0.00    +0.300 C 
ATOM      8  N   LIG    1        0.002  -0.004   0.002  0.00  0.00    -0.750 N 
ATOM      9  H   LIG    1       -0.404  -0.499   0.731  0.00  0.00    +0.390 HD
ATOM     10  C   LIG    1        0.585  -0.664  -1.018  0.00  0.00    +0.710 C 
ATOM     11  N   LIG    1        0.603  -2.012  -1.025  0.00  0.00    -0.730 N 
ATOM     12  H   LIG    1        0.197  -2.507  -0.297  0.00  0.00    +0.390 HD
ATOM     13  O   LIG    1        1.095  -0.045  -1.931  0.00  0.00    -0.570 OA
ENDBRANCH   1  11
BRANCH   5  14
ATOM     14  O   LIG    1        0.835  -6.243  -0.868  0.00  0.00    -0.550 OA
ATOM     15  H   LIG    1        0.100  -6.809  -0.598  0.00  0.00    +0.390 HD
ENDBRANCH   5  14
BRANCH   2  16
ATOM     16  O   LIG    1       -0.224  -1.598  -3.692  0.00  0.00    -0.520 OA
ATOM     17  H   LIG    1       -0.863  -1.621  -4.418  0.00  0.00    +0.380 HD
ENDBRANCH   2  16
BRANCH   6  18
ATOM     18  O   LIG    1        2.358  -4.794  -2.720  0.00  0.00    -0.550 OA
ATOM     19  H   LIG    1        2.660  -5.683  -2.489  0.00  0.00    +0.400 HD
ENDBRANCH   6  18
BRANCH   4  20
ATOM     20  C   LIG    1       -1.793  -5.744  -2.003  0.00  0.00    +0.200 C 
BRANCH  20  21
ATOM     21  O   LIG    1       -2.649  -5.912  -3.135  0.00  0.00    -0.560 OA
ATOM     22  H   LIG    1       -3.471  -6.381  -2.939  0.00  0.00    +0.380 HD
ENDBRANCH  20  21
ENDBRANCH   4  20
TORSDOF 6
ENDMDL
MODEL      882
REMARK  Name = ZINC000044123392
REMARK                            x       y       z     vdW  Elec       q    Type
REMARK                         _______ _______ _______ _____ _____    ______ ____
ROOT
ATOM      1  N   LIG    1       -0.795  -0.498  -1.363  0.00  0.00    -1.010 NA
ATOM      2  C   LIG    1       -2.246  -0.733  -1.338  0.00  0.00    +0.290 C 
ATOM      3  C   LIG    1       -2.899   0.120  -2.433  0.00  0.00    +0.290 C 
ATOM      4  N   LIG    1       -2.169  -0.090  -3.691  0.00  0.00    -1.000 NA
ATOM      5  C   LIG    1       -0.719   0.145  -3.715  0.00  0.00    +0.290 C 
ATOM      6  C   LIG    1       -0.066  -0.702  -2.622  0.00  0.00    +0.300 C 
ENDROOT
BRANCH   1   7
ATOM      7  S   LIG    1        0.002  -0.004   0.002  0.00  0.00    +2.790 S 
ATOM      8  O   LIG    1       -0.792  -0.422   1.104  0.00  0.00    -0.970 OA
ATOM      9  O   LIG    1        1.360  -0.386  -0.166  0.00  0.00    -0.970 OA
BRANCH   7  10
ATOM     10  N   LIG    1       -0.020   1.652   0.011  0.00  0.00    -1.260 NA
ATOM     11  H   LIG    1       -0.867   2.125   0.018  0.00  0.00    +0.420 HD
ATOM     12  H   LIG    1        0.813   2.148   0.006  0.00  0.00    +0.420 HD
ENDBRANCH   7  10
ENDBRANCH   1   7
BRANCH   4  13
ATOM     13  S   LIG    1       -2.966  -0.583  -5.056  0.00  0.00    +2.790 S 
ATOM     14  O   LIG    1       -4.150  -1.234  -4.616  0.00  0.00    -0.980 OA
ATOM     15  O   LIG    1       -1.996  -1.209  -5.883  0.00  0.00    -0.980 OA
BRANCH  13  16
ATOM     16  N   LIG    1       -3.454   0.782  -5.858  0.00  0.00    -1.260 NA
ATOM     17  H   LIG    1       -3.658   1.589  -5.361  0.00  0.00    +0.410 HD
ATOM     18  H   LIG    1       -3.535   0.773  -6.824  0.00  0.00    +0.420 HD
ENDBRANCH  13  16
ENDBRANCH   4  13
TORSDOF 4
ENDMDL
MODEL      883
REMARK  Name = ZINC000001748134
REMARK                            x       y       z     vdW  Elec       q    Type
REMARK                         _______ _______ _______ _____ _____    ______ ____
ROOT
ATOM      1  C   LIG    1        2.481  -0.519  -1.401  0.00  0.00    -0.870 A 
ATOM      2  C   LIG    1        3.328  -1.351  -0.757  0.00  0.00    +0.350 A 
ATOM      3  N   LIG    1        4.617  -0.957  -0.524  0.00  0.00    -0.630 N 
ATOM      4  H   LIG    1        5.226  -1.555  -0.061  0.00  0.00    +0.440 HD
ATOM      5  C   LIG    1        5.049   0.250  -0.930  0.00  0.00    +0.700 A 
ATOM      6  N   LIG    1        4.227   1.099  -1.574  0.00  0.00    -0.660 N 
ATOM      7  H   LIG    1        4.554   1.966  -1.860  0.00  0.00    +0.440 HD
ATOM      8  O   LIG    1        6.199   0.580  -0.712  0.00  0.00    -0.520 OA
ATOM      9  C   LIG    1        2.855  -2.706  -0.298  0.00  0.00    +0.180 C 
ATOM     10  C   LIG    1        2.950   0.746  -1.828  0.00  0.00    +0.590 A 
ATOM     11  O   LIG    1        2.205   1.513  -2.412  0.00  0.00    -0.470 OA
ENDROOT
BRANCH   1  12
ATOM     12  S   LIG    1        0.816  -1.006  -1.712  0.00  0.00    +2.720 S 
ATOM     13  O   LIG    1        0.337  -0.159  -2.748  0.00  0.00    -0.920 OA
ATOM     14  O   LIG    1        0.823  -2.423  -1.808  0.00  0.00    -0.960 OA
BRANCH  12  16
ATOM     15  C   LIG    1       -0.235   0.766   0.041  0.00  0.00    +0.300 C 
ATOM     16  N   LIG    1       -0.064  -0.633  -0.359  0.00  0.00    -1.120 NA
ATOM     17  H   LIG    1       -0.467  -1.341   0.168  0.00  0.00    +0.420 HD
ENDBRANCH  12  16
ENDBRANCH   1  12
TORSDOF 2
ENDMDL
MODEL      884
REMARK  Name = ZINC000002171295
REMARK                            x       y       z     vdW  Elec       q    Type
REMARK                         _______ _______ _______ _____ _____    ______ ____
ROOT
ATOM      1  O   LIG    1        0.002  -0.004   0.002  0.00  0.00    -0.510 OA
ATOM      2  C   LIG    1       -0.014   1.214   0.009  0.00  0.00    +0.550 A 
ATOM      3  C   LIG    1       -1.246   1.911   0.030  0.00  0.00    -0.120 A 
ATOM      4  C   LIG    1       -1.236   3.261   0.038  0.00  0.00    +0.210 A 
ATOM      5  N   LIG    1       -0.043   3.930   0.025  0.00  0.00    -0.630 N 
ATOM      6  H   LIG    1       -0.036   4.901   0.030  0.00  0.00    +0.440 HD
ATOM      7  C   LIG    1        1.121   3.256   0.004  0.00  0.00    +0.700 A 
ATOM      8  O   LIG    1        2.170   3.870  -0.008  0.00  0.00    -0.540 OA
ATOM      9  N   LIG    1        1.140   1.910   0.001  0.00  0.00    -0.660 N 
ATOM     10  H   LIG    1        1.988   1.439  -0.013  0.00  0.00    +0.430 HD
ENDROOT
BRANCH   4  11
ATOM     11  C   LIG    1       -2.534   4.028   0.061  0.00  0.00    +0.270 C 
BRANCH  11  12
ATOM     12  N   LIG    1       -2.639   4.774   1.322  0.00  0.00    -0.540 NA
ATOM     13  C   LIG    1       -2.288   3.923   2.468  0.00  0.00    +0.140 C 
ATOM     14  C   LIG    1       -2.353   4.754   3.753  0.00  0.00    +0.220 C 
ATOM     15  O   LIG    1       -3.659   5.323   3.881  0.00  0.00    -0.380 OA
ATOM     16  C   LIG    1       -4.034   6.158   2.782  0.00  0.00    +0.220 C 
ATOM     17  C   LIG    1       -3.985   5.341   1.488  0.00  0.00    +0.160 C 
ENDBRANCH  11  12
ENDBRANCH   4  11
TORSDOF 2
ENDMDL
MODEL      885
REMARK  Name = ZINC000000069180
REMARK                            x       y       z     vdW  Elec       q    Type
REMARK                         _______ _______ _______ _____ _____    ______ ____
ROOT
ATOM      1  C   LIG    1        0.680  -2.074   1.092  0.00  0.00    +0.000 C 
ATOM      2  C   LIG    1        1.302  -2.687   2.129  0.00  0.00    +0.190 C 
ATOM      3  N   LIG    1        1.377  -4.067   2.205  0.00  0.00    -0.770 N 
ATOM      4  H   LIG    1        2.032  -4.548   1.675  0.00  0.00    +0.410 HD
ATOM      5  C   LIG    1        0.472  -4.795   3.079  0.00  0.00    +0.310 C 
ATOM      6  C   LIG    1        0.646  -4.365   4.538  0.00  0.00    +0.130 C 
ATOM      7  C   LIG    1        0.264  -2.897   4.707  0.00  0.00    +0.260 C 
ATOM      8  N   LIG    1        1.435  -2.042   4.473  0.00  0.00    -0.730 N 
ATOM      9  H   LIG    1        1.853  -1.579   5.215  0.00  0.00    +0.410 HD
ATOM     10  C   LIG    1        1.934  -1.899   3.223  0.00  0.00    +0.550 C 
ATOM     11  O   LIG    1        2.864  -1.148   3.003  0.00  0.00    -0.490 OA
ENDROOT
BRANCH   1  12
ATOM     12  C   LIG    1        0.621  -0.614   1.034  0.00  0.00    +0.490 C 
ATOM     13  O   LIG    1        1.131   0.051   1.916  0.00  0.00    -0.480 OA
BRANCH  12  15
ATOM     14  C   LIG    1       -0.017   1.425   0.010  0.00  0.00    +0.260 C 
ATOM     15  O   LIG    1        0.002  -0.004   0.002  0.00  0.00    -0.350 OA
ENDBRANCH  12  15
ENDBRANCH   1  12
BRANCH   6  16
ATOM     16  O   LIG    1       -0.192  -5.168   5.371  0.00  0.00    -0.560 OA
ATOM     17  H   LIG    1       -0.134  -4.952   6.312  0.00  0.00    +0.390 HD
ENDBRANCH   6  16
TORSDOF 3
ENDMDL
MODEL      886
REMARK  Name = ZINC000000187658
REMARK                            x       y       z     vdW  Elec       q    Type
REMARK                         _______ _______ _______ _____ _____    ______ ____
ROOT
ATOM      1  C   LIG    1        0.659  -2.063  -1.123  0.00  0.00    +0.150 C 
ATOM      2  C   LIG    1        1.171  -2.667  -2.226  0.00  0.00    -0.140 A 
ATOM      3  S   LIG    1        1.221  -4.399  -2.589  0.00  0.00    +0.170 S 
ATOM      4  C   LIG    1        2.031  -4.203  -4.160  0.00  0.00    +0.300 A 
ATOM      5  N   LIG    1        2.465  -4.956  -5.132  0.00  0.00    -0.470 NA
ATOM      6  C   LIG    1        3.062  -4.134  -6.186  0.00  0.00    +0.240 C 
ATOM      7  C   LIG    1        2.911  -2.695  -5.670  0.00  0.00    +0.290 C 
ATOM      8  N   LIG    1        2.232  -2.861  -4.354  0.00  0.00    -0.600 N 
ATOM      9  C   LIG    1        1.804  -2.026  -3.394  0.00  0.00    +0.540 A 
ATOM     10  O   LIG    1        1.931  -0.821  -3.481  0.00  0.00    -0.420 OA
ENDROOT
BRANCH   1  11
ATOM     11  C   LIG    1        0.895  -0.637  -0.893  0.00  0.00    +0.470 C 
ATOM     12  O   LIG    1        1.651  -0.021  -1.620  0.00  0.00    -0.440 OA
BRANCH  11  14
ATOM     13  C   LIG    1        0.549   1.386   0.290  0.00  0.00    +0.270 C 
ATOM     14  O   LIG    1        0.273  -0.006   0.124  0.00  0.00    -0.350 OA
ENDBRANCH  11  14
ENDBRANCH   1  11
TORSDOF 2
ENDMDL
MODEL      887
REMARK  Name = ZINC000087351334
REMARK                            x       y       z     vdW  Elec       q    Type
REMARK                         _______ _______ _______ _____ _____    ______ ____
ROOT
ATOM      1  C   LIG    1        0.745  -0.259  -1.411  0.00  0.00    +0.260 C 
ENDROOT
BRANCH   1   2
ATOM      2  C   LIG    1        0.113   0.594  -2.480  0.00  0.00    +0.510 C 
ATOM      3  O   LIG    1        0.792   1.375  -3.112  0.00  0.00    -0.530 OA
ATOM      4  N   LIG    1       -1.206   0.490  -2.734  0.00  0.00    -0.850 N 
ATOM      5  H   LIG    1       -1.625   1.085  -3.375  0.00  0.00    +0.400 HD
ATOM      6  H   LIG    1       -1.737  -0.180  -2.275  0.00  0.00    +0.400 HD
ENDBRANCH   1   2
BRANCH   1   8
ATOM      7  C   LIG    1        0.810   1.782   0.028  0.00  0.00    +0.040 C 
ATOM      8  C   LIG    1        0.399   0.310  -0.033  0.00  0.00    -0.070 C 
ATOM      9  C   LIG    1       -1.108   0.191   0.204  0.00  0.00    +0.050 C 
ATOM     10  C   LIG    1        1.149  -0.474   1.046  0.00  0.00    +0.050 C 
ENDBRANCH   1   8
BRANCH   1  11
ATOM     11  N   LIG    1        2.200  -0.264  -1.585  0.00  0.00    -0.700 N 
ATOM     12  H   LIG    1        2.750   0.360  -1.087  0.00  0.00    +0.410 HD
ATOM     13  C   LIG    1        2.773  -1.136  -2.439  0.00  0.00    +0.510 C 
ATOM     14  O   LIG    1        2.084  -1.917  -3.061  0.00  0.00    -0.500 OA
BRANCH  13  15
ATOM     15  C   LIG    1        4.269  -1.141  -2.619  0.00  0.00    +0.390 C 
BRANCH  15  16
ATOM     16  N   LIG    1        4.641  -2.172  -3.591  0.00  0.00    -0.300 N 
ATOM     17  C   LIG    1        5.369  -1.991  -4.708  0.00  0.00    +0.400 A 
ATOM     18  N   LIG    1        5.467  -3.163  -5.287  0.00  0.00    -0.300 NA
ATOM     19  N   LIG    1        4.831  -4.019  -4.563  0.00  0.00    -0.070 NA
ATOM     20  N   LIG    1        4.335  -3.424  -3.535  0.00  0.00    -0.070 NA
ENDBRANCH  15  16
ENDBRANCH  13  15
ENDBRANCH   1  11
TORSDOF 5
ENDMDL
MODEL      888
REMARK  Name = ZINC000012421692
REMARK                            x       y       z     vdW  Elec       q    Type
REMARK                         _______ _______ _______ _____ _____    ______ ____
ROOT
ATOM      1  C   LIG    1       -1.246  -2.124   0.003  0.00  0.00    +0.540 C 
ATOM      2  N   LIG    1       -2.439  -2.752   0.011  0.00  0.00    -0.700 N 
ATOM      3  H   LIG    1       -3.259  -2.235   0.021  0.00  0.00    +0.420 HD
ATOM      4  O   LIG    1       -0.220  -2.771  -0.011  0.00  0.00    -0.480 OA
ENDROOT
BRANCH   2   5
ATOM      5  C   LIG    1       -2.495  -4.216   0.003  0.00  0.00    +0.300 C 
ATOM      6  C   LIG    1       -2.419  -4.710  -1.407  0.00  0.00    +0.080 C 
ATOM      7  C   LIG    1       -3.512  -5.089  -2.007  0.00  0.00    -0.450 C 
ATOM      8  S   LIG    1       -4.853  -4.890  -0.856  0.00  0.00    +2.440 S 
ATOM      9  O   LIG    1       -5.542  -6.133  -0.854  0.00  0.00    -0.920 OA
ATOM     10  O   LIG    1       -5.492  -3.675  -1.223  0.00  0.00    -0.920 OA
ATOM     11  C   LIG    1       -3.823  -4.684   0.650  0.00  0.00    -0.260 C 
ENDBRANCH   2   5
BRANCH   1  12
ATOM     12  C   LIG    1       -1.188  -0.631   0.010  0.00  0.00    +0.460 C 
ATOM     13  O   LIG    1       -2.214   0.015   0.023  0.00  0.00    -0.470 OA
BRANCH  12  15
ATOM     14  C   LIG    1       -0.018   1.448   0.010  0.00  0.00    +0.280 C 
ATOM     15  O   LIG    1        0.002  -0.004   0.002  0.00  0.00    -0.330 OA
ENDBRANCH  12  15
ENDBRANCH   1  12
TORSDOF 3
ENDMDL
MODEL      889
REMARK  Name = ZINC000013509835
REMARK                            x       y       z     vdW  Elec       q    Type
REMARK                         _______ _______ _______ _____ _____    ______ ____
ROOT
ATOM      1  C   LIG    1       -0.018   1.461   0.010  0.00  0.00    +0.330 C 
ATOM      2  N   LIG    1        0.002  -0.004   0.002  0.00  0.00    -0.640 N 
ATOM      3  C   LIG    1        0.008  -0.774  -1.094  0.00  0.00    +0.700 C 
ATOM      4  N   LIG    1        0.027  -2.088  -0.834  0.00  0.00    -0.640 N 
ATOM      5  C   LIG    1        0.036  -2.293   0.622  0.00  0.00    +0.500 C 
ATOM      6  C   LIG    1        0.037  -3.152  -1.841  0.00  0.00    +0.340 C 
ATOM      7  O   LIG    1       -0.003  -0.322  -2.222  0.00  0.00    -0.570 OA
ATOM      8  C   LIG    1        0.025  -0.863   1.196  0.00  0.00    +0.500 C 
ENDROOT
BRANCH   5   9
ATOM      9  N   LIG    1       -1.155  -3.034   1.044  0.00  0.00    -0.740 N 
ATOM     10  H   LIG    1       -2.020  -2.595   1.058  0.00  0.00    +0.390 HD
ATOM     11  C   LIG    1       -1.050  -4.325   1.414  0.00  0.00    +0.710 C 
ATOM     12  O   LIG    1        0.034  -4.876   1.396  0.00  0.00    -0.580 OA
ATOM     13  N   LIG    1       -2.145  -5.007   1.802  0.00  0.00    -0.860 N 
ATOM     14  H   LIG    1       -2.069  -5.937   2.068  0.00  0.00    +0.420 HD
ATOM     15  H   LIG    1       -3.010  -4.568   1.816  0.00  0.00    +0.400 HD
ENDBRANCH   5   9
BRANCH   8  16
ATOM     16  N   LIG    1       -1.176  -0.642   2.005  0.00  0.00    -0.740 N 
ATOM     17  H   LIG    1       -2.042  -0.933   1.678  0.00  0.00    +0.390 HD
ATOM     18  C   LIG    1       -1.078  -0.035   3.204  0.00  0.00    +0.710 C 
ATOM     19  O   LIG    1        0.006   0.330   3.615  0.00  0.00    -0.580 OA
ATOM     20  N   LIG    1       -2.183   0.168   3.949  0.00  0.00    -0.860 N 
ATOM     21  H   LIG    1       -2.113   0.605   4.812  0.00  0.00    +0.420 HD
ATOM     22  H   LIG    1       -3.049  -0.123   3.622  0.00  0.00    +0.400 HD
ENDBRANCH   8  16
TORSDOF 2
ENDMDL
MODEL      890
REMARK  Name = ZINC000001530555
REMARK                            x       y       z     vdW  Elec       q    Type
REMARK                         _______ _______ _______ _____ _____    ______ ____
ROOT
ATOM      1  C   LIG    1        0.002  -0.004   0.002  0.00  0.00    +0.660 A 
ATOM      2  N   LIG    1       -1.138  -0.658   0.004  0.00  0.00    -0.580 NA
ATOM      3  C   LIG    1       -1.169  -1.996  -0.003  0.00  0.00    +0.310 A 
ATOM      4  C   LIG    1        0.031  -2.716  -0.013  0.00  0.00    -0.140 A 
ATOM      5  C   LIG    1        1.251  -2.000  -0.015  0.00  0.00    +0.600 A 
ATOM      6  O   LIG    1        2.320  -2.587  -0.023  0.00  0.00    -0.510 OA
ATOM      7  N   LIG    1       -0.291  -4.033  -0.018  0.00  0.00    -0.430 NA
ATOM      8  C   LIG    1       -1.585  -4.160  -0.013  0.00  0.00    +0.450 A 
ATOM      9  N   LIG    1       -2.171  -2.927  -0.003  0.00  0.00    -0.460 N 
ATOM     10  N   LIG    1        1.202  -0.650  -0.013  0.00  0.00    -0.660 N 
ATOM     11  H   LIG    1        2.026  -0.137  -0.014  0.00  0.00    +0.420 HD
ENDROOT
BRANCH   1  12
ATOM     12  N   LIG    1       -0.017   1.368   0.010  0.00  0.00    -0.820 N 
ATOM     13  H   LIG    1       -0.863   1.842   0.016  0.00  0.00    +0.430 HD
ATOM     14  H   LIG    1        0.817   1.864   0.004  0.00  0.00    +0.420 HD
ENDBRANCH   1  12
BRANCH   9  15
ATOM     15  C   LIG    1       -3.610  -2.652   0.005  0.00  0.00    +0.460 C 
BRANCH  15  16
ATOM     16  O   LIG    1       -4.331  -3.885   0.002  0.00  0.00    -0.390 OA
BRANCH  16  17
ATOM     17  C   LIG    1       -5.751  -3.728   0.009  0.00  0.00    +0.210 C 
BRANCH  17  18
ATOM     18  C   LIG    1       -6.417  -5.106   0.004  0.00  0.00    +0.210 C 
BRANCH  18  19
ATOM     19  O   LIG    1       -6.106  -5.789   1.220  0.00  0.00    -0.570 OA
ATOM     20  H   LIG    1       -6.496  -6.672   1.286  0.00  0.00    +0.380 HD
ENDBRANCH  18  19
ENDBRANCH  17  18
ENDBRANCH  16  17
ENDBRANCH  15  16
ENDBRANCH   9  15
TORSDOF 6
ENDMDL
MODEL      891
REMARK  Name = ZINC000101252788
REMARK                            x       y       z     vdW  Elec       q    Type
REMARK                         _______ _______ _______ _____ _____    ______ ____
ROOT
ATOM      1  C   LIG    1        0.673  -0.582   1.123  0.00  0.00    +0.170 C 
ATOM      2  C   LIG    1        2.156  -0.773   0.790  0.00  0.00    +0.130 C 
ATOM      3  C   LIG    1        2.287  -1.758  -0.374  0.00  0.00    +0.150 C 
ATOM      4  O   LIG    1        1.664  -2.995  -0.022  0.00  0.00    -0.370 OA
ATOM      5  C   LIG    1        0.266  -2.886   0.254  0.00  0.00    +0.350 C 
ATOM      6  C   LIG    1        0.053  -1.945   1.445  0.00  0.00    +0.270 C 
ENDROOT
BRANCH   6   7
ATOM      7  N   LIG    1       -1.383  -1.787   1.693  0.00  0.00    -0.710 N 
ATOM      8  H   LIG    1       -1.861  -1.035   1.310  0.00  0.00    +0.410 HD
ATOM      9  C   LIG    1       -2.038  -2.687   2.453  0.00  0.00    +0.510 C 
ATOM     10  O   LIG    1       -1.440  -3.627   2.931  0.00  0.00    -0.550 OA
ATOM     11  C   LIG    1       -3.515  -2.524   2.707  0.00  0.00    +0.110 C 
ENDBRANCH   6   7
BRANCH   1  13
ATOM     12  C   LIG    1       -0.017   1.425   0.010  0.00  0.00    +0.190 C 
ATOM     13  O   LIG    1        0.002  -0.004   0.002  0.00  0.00    -0.350 OA
ENDBRANCH   1  13
BRANCH   5  14
ATOM     14  O   LIG    1       -0.407  -2.364  -0.893  0.00  0.00    -0.550 OA
ATOM     15  H   LIG    1       -0.314  -2.909  -1.686  0.00  0.00    +0.380 HD
ENDBRANCH   5  14
BRANCH   2  16
ATOM     16  O   LIG    1        2.840  -1.289   1.934  0.00  0.00    -0.550 OA
ATOM     17  H   LIG    1        3.786  -1.435   1.794  0.00  0.00    +0.380 HD
ENDBRANCH   2  16
BRANCH   3  18
ATOM     18  C   LIG    1        3.768  -2.000  -0.674  0.00  0.00    +0.200 C 
BRANCH  18  19
ATOM     19  O   LIG    1        3.890  -2.827  -1.833  0.00  0.00    -0.560 OA
ATOM     20  H   LIG    1        4.804  -3.022  -2.082  0.00  0.00    +0.380 HD
ENDBRANCH  18  19
ENDBRANCH   3  18
TORSDOF 6
ENDMDL
MODEL      892
REMARK  Name = ZINC000000203993
REMARK                            x       y       z     vdW  Elec       q    Type
REMARK                         _______ _______ _______ _____ _____    ______ ____
ROOT
ATOM      1  N   LIG    1        0.484  -0.585  -1.254  0.00  0.00    -0.630 N 
ATOM      2  C   LIG    1       -0.216  -1.375  -2.121  0.00  0.00    +0.730 C 
ATOM      3  N   LIG    1        0.407  -1.474  -3.344  0.00  0.00    -0.720 N 
ATOM      4  H   LIG    1        0.254  -2.130  -4.043  0.00  0.00    +0.430 HD
ATOM      5  C   LIG    1        1.319  -0.405  -3.344  0.00  0.00    +0.380 C 
ATOM      6  N   LIG    1        2.463   0.084  -3.989  0.00  0.00    -0.720 N 
ATOM      7  H   LIG    1        2.805  -0.167  -4.861  0.00  0.00    +0.430 HD
ATOM      8  C   LIG    1        2.994   0.996  -3.111  0.00  0.00    +0.730 C 
ATOM      9  N   LIG    1        2.444   0.889  -1.865  0.00  0.00    -0.740 N 
ATOM     10  H   LIG    1        2.478   1.544  -1.150  0.00  0.00    +0.430 HD
ATOM     11  O   LIG    1        3.852   1.804  -3.407  0.00  0.00    -0.540 OA
ATOM     12  O   LIG    1       -1.265  -1.925  -1.846  0.00  0.00    -0.530 OA
ATOM     13  C   LIG    1        1.815  -0.436  -1.846  0.00  0.00    +0.420 C 
ENDROOT
BRANCH   1  15
ATOM     14  C   LIG    1       -1.398  -0.540   0.308  0.00  0.00    +0.080 C 
ATOM     15  C   LIG    1        0.002  -0.004   0.002  0.00  0.00    +0.200 C 
ATOM     16  C   LIG    1       -0.052   1.519  -0.129  0.00  0.00    +0.040 C 
BRANCH  15  17
ATOM     17  C   LIG    1        0.953  -0.385   1.138  0.00  0.00    +0.170 C 
BRANCH  17  18
ATOM     18  O   LIG    1        0.483   0.182   2.363  0.00  0.00    -0.560 OA
ATOM     19  H   LIG    1        1.039  -0.019   3.128  0.00  0.00    +0.390 HD
ENDBRANCH  17  18
ENDBRANCH  15  17
ENDBRANCH   1  15
TORSDOF 3
ENDMDL
MODEL      893
REMARK  Name = ZINC000334159035
REMARK                            x       y       z     vdW  Elec       q    Type
REMARK                         _______ _______ _______ _____ _____    ______ ____
ROOT
ATOM      1  C   LIG    1        1.460  -3.867  -2.508  0.00  0.00    +0.170 A 
ATOM      2  N   LIG    1        0.890  -4.458  -1.499  0.00  0.00    -0.320 NA
ATOM      3  C   LIG    1        0.860  -5.805  -1.421  0.00  0.00    +0.140 A 
ATOM      4  N   LIG    1        0.399  -6.713  -0.597  0.00  0.00    -0.270 NA
ATOM      5  O   LIG    1        0.661  -7.814  -1.035  0.00  0.00    +0.370 OA
ATOM      6  N   LIG    1        1.263  -7.840  -2.088  0.00  0.00    -0.340 NA
ATOM      7  C   LIG    1        1.479  -6.621  -2.489  0.00  0.00    +0.200 A 
ATOM      8  N   LIG    1        2.081  -5.992  -3.555  0.00  0.00    -0.580 N 
ATOM      9  H   LIG    1        2.492  -6.508  -4.266  0.00  0.00    +0.430 HD
ATOM     10  C   LIG    1        2.082  -4.640  -3.595  0.00  0.00    +0.530 A 
ATOM     11  O   LIG    1        2.608  -4.062  -4.527  0.00  0.00    -0.470 OA
ENDROOT
BRANCH   1  12
ATOM     12  C   LIG    1        1.479  -2.361  -2.569  0.00  0.00    +0.250 C 
BRANCH  12  13
ATOM     13  C   LIG    1        0.786  -1.801  -1.353  0.00  0.00    +0.450 C 
ATOM     14  O   LIG    1        0.325  -2.548  -0.523  0.00  0.00    -0.460 OA
BRANCH  13  15
ATOM     15  O   LIG    1        0.682  -0.472  -1.193  0.00  0.00    -0.360 OA
BRANCH  15  17
ATOM     16  C   LIG    1       -0.019   1.526   0.010  0.00  0.00    +0.070 C 
ATOM     17  C   LIG    1        0.002  -0.004   0.002  0.00  0.00    +0.200 C 
ENDBRANCH  15  17
ENDBRANCH  13  15
ENDBRANCH  12  13
ENDBRANCH   1  12
TORSDOF 4
ENDMDL
MODEL      894
REMARK  Name = ZINC000019737066
REMARK                            x       y       z     vdW  Elec       q    Type
REMARK                         _______ _______ _______ _____ _____    ______ ____
ROOT
ATOM      1  C   LIG    1       -2.568   5.452   0.826  0.00  0.00    +0.290 C 
ENDROOT
BRANCH   1   5
ATOM      2  C   LIG    1       -1.330   1.951   0.019  0.00  0.00    -0.090 C 
ATOM      3  C   LIG    1       -1.643   2.544  -1.374  0.00  0.00    +0.080 C 
ATOM      4  C   LIG    1       -2.302   3.872  -1.073  0.00  0.00    +0.530 C 
ATOM      5  N   LIG    1       -2.067   4.225   0.203  0.00  0.00    -0.620 N 
ATOM      6  O   LIG    1       -2.948   4.523  -1.866  0.00  0.00    -0.540 OA
ATOM      7  C   LIG    1       -1.245   3.223   0.892  0.00  0.00    +0.270 C 
BRANCH   2   9
ATOM      8  O   LIG    1        0.002  -0.004   0.002  0.00  0.00    -0.690 OA
ATOM      9  C   LIG    1       -0.015   1.215   0.009  0.00  0.00    +0.500 C 
ATOM     10  O   LIG    1        1.033   1.839   0.002  0.00  0.00    -0.690 OA
ENDBRANCH   2   9
ENDBRANCH   1   5
BRANCH   1  11
ATOM     11  C   LIG    1       -3.937   5.183   1.455  0.00  0.00    +0.190 C 
BRANCH  11  12
ATOM     12  N   LIG    1       -4.439   6.414   2.080  0.00  0.00    -0.530 NA
ATOM     13  C   LIG    1       -3.394   7.060   2.885  0.00  0.00    +0.200 C 
ATOM     14  C   LIG    1       -3.938   8.366   3.469  0.00  0.00    +0.280 C 
ATOM     15  N   LIG    1       -5.114   8.078   4.302  0.00  0.00    -0.510 N 
ATOM     16  C   LIG    1       -6.158   7.455   3.478  0.00  0.00    +0.280 C 
ATOM     17  H   LIG    1       -5.465   8.937   4.696  0.00  0.00    +0.430 HD
ATOM     18  H   LIG    1       -4.852   7.449   5.046  0.00  0.00    +0.430 HD
ATOM     19  C   LIG    1       -5.632   6.141   2.895  0.00  0.00    +0.200 C 
ENDBRANCH  11  12
ENDBRANCH   1  11
TORSDOF 4
ENDMDL
MODEL      895
REMARK  Name = ZINC000000203989
REMARK                            x       y       z     vdW  Elec       q    Type
REMARK                         _______ _______ _______ _____ _____    ______ ____
ROOT
ATOM      1  N   LIG    1        0.802  -0.465  -1.136  0.00  0.00    -0.630 N 
ATOM      2  C   LIG    1        0.385  -1.243  -2.179  0.00  0.00    +0.730 C 
ATOM      3  N   LIG    1        1.443  -1.761  -2.889  0.00  0.00    -0.720 N 
ATOM      4  H   LIG    1        1.435  -2.147  -3.779  0.00  0.00    +0.430 HD
ATOM      5  C   LIG    1        2.539  -1.603  -2.023  0.00  0.00    +0.380 C 
ATOM      6  N   LIG    1        3.940  -1.592  -1.989  0.00  0.00    -0.720 N 
ATOM      7  H   LIG    1        4.551  -1.960  -2.646  0.00  0.00    +0.430 HD
ATOM      8  C   LIG    1        4.254  -0.945  -0.821  0.00  0.00    +0.730 C 
ATOM      9  N   LIG    1        3.176  -0.297  -0.287  0.00  0.00    -0.740 N 
ATOM     10  H   LIG    1        3.079   0.031   0.621  0.00  0.00    +0.430 HD
ATOM     11  O   LIG    1        5.361  -0.948  -0.319  0.00  0.00    -0.540 OA
ATOM     12  O   LIG    1       -0.782  -1.452  -2.447  0.00  0.00    -0.530 OA
ATOM     13  C   LIG    1        2.214  -0.182  -1.398  0.00  0.00    +0.420 C 
ENDROOT
BRANCH   1  15
ATOM     14  C   LIG    1        0.534  -0.637   1.289  0.00  0.00    +0.040 C 
ATOM     15  C   LIG    1        0.002  -0.004   0.002  0.00  0.00    +0.200 C 
ATOM     16  C   LIG    1       -1.458  -0.414  -0.202  0.00  0.00    +0.080 C 
BRANCH  15  17
ATOM     17  C   LIG    1        0.095   1.520   0.107  0.00  0.00    +0.170 C 
BRANCH  17  18
ATOM     18  O   LIG    1       -0.686   1.969   1.217  0.00  0.00    -0.560 OA
ATOM     19  H   LIG    1       -0.673   2.927   1.344  0.00  0.00    +0.390 HD
ENDBRANCH  17  18
ENDBRANCH  15  17
ENDBRANCH   1  15
TORSDOF 3
ENDMDL
MODEL      896
REMARK  Name = ZINC000001555631
REMARK                            x       y       z     vdW  Elec       q    Type
REMARK                         _______ _______ _______ _____ _____    ______ ____
ROOT
ATOM      1  C   LIG    1        0.002  -0.004   0.002  0.00  0.00    +0.510 A 
ATOM      2  C   LIG    1       -1.195  -0.739   0.004  0.00  0.00    -0.120 A 
ATOM      3  N   LIG    1       -2.511  -0.417   0.012  0.00  0.00    -0.440 NA
ATOM      4  C   LIG    1       -3.224  -1.506   0.010  0.00  0.00    +0.450 A 
ATOM      5  N   LIG    1       -2.407  -2.597  -0.001  0.00  0.00    -0.490 N 
ATOM      6  C   LIG    1       -1.113  -2.142  -0.005  0.00  0.00    +0.310 A 
ATOM      7  N   LIG    1        0.085  -2.718  -0.015  0.00  0.00    -0.560 NA
ATOM      8  C   LIG    1        1.181  -1.989  -0.016  0.00  0.00    +0.590 A 
ATOM      9  N   LIG    1        1.153  -0.668  -0.013  0.00  0.00    -0.590 NA
ENDROOT
BRANCH   1  10
ATOM     10  N   LIG    1       -0.017   1.380   0.010  0.00  0.00    -0.810 N 
ATOM     11  H   LIG    1       -0.863   1.853   0.016  0.00  0.00    +0.420 HD
ATOM     12  H   LIG    1        0.817   1.876   0.004  0.00  0.00    +0.410 HD
ENDBRANCH   1  10
BRANCH   5  13
ATOM     13  C   LIG    1       -2.833  -3.999  -0.007  0.00  0.00    +0.370 C 
BRANCH  13  14
ATOM     14  CA  LIG    1       -2.853  -4.532   1.427  0.00  0.00    +0.080 C 
BRANCH  14  15
ATOM     15  N   LIG    1       -3.878  -3.818   2.200  0.00  0.00    -0.620 N 
ATOM     16  H1  LIG    1       -3.664  -2.832   2.211  0.00  0.00    +0.410 HD
ATOM     17  H2  LIG    1       -3.891  -4.170   3.146  0.00  0.00    +0.440 HD
ATOM     18  H3  LIG    1       -4.781  -3.962   1.775  0.00  0.00    +0.430 HD
ENDBRANCH  14  15
BRANCH  14  19
ATOM     19  C   LIG    1       -3.172  -6.005   1.411  0.00  0.00    +0.490 C 
ATOM     20  OXT LIG    1       -4.330  -6.379   1.472  0.00  0.00    -0.660 OA
ATOM     21  O   LIG    1       -2.270  -6.823   1.336  0.00  0.00    -0.620 OA
ENDBRANCH  14  19
ENDBRANCH  13  14
ENDBRANCH   5  13
TORSDOF 5
ENDMDL
MODEL      897
REMARK  Name = ZINC000651885817
REMARK                            x       y       z     vdW  Elec       q    Type
REMARK                         _______ _______ _______ _____ _____    ______ ____
ROOT
ATOM      1  N   LIG    1        0.796  -0.399  -1.397  0.00  0.00    -1.000 NA
ATOM      2  C   LIG    1        0.060  -0.584  -2.656  0.00  0.00    +0.310 C 
ATOM      3  C   LIG    1        0.726   0.269  -3.740  0.00  0.00    +0.170 C 
ATOM      4  N   LIG    1        2.158  -0.056  -3.804  0.00  0.00    -0.530 NA
ATOM      5  C   LIG    1        2.837   0.280  -2.545  0.00  0.00    +0.170 C 
ATOM      6  C   LIG    1        2.257  -0.567  -1.413  0.00  0.00    +0.300 C 
ENDROOT
BRANCH   1   8
ATOM      7  C   LIG    1       -0.022   1.810   0.012  0.00  0.00    -0.280 C 
ATOM      8  S   LIG    1        0.002  -0.004   0.002  0.00  0.00    +2.610 S 
ATOM      9  O   LIG    1       -1.309  -0.519  -0.182  0.00  0.00    -0.950 OA
ATOM     10  O   LIG    1        0.845  -0.497   1.035  0.00  0.00    -0.950 OA
ENDBRANCH   1   8
BRANCH   4  11
ATOM     11  C   LIG    1        2.799   0.614  -4.943  0.00  0.00    +0.320 C 
BRANCH  11  12
ATOM     12  C   LIG    1        4.194   0.072  -5.123  0.00  0.00    +0.240 A 
ATOM     13  N   LIG    1        5.272   0.545  -4.557  0.00  0.00    -0.310 NA
ATOM     14  N   LIG    1        6.344  -0.250  -4.995  0.00  0.00    -0.480 N 
ATOM     15  H   LIG    1        7.278  -0.152  -4.752  0.00  0.00    +0.440 HD
ATOM     16  C   LIG    1        5.818  -1.173  -5.818  0.00  0.00    +0.480 A 
ATOM     17  N   LIG    1        4.527  -0.972  -5.882  0.00  0.00    -0.530 NA
ENDBRANCH  11  12
ENDBRANCH   4  11
TORSDOF 3
ENDMDL
MODEL      898
REMARK  Name = ZINC000044608161
REMARK                            x       y       z     vdW  Elec       q    Type
REMARK                         _______ _______ _______ _____ _____    ______ ____
ROOT
ATOM      1  C   LIG    1       -1.674   4.566   0.052  0.00  0.00    +0.250 C 
ATOM      2  O   LIG    1       -1.312   5.437  -1.033  0.00  0.00    -0.330 OA
ATOM      3  C   LIG    1       -1.497   6.791  -0.567  0.00  0.00    +0.140 C 
ATOM      4  C   LIG    1       -0.976   6.745   0.893  0.00  0.00    +0.120 C 
ATOM      5  C   LIG    1       -1.450   5.344   1.363  0.00  0.00    +0.180 C 
ENDROOT
BRANCH   1   9
ATOM      6  O   LIG    1        0.002  -0.004   0.002  0.00  0.00    -0.460 OA
ATOM      7  C   LIG    1       -0.014   1.210   0.009  0.00  0.00    +0.550 C 
ATOM      8  C   LIG    1       -1.226   2.059   0.031  0.00  0.00    +0.030 C 
ATOM      9  C   LIG    1       -0.806   3.335   0.032  0.00  0.00    -0.090 C 
ATOM     10  C   LIG    1        0.673   3.298   0.009  0.00  0.00    +0.560 C 
ATOM     11  O   LIG    1        1.407   4.265   0.004  0.00  0.00    -0.420 OA
ATOM     12  N   LIG    1        1.066   2.011   0.003  0.00  0.00    -0.690 N 
ATOM     13  H   LIG    1        1.987   1.708  -0.011  0.00  0.00    +0.430 HD
ENDBRANCH   1   9
BRANCH   4  14
ATOM     14  O   LIG    1        0.449   6.842   0.929  0.00  0.00    -0.520 OA
ATOM     15  H   LIG    1        0.797   7.667   0.561  0.00  0.00    +0.380 HD
ENDBRANCH   4  14
BRANCH   5  16
ATOM     16  O   LIG    1       -0.440   4.715   2.154  0.00  0.00    -0.540 OA
ATOM     17  H   LIG    1       -0.217   5.196   2.962  0.00  0.00    +0.390 HD
ENDBRANCH   5  16
BRANCH   3  18
ATOM     18  C   LIG    1       -0.671   7.768  -1.406  0.00  0.00    +0.210 C 
BRANCH  18  19
ATOM     19  O   LIG    1       -1.182   7.799  -2.740  0.00  0.00    -0.560 OA
ATOM     20  H   LIG    1       -0.706   8.399  -3.330  0.00  0.00    +0.380 HD
ENDBRANCH  18  19
ENDBRANCH   3  18
TORSDOF 5
ENDMDL
MODEL      899
REMARK  Name = ZINC000004336691
REMARK                            x       y       z     vdW  Elec       q    Type
REMARK                         _______ _______ _______ _____ _____    ______ ____
ROOT
ATOM      1  S   LIG    1       -1.722  -1.394  -1.400  0.00  0.00    +2.650 S 
ATOM      2  O   LIG    1       -1.469  -0.532  -2.501  0.00  0.00    -0.930 OA
ATOM      3  O   LIG    1       -3.041  -1.825  -1.095  0.00  0.00    -0.940 OA
ENDROOT
BRANCH   1   4
ATOM      4  C   LIG    1       -0.581  -2.804  -1.420  0.00  0.00    -0.420 C 
ATOM      5  C   LIG    1       -0.748  -3.623  -0.129  0.00  0.00    +0.110 C 
ATOM      6  C   LIG    1       -0.006  -4.966  -0.355  0.00  0.00    -0.290 C 
ATOM      7  S   LIG    1       -0.490  -5.404  -2.068  0.00  0.00    +2.400 S 
ATOM      8  O   LIG    1       -1.673  -6.191  -2.037  0.00  0.00    -0.920 OA
ATOM      9  O   LIG    1        0.651  -5.870  -2.775  0.00  0.00    -0.930 OA
ATOM     10  C   LIG    1       -0.900  -3.712  -2.624  0.00  0.00    -0.290 C 
ENDBRANCH   1   4
BRANCH   1  11
ATOM     11  N   LIG    1       -1.264  -0.510  -0.077  0.00  0.00    -0.970 NA
ATOM     12  H   LIG    1       -1.895  -0.352   0.643  0.00  0.00    +0.400 HD
BRANCH  11  14
ATOM     13  C   LIG    1       -0.018   1.465   0.010  0.00  0.00    +0.210 C 
ATOM     14  N   LIG    1        0.002  -0.004   0.002  0.00  0.00    -0.290 NA
ATOM     15  C   LIG    1        0.706  -0.527   1.180  0.00  0.00    +0.200 C 
ENDBRANCH  11  14
ENDBRANCH   1  11
TORSDOF 3
ENDMDL
MODEL      900
REMARK  Name = ZINC000002476529
REMARK                            x       y       z     vdW  Elec       q    Type
REMARK                         _______ _______ _______ _____ _____    ______ ____
ROOT
ATOM      1  CA  LIG    1       -1.320   1.931   0.148  0.00  0.00    +0.210 A 
ATOM      2  C   LIG    1       -2.477   1.257  -0.076  0.00  0.00    -0.330 A 
ATOM      3  C   LIG    1       -3.723   2.028  -0.201  0.00  0.00    +0.560 A 
ATOM      4  N   LIG    1       -3.670   3.371  -0.089  0.00  0.00    -0.650 N 
ATOM      5  H   LIG    1       -4.483   3.894  -0.170  0.00  0.00    +0.440 HD
ATOM      6  C   LIG    1       -2.497   3.990   0.132  0.00  0.00    +0.700 A 
ATOM      7  O   LIG    1       -2.477   5.202   0.228  0.00  0.00    -0.530 OA
ATOM      8  O   LIG    1       -4.782   1.464  -0.402  0.00  0.00    -0.520 OA
ATOM      9  N   LIG    1       -1.348   3.306   0.256  0.00  0.00    -0.610 N 
ATOM     10  H   LIG    1       -0.521   3.788   0.415  0.00  0.00    +0.450 HD
ENDROOT
BRANCH   1  12
ATOM     11  O   LIG    1       -0.036  -0.025   0.310  0.00  0.00    -0.650 OA
ATOM     12  C   LIG    1       -0.040   1.197   0.282  0.00  0.00    +0.520 C 
ATOM     13  OXT LIG    1        1.013   1.813   0.359  0.00  0.00    -0.620 OA
ENDBRANCH   1  12
BRANCH   2  14
ATOM     14  C   LIG    1       -2.484  -0.246  -0.193  0.00  0.00    +0.380 C 
BRANCH  14  15
ATOM     15  N   LIG    1       -2.775  -0.838   1.120  0.00  0.00    -0.500 N 
ATOM     16  H   LIG    1       -3.679  -0.521   1.439  0.00  0.00    +0.420 HD
ATOM     17  H   LIG    1       -2.067  -0.555   1.781  0.00  0.00    +0.430 HD
BRANCH  15  18
ATOM     18  C   LIG    1       -2.782  -2.302   1.006  0.00  0.00    +0.280 C 
BRANCH  18  19
ATOM     19  C   LIG    1       -3.085  -2.918   2.373  0.00  0.00    +0.210 C 
BRANCH  19  20
ATOM     20  O   LIG    1       -4.411  -2.564   2.772  0.00  0.00    -0.580 OA
ATOM     21  H   LIG    1       -4.672  -2.921   3.632  0.00  0.00    +0.400 HD
ENDBRANCH  19  20
ENDBRANCH  18  19
ENDBRANCH  15  18
ENDBRANCH  14  15
ENDBRANCH   2  14
TORSDOF 6
ENDMDL
MODEL      901
REMARK  Name = ZINC000044608160
REMARK                            x       y       z     vdW  Elec       q    Type
REMARK                         _______ _______ _______ _____ _____    ______ ____
ROOT
ATOM      1  C   LIG    1       -1.674   4.566   0.052  0.00  0.00    +0.260 C 
ATOM      2  O   LIG    1       -1.312   5.437  -1.033  0.00  0.00    -0.330 OA
ATOM      3  C   LIG    1       -1.497   6.791  -0.567  0.00  0.00    +0.140 C 
ATOM      4  C   LIG    1       -0.976   6.745   0.893  0.00  0.00    +0.140 C 
ATOM      5  C   LIG    1       -1.450   5.344   1.363  0.00  0.00    +0.180 C 
ENDROOT
BRANCH   1   9
ATOM      6  O   LIG    1        0.002  -0.004   0.002  0.00  0.00    -0.450 OA
ATOM      7  C   LIG    1       -0.014   1.210   0.009  0.00  0.00    +0.550 C 
ATOM      8  C   LIG    1       -1.226   2.059   0.031  0.00  0.00    +0.070 C 
ATOM      9  C   LIG    1       -0.806   3.335   0.032  0.00  0.00    -0.120 C 
ATOM     10  C   LIG    1        0.673   3.298   0.009  0.00  0.00    +0.550 C 
ATOM     11  O   LIG    1        1.407   4.265   0.004  0.00  0.00    -0.420 OA
ATOM     12  N   LIG    1        1.066   2.011   0.003  0.00  0.00    -0.690 N 
ATOM     13  H   LIG    1        1.987   1.708  -0.011  0.00  0.00    +0.430 HD
ENDBRANCH   1   9
BRANCH   4  14
ATOM     14  O   LIG    1        0.449   6.842   0.929  0.00  0.00    -0.530 OA
ATOM     15  H   LIG    1        0.797   7.667   0.561  0.00  0.00    +0.380 HD
ENDBRANCH   4  14
BRANCH   5  16
ATOM     16  O   LIG    1       -2.667   5.451   2.104  0.00  0.00    -0.550 OA
ATOM     17  H   LIG    1       -2.592   5.981   2.909  0.00  0.00    +0.390 HD
ENDBRANCH   5  16
BRANCH   3  18
ATOM     18  C   LIG    1       -0.671   7.768  -1.406  0.00  0.00    +0.210 C 
BRANCH  18  19
ATOM     19  O   LIG    1       -1.182   7.799  -2.740  0.00  0.00    -0.560 OA
ATOM     20  H   LIG    1       -0.706   8.399  -3.330  0.00  0.00    +0.380 HD
ENDBRANCH  18  19
ENDBRANCH   3  18
TORSDOF 5
ENDMDL
MODEL      902
REMARK  Name = ZINC000005234410
REMARK                            x       y       z     vdW  Elec       q    Type
REMARK                         _______ _______ _______ _____ _____    ______ ____
ROOT
ATOM      1  C   LIG    1       -1.432  -1.925   0.005  0.00  0.00    +0.310 C 
ATOM      2  O   LIG    1       -0.907  -2.431  -1.224  0.00  0.00    -0.380 OA
ATOM      3  C   LIG    1       -0.929  -3.856  -1.325  0.00  0.00    +0.150 C 
ATOM      4  C   LIG    1       -2.376  -4.350  -1.241  0.00  0.00    +0.130 C 
ATOM      5  C   LIG    1       -2.997  -3.868   0.074  0.00  0.00    +0.180 C 
ATOM      6  C   LIG    1       -2.899  -2.341   0.142  0.00  0.00    +0.250 C 
ENDROOT
BRANCH   6   7
ATOM      7  N   LIG    1       -3.424  -1.874   1.428  0.00  0.00    -0.720 N 
ATOM      8  H   LIG    1       -3.422  -2.466   2.196  0.00  0.00    +0.400 HD
ATOM      9  C   LIG    1       -3.909  -0.622   1.543  0.00  0.00    +0.510 C 
ATOM     10  O   LIG    1       -3.912   0.118   0.582  0.00  0.00    -0.520 OA
ATOM     11  C   LIG    1       -4.449  -0.142   2.865  0.00  0.00    +0.090 C 
ENDBRANCH   6   7
BRANCH   5  12
ATOM     12  O   LIG    1       -4.369  -4.263   0.128  0.00  0.00    -0.550 OA
ATOM     13  H   LIG    1       -4.505  -5.220   0.082  0.00  0.00    +0.390 HD
ENDBRANCH   5  12
BRANCH   4  14
ATOM     14  O   LIG    1       -2.397  -5.778  -1.285  0.00  0.00    -0.560 OA
ATOM     15  H   LIG    1       -2.014  -6.152  -2.090  0.00  0.00    +0.390 HD
ENDBRANCH   4  14
BRANCH   1  16
ATOM     16  O   LIG    1       -1.339  -0.499   0.012  0.00  0.00    -0.340 OA
BRANCH  16  18
ATOM     17  C   LIG    1       -0.019   1.526   0.010  0.00  0.00    +0.040 C 
ATOM     18  C   LIG    1        0.002  -0.004   0.002  0.00  0.00    +0.160 C 
ENDBRANCH  16  18
ENDBRANCH   1  16
BRANCH   3  19
ATOM     19  C   LIG    1       -0.321  -4.282  -2.662  0.00  0.00    +0.200 C 
BRANCH  19  20
ATOM     20  O   LIG    1        1.062  -3.923  -2.692  0.00  0.00    -0.560 OA
ATOM     21  H   LIG    1        1.513  -4.164  -3.513  0.00  0.00    +0.390 HD
ENDBRANCH  19  20
ENDBRANCH   3  19
TORSDOF 7
ENDMDL
MODEL      903
REMARK  Name = ZINC000010334177
REMARK                            x       y       z     vdW  Elec       q    Type
REMARK                         _______ _______ _______ _____ _____    ______ ____
ROOT
ATOM      1  N   LIG    1        1.581  -1.046  -1.877  0.00  0.00    -1.010 NA
ATOM      2  C   LIG    1        2.276  -0.044  -2.698  0.00  0.00    +0.290 C 
ATOM      3  C   LIG    1        3.570   0.363  -1.986  0.00  0.00    +0.050 C 
ATOM      4  C   LIG    1        4.398  -0.889  -1.686  0.00  0.00    -0.010 C 
ATOM      5  C   LIG    1        3.608  -1.815  -0.758  0.00  0.00    +0.020 C 
ATOM      6  C   LIG    1        2.316  -2.244  -1.451  0.00  0.00    +0.290 C 
ENDROOT
BRANCH   4   7
ATOM      7  C   LIG    1        5.688  -0.489  -1.017  0.00  0.00    +0.520 C 
ATOM      8  O   LIG    1        5.922   0.681  -0.801  0.00  0.00    -0.540 OA
ATOM      9  N   LIG    1        6.581  -1.432  -0.658  0.00  0.00    -0.860 N 
ATOM     10  H   LIG    1        7.411  -1.175  -0.227  0.00  0.00    +0.400 HD
ATOM     11  H   LIG    1        6.394  -2.368  -0.830  0.00  0.00    +0.400 HD
ENDBRANCH   4   7
BRANCH   1  12
ATOM     12  S   LIG    1       -0.000  -0.824  -1.437  0.00  0.00    +2.790 S 
ATOM     13  O   LIG    1       -0.566   0.055  -2.399  0.00  0.00    -0.970 OA
ATOM     14  O   LIG    1       -0.525  -2.116  -1.161  0.00  0.00    -0.970 OA
BRANCH  12  16
ATOM     15  C   LIG    1       -0.018   1.461   0.010  0.00  0.00    +0.300 C 
ATOM     16  N   LIG    1        0.002  -0.004   0.002  0.00  0.00    -1.020 NA
ATOM     17  C   LIG    1        0.024  -0.743   1.267  0.00  0.00    +0.300 C 
ENDBRANCH  12  16
ENDBRANCH   1  12
TORSDOF 3
ENDMDL
MODEL      904
REMARK  Name = ZINC000036420710
REMARK                            x       y       z     vdW  Elec       q    Type
REMARK                         _______ _______ _______ _____ _____    ______ ____
ROOT
ATOM      1  C   LIG    1        0.846  -1.882  -1.225  0.00  0.00    +0.280 C 
ATOM      2  O   LIG    1        1.335  -2.117   0.105  0.00  0.00    -0.350 OA
ATOM      3  C   LIG    1        2.175  -3.290   0.045  0.00  0.00    +0.140 C 
ATOM      4  C   LIG    1        2.949  -3.112  -1.287  0.00  0.00    +0.130 C 
ATOM      5  C   LIG    1        1.874  -2.480  -2.204  0.00  0.00    +0.190 C 
ENDROOT
BRANCH   4   6
ATOM      6  O   LIG    1        3.380  -4.375  -1.799  0.00  0.00    -0.550 OA
ATOM      7  H   LIG    1        3.986  -4.850  -1.214  0.00  0.00    +0.390 HD
ENDBRANCH   4   6
BRANCH   5   8
ATOM      8  O   LIG    1        2.450  -1.455  -3.017  0.00  0.00    -0.530 OA
ATOM      9  H   LIG    1        3.145  -1.769  -3.611  0.00  0.00    +0.380 HD
ENDBRANCH   5   8
BRANCH   1  10
ATOM     10  O   LIG    1        0.716  -0.478  -1.454  0.00  0.00    -0.340 OA
BRANCH  10  12
ATOM     11  C   LIG    1       -0.071   1.698  -0.758  0.00  0.00    +0.040 C 
ATOM     12  C   LIG    1       -0.129   0.189  -0.514  0.00  0.00    +0.180 C 
ENDBRANCH  10  12
ENDBRANCH   1  10
BRANCH   3  13
ATOM     13  C   LIG    1        3.140  -3.325   1.232  0.00  0.00    +0.200 C 
BRANCH  13  14
ATOM     14  O   LIG    1        2.400  -3.504   2.441  0.00  0.00    -0.560 OA
ATOM     15  H   LIG    1        2.949  -3.535   3.237  0.00  0.00    +0.380 HD
ENDBRANCH  13  14
ENDBRANCH   3  13
BRANCH   1  16
ATOM     16  C   LIG    1       -0.510  -2.567  -1.412  0.00  0.00    +0.170 C 
BRANCH  16  17
ATOM     17  O   LIG    1       -1.408  -2.132  -0.389  0.00  0.00    -0.550 OA
ATOM     18  H   LIG    1       -2.289  -2.527  -0.446  0.00  0.00    +0.380 HD
ENDBRANCH  16  17
ENDBRANCH   1  16
TORSDOF 8
ENDMDL
MODEL      905
REMARK  Name = ZINC000022062448
REMARK                            x       y       z     vdW  Elec       q    Type
REMARK                         _______ _______ _______ _____ _____    ______ ____
ROOT
ATOM      1  C   LIG    1        0.473  -0.576   1.035  0.00  0.00    +0.320 C 
ATOM      2  O   LIG    1        1.798  -0.058   0.895  0.00  0.00    -0.380 OA
ATOM      3  C   LIG    1        2.674  -0.399   1.971  0.00  0.00    +0.150 C 
ATOM      4  C   LIG    1        2.816  -1.921   2.050  0.00  0.00    +0.120 C 
ATOM      5  C   LIG    1        1.429  -2.546   2.232  0.00  0.00    +0.180 C 
ATOM      6  C   LIG    1        0.526  -2.106   1.076  0.00  0.00    +0.250 C 
ENDROOT
BRANCH   6   7
ATOM      7  N   LIG    1        1.066  -2.612  -0.188  0.00  0.00    -0.690 N 
ATOM      8  H   LIG    1        1.685  -2.070  -0.703  0.00  0.00    +0.410 HD
ATOM      9  C   LIG    1        0.705  -3.831  -0.635  0.00  0.00    +0.520 C 
ATOM     10  O   LIG    1       -0.068  -4.508   0.009  0.00  0.00    -0.540 OA
ATOM     11  C   LIG    1        1.260  -4.352  -1.935  0.00  0.00    +0.080 C 
ENDBRANCH   6   7
BRANCH   1  13
ATOM     12  C   LIG    1       -0.530   1.256  -0.141  0.00  0.00    +0.220 C 
ATOM     13  O   LIG    1       -0.322  -0.157  -0.076  0.00  0.00    -0.360 OA
ENDBRANCH   1  13
BRANCH   5  14
ATOM     14  O   LIG    1        1.544  -3.971   2.236  0.00  0.00    -0.530 OA
ATOM     15  H   LIG    1        2.108  -4.318   2.940  0.00  0.00    +0.380 HD
ENDBRANCH   5  14
BRANCH   4  16
ATOM     16  O   LIG    1        3.406  -2.409   0.843  0.00  0.00    -0.530 OA
ATOM     17  H   LIG    1        4.285  -2.050   0.663  0.00  0.00    +0.370 HD
ENDBRANCH   4  16
BRANCH   3  18
ATOM     18  C   LIG    1        4.048   0.230   1.729  0.00  0.00    +0.210 C 
BRANCH  18  19
ATOM     19  O   LIG    1        3.934   1.654   1.770  0.00  0.00    -0.560 OA
ATOM     20  H   LIG    1        4.769   2.119   1.624  0.00  0.00    +0.390 HD
ENDBRANCH  18  19
ENDBRANCH   3  18
TORSDOF 6
ENDMDL
MODEL      906
REMARK  Name = ZINC000022062442
REMARK                            x       y       z     vdW  Elec       q    Type
REMARK                         _______ _______ _______ _____ _____    ______ ____
ROOT
ATOM      1  C   LIG    1        0.543  -0.575   1.065  0.00  0.00    +0.330 C 
ATOM      2  O   LIG    1        1.893  -0.116   0.958  0.00  0.00    -0.380 OA
ATOM      3  C   LIG    1        2.732  -0.516   2.043  0.00  0.00    +0.150 C 
ATOM      4  C   LIG    1        2.803  -2.045   2.094  0.00  0.00    +0.120 C 
ATOM      5  C   LIG    1        1.386  -2.609   2.239  0.00  0.00    +0.190 C 
ATOM      6  C   LIG    1        0.526  -2.106   1.076  0.00  0.00    +0.250 C 
ENDROOT
BRANCH   6   7
ATOM      7  N   LIG    1        1.066  -2.612  -0.188  0.00  0.00    -0.690 N 
ATOM      8  H   LIG    1        1.685  -2.070  -0.703  0.00  0.00    +0.410 HD
ATOM      9  C   LIG    1        0.705  -3.831  -0.635  0.00  0.00    +0.520 C 
ATOM     10  O   LIG    1       -0.068  -4.508   0.009  0.00  0.00    -0.560 OA
ATOM     11  C   LIG    1        1.260  -4.352  -1.935  0.00  0.00    +0.090 C 
ENDBRANCH   6   7
BRANCH   1  13
ATOM     12  C   LIG    1       -0.353   1.323  -0.093  0.00  0.00    +0.220 C 
ATOM     13  O   LIG    1       -0.211  -0.098  -0.051  0.00  0.00    -0.360 OA
ENDBRANCH   1  13
BRANCH   5  14
ATOM     14  O   LIG    1        0.822  -2.172   3.478  0.00  0.00    -0.550 OA
ATOM     15  H   LIG    1        1.321  -2.451   4.257  0.00  0.00    +0.390 HD
ENDBRANCH   5  14
BRANCH   4  16
ATOM     16  O   LIG    1        3.393  -2.536   0.889  0.00  0.00    -0.540 OA
ATOM     17  H   LIG    1        4.291  -2.215   0.731  0.00  0.00    +0.380 HD
ENDBRANCH   4  16
BRANCH   3  18
ATOM     18  C   LIG    1        4.138   0.053   1.838  0.00  0.00    +0.200 C 
BRANCH  18  19
ATOM     19  O   LIG    1        4.088   1.480   1.905  0.00  0.00    -0.560 OA
ATOM     20  H   LIG    1        4.946   1.909   1.784  0.00  0.00    +0.380 HD
ENDBRANCH  18  19
ENDBRANCH   3  18
TORSDOF 6
ENDMDL
MODEL      907
REMARK  Name = ZINC000005562860
REMARK                            x       y       z     vdW  Elec       q    Type
REMARK                         _______ _______ _______ _____ _____    ______ ____
ROOT
ATOM      1  C   LIG    1        0.686  -0.688   0.980  0.00  0.00    +0.430 C 
ATOM      2  N   LIG    1        1.334  -0.142   1.946  0.00  0.00    -0.580 NA
ATOM      3  C   LIG    1        2.003  -0.974   2.926  0.00  0.00    +0.230 C 
ATOM      4  C   LIG    1        1.470  -0.646   4.337  0.00  0.00    -0.270 C 
ATOM      5  S   LIG    1        1.551  -2.263   5.205  0.00  0.00    +2.390 S 
ATOM      6  C   LIG    1        1.141  -3.243   3.704  0.00  0.00    -0.270 C 
ATOM      7  O   LIG    1        0.492  -2.357   6.147  0.00  0.00    -0.920 OA
ATOM      8  O   LIG    1        2.889  -2.529   5.603  0.00  0.00    -0.920 OA
ATOM      9  C   LIG    1        1.829  -2.459   2.598  0.00  0.00    +0.060 C 
ATOM     10  S   LIG    1        0.798  -2.449   1.098  0.00  0.00    -0.150 S 
ENDROOT
BRANCH   1  11
ATOM     11  N   LIG    1        0.002  -0.004   0.002  0.00  0.00    -0.540 N 
ATOM     12  H   LIG    1       -0.467  -0.492  -0.693  0.00  0.00    +0.420 HD
BRANCH  11  13
ATOM     13  N   LIG    1       -0.016   1.362   0.009  0.00  0.00    -0.590 NA
ATOM     14  H   LIG    1       -0.555   1.720  -0.765  0.00  0.00    +0.360 HD
ATOM     15  H   LIG    1        0.920   1.736   0.003  0.00  0.00    +0.350 HD
ENDBRANCH  11  13
ENDBRANCH   1  11
TORSDOF 2
ENDMDL
MODEL      908
REMARK  Name = ZINC000015323916
REMARK                            x       y       z     vdW  Elec       q    Type
REMARK                         _______ _______ _______ _____ _____    ______ ____
ROOT
ATOM      1  C   LIG    1        1.682  -1.060  -1.906  0.00  0.00    -0.860 A 
ATOM      2  C   LIG    1        2.228  -0.314  -2.890  0.00  0.00    +0.510 A 
ATOM      3  N   LIG    1        3.536  -0.510  -3.242  0.00  0.00    -0.530 N 
ATOM      4  C   LIG    1        4.282  -1.438  -2.616  0.00  0.00    +0.690 A 
ATOM      5  N   LIG    1        3.763  -2.195  -1.631  0.00  0.00    -0.550 N 
ATOM      6  C   LIG    1        4.597  -3.198  -0.964  0.00  0.00    +0.350 C 
ATOM      7  O   LIG    1        5.442  -1.595  -2.944  0.00  0.00    -0.520 OA
ATOM      8  C   LIG    1        4.129   0.298  -4.310  0.00  0.00    +0.350 C 
ATOM      9  C   LIG    1        2.480  -2.029  -1.252  0.00  0.00    +0.590 A 
ATOM     10  O   LIG    1        2.009  -2.713  -0.360  0.00  0.00    -0.490 OA
ENDROOT
BRANCH   1  11
ATOM     11  S   LIG    1       -0.000  -0.824  -1.437  0.00  0.00    +2.720 S 
ATOM     12  O   LIG    1       -0.566   0.055  -2.399  0.00  0.00    -0.960 OA
ATOM     13  O   LIG    1       -0.525  -2.116  -1.161  0.00  0.00    -0.930 OA
BRANCH  11  15
ATOM     14  C   LIG    1       -0.018   1.461   0.010  0.00  0.00    +0.300 C 
ATOM     15  N   LIG    1        0.002  -0.004   0.002  0.00  0.00    -1.000 NA
ATOM     16  C   LIG    1        0.024  -0.743   1.267  0.00  0.00    +0.310 C 
ENDBRANCH  11  15
ENDBRANCH   1  11
TORSDOF 2
ENDMDL
MODEL      909
REMARK  Name = ZINC000072233436
REMARK                            x       y       z     vdW  Elec       q    Type
REMARK                         _______ _______ _______ _____ _____    ______ ____
ROOT
ATOM      1  N   LIG    1        1.304  -4.069   2.394  0.00  0.00    -0.400 N 
ATOM      2  N   LIG    1        0.314  -4.785   3.080  0.00  0.00    -0.080 NA
ATOM      3  N   LIG    1        0.504  -6.043   2.893  0.00  0.00    -0.170 NA
ATOM      4  C   LIG    1        1.581  -6.229   2.107  0.00  0.00    -0.190 A 
ATOM      5  C   LIG    1        2.094  -4.980   1.779  0.00  0.00    +0.430 A 
ENDROOT
BRANCH   4   6
ATOM      6  C   LIG    1        2.116  -7.523   1.668  0.00  0.00    +0.620 C 
ATOM      7  O   LIG    1        3.100  -7.564   0.954  0.00  0.00    -0.560 OA
ATOM      8  N   LIG    1        1.517  -8.667   2.056  0.00  0.00    -0.840 N 
ATOM      9  H   LIG    1        1.870  -9.522   1.766  0.00  0.00    +0.410 HD
ATOM     10  H   LIG    1        0.732  -8.634   2.625  0.00  0.00    +0.410 HD
ENDBRANCH   4   6
BRANCH   5  11
ATOM     11  N   LIG    1        3.196  -4.721   0.991  0.00  0.00    -0.810 N 
ATOM     12  H   LIG    1        3.469  -3.804   0.825  0.00  0.00    +0.410 HD
ATOM     13  H   LIG    1        3.698  -5.454   0.602  0.00  0.00    +0.430 HD
ENDBRANCH   5  11
BRANCH   1  14
ATOM     14  C   LIG    1        1.451  -2.612   2.345  0.00  0.00    +0.370 C 
BRANCH  14  20
ATOM     15  C   LIG    1       -0.018   1.465   0.010  0.00  0.00    +0.190 C 
ATOM     16  N   LIG    1        0.002  -0.004   0.002  0.00  0.00    -0.540 NA
ATOM     17  C   LIG    1        0.607  -0.516  -1.236  0.00  0.00    +0.160 C 
ATOM     18  C   LIG    1        0.553  -2.046  -1.230  0.00  0.00    +0.230 C 
ATOM     19  O   LIG    1        1.216  -2.536  -0.061  0.00  0.00    -0.380 OA
ATOM     20  C   LIG    1        0.652  -2.058   1.164  0.00  0.00    +0.150 C 
ATOM     21  C   LIG    1        0.707  -0.528   1.181  0.00  0.00    +0.170 C 
ENDBRANCH  14  20
ENDBRANCH   1  14
TORSDOF 4
ENDMDL
MODEL      910
REMARK  Name = ZINC000072233435
REMARK                            x       y       z     vdW  Elec       q    Type
REMARK                         _______ _______ _______ _____ _____    ______ ____
ROOT
ATOM      1  N   LIG    1        1.568  -4.064   2.238  0.00  0.00    -0.400 N 
ATOM      2  N   LIG    1        0.637  -5.037   2.627  0.00  0.00    -0.050 NA
ATOM      3  N   LIG    1        1.114  -6.201   2.361  0.00  0.00    -0.180 NA
ATOM      4  C   LIG    1        2.334  -6.077   1.804  0.00  0.00    -0.190 A 
ATOM      5  C   LIG    1        2.630  -4.722   1.717  0.00  0.00    +0.410 A 
ENDROOT
BRANCH   4   6
ATOM      6  C   LIG    1        3.197  -7.179   1.363  0.00  0.00    +0.620 C 
ATOM      7  O   LIG    1        4.285  -6.941   0.871  0.00  0.00    -0.560 OA
ATOM      8  N   LIG    1        2.785  -8.455   1.501  0.00  0.00    -0.840 N 
ATOM      9  H   LIG    1        3.356  -9.183   1.210  0.00  0.00    +0.410 HD
ATOM     10  H   LIG    1        1.919  -8.645   1.893  0.00  0.00    +0.410 HD
ENDBRANCH   4   6
BRANCH   5  11
ATOM     11  N   LIG    1        3.782  -4.160   1.207  0.00  0.00    -0.820 N 
ATOM     12  H   LIG    1        3.886  -3.195   1.194  0.00  0.00    +0.400 HD
ATOM     13  H   LIG    1        4.488  -4.728   0.862  0.00  0.00    +0.440 HD
ENDBRANCH   5  11
BRANCH   1  14
ATOM     14  C   LIG    1        1.417  -2.612   2.365  0.00  0.00    +0.360 C 
BRANCH  14  20
ATOM     15  C   LIG    1       -0.018   1.465   0.010  0.00  0.00    +0.190 C 
ATOM     16  N   LIG    1        0.002  -0.004   0.002  0.00  0.00    -0.540 NA
ATOM     17  C   LIG    1       -1.361  -0.549  -0.075  0.00  0.00    +0.150 C 
ATOM     18  C   LIG    1       -1.291  -2.077  -0.141  0.00  0.00    +0.220 C 
ATOM     19  O   LIG    1       -0.576  -2.566   0.997  0.00  0.00    -0.360 OA
ATOM     20  C   LIG    1        0.756  -2.056   1.102  0.00  0.00    +0.150 C 
ATOM     21  C   LIG    1        0.707  -0.528   1.181  0.00  0.00    +0.160 C 
ENDBRANCH  14  20
ENDBRANCH   1  14
TORSDOF 4
ENDMDL
MODEL      911
REMARK  Name = ZINC000257346033
REMARK                            x       y       z     vdW  Elec       q    Type
REMARK                         _______ _______ _______ _____ _____    ______ ____
ROOT
ATOM      1  C   LIG    1        0.633  -2.108   1.011  0.00  0.00    +0.200 C 
ATOM      2  O   LIG    1       -0.720  -2.557   1.108  0.00  0.00    -0.380 OA
ATOM      3  C   LIG    1       -0.875  -3.972   0.989  0.00  0.00    +0.310 C 
ATOM      4  C   LIG    1       -0.112  -4.665   2.121  0.00  0.00    +0.140 C 
ATOM      5  C   LIG    1        1.362  -4.252   2.060  0.00  0.00    +0.180 C 
ATOM      6  C   LIG    1        1.457  -2.725   2.143  0.00  0.00    +0.150 C 
ENDROOT
BRANCH   5   7
ATOM      7  O   LIG    1        2.068  -4.837   3.155  0.00  0.00    -0.550 OA
ATOM      8  H   LIG    1        2.044  -5.804   3.168  0.00  0.00    +0.390 HD
ENDBRANCH   5   7
BRANCH   4   9
ATOM      9  O   LIG    1       -0.219  -6.082   1.972  0.00  0.00    -0.560 OA
ATOM     10  H   LIG    1       -1.127  -6.413   1.996  0.00  0.00    +0.390 HD
ENDBRANCH   4   9
BRANCH   3  11
ATOM     11  O   LIG    1       -2.262  -4.309   1.073  0.00  0.00    -0.540 OA
ATOM     12  H   LIG    1       -2.807  -3.903   0.386  0.00  0.00    +0.400 HD
ENDBRANCH   3  11
BRANCH   6  13
ATOM     13  O   LIG    1        2.822  -2.324   2.016  0.00  0.00    -0.370 OA
ATOM     14  C   LIG    1        3.522  -2.241   3.259  0.00  0.00    +0.220 C 
ENDBRANCH   6  13
BRANCH   1  15
ATOM     15  C   LIG    1        0.673  -0.582   1.123  0.00  0.00    +0.210 C 
BRANCH  15  17
ATOM     16  C   LIG    1       -0.017   1.425   0.010  0.00  0.00    +0.200 C 
ATOM     17  O   LIG    1        0.002  -0.004   0.002  0.00  0.00    -0.380 OA
ENDBRANCH  15  17
ENDBRANCH   1  15
TORSDOF 6
ENDMDL
MODEL      912
REMARK  Name = ZINC000070643941
REMARK                            x       y       z     vdW  Elec       q    Type
REMARK                         _______ _______ _______ _____ _____    ______ ____
ROOT
ATOM      1  N   LIG    1        1.378  -4.163  -2.102  0.00  0.00    -0.690 N 
ATOM      2  H   LIG    1        0.891  -4.591  -1.381  0.00  0.00    +0.420 HD
ATOM      3  C   LIG    1        2.021  -4.913  -3.019  0.00  0.00    +0.510 C 
ATOM      4  O   LIG    1        2.630  -4.378  -3.922  0.00  0.00    -0.520 OA
ENDROOT
BRANCH   3   5
ATOM      5  C   LIG    1        1.983  -6.404  -2.925  0.00  0.00    +0.510 C 
ATOM      6  N   LIG    1        2.626  -7.154  -3.842  0.00  0.00    -0.670 N 
ATOM      7  H   LIG    1        3.113  -6.726  -4.563  0.00  0.00    +0.410 HD
ATOM      8  O   LIG    1        1.374  -6.939  -2.022  0.00  0.00    -0.510 OA
BRANCH   6   9
ATOM      9  C   LIG    1        2.589  -8.616  -3.749  0.00  0.00    +0.210 C 
ATOM     10  C   LIG    1        2.354  -9.400  -5.042  0.00  0.00    +0.020 C 
ATOM     11  C   LIG    1        3.739  -9.393  -4.391  0.00  0.00    +0.030 C 
ENDBRANCH   6   9
ENDBRANCH   3   5
BRANCH   1  12
ATOM     12  C   LIG    1        1.415  -2.701  -2.195  0.00  0.00    +0.260 C 
BRANCH  12  13
ATOM     13  C   LIG    1        0.613  -2.097  -1.041  0.00  0.00    +0.120 C 
ATOM     14  C   LIG    1        1.223  -2.539   0.291  0.00  0.00    +0.070 C 
BRANCH  13  15
ATOM     15  O   LIG    1       -0.742  -2.545  -1.117  0.00  0.00    -0.540 OA
ATOM     16  H   LIG    1       -1.192  -2.299  -1.937  0.00  0.00    +0.380 HD
ENDBRANCH  13  15
BRANCH  13  17
ATOM     17  C   LIG    1        0.652  -0.570  -1.138  0.00  0.00    +0.160 C 
BRANCH  17  19
ATOM     18  C   LIG    1       -0.017   1.425   0.010  0.00  0.00    +0.200 C 
ATOM     19  O   LIG    1        0.002  -0.004   0.002  0.00  0.00    -0.380 OA
ENDBRANCH  17  19
ENDBRANCH  13  17
ENDBRANCH  12  13
ENDBRANCH   1  12
TORSDOF 7
ENDMDL
MODEL      913
REMARK  Name = ZINC000065449409
REMARK                            x       y       z     vdW  Elec       q    Type
REMARK                         _______ _______ _______ _____ _____    ______ ____
ROOT
ATOM      1  N   LIG    1        1.590  -0.473  -0.016  0.00  0.00    -1.000 NA
ATOM      2  C   LIG    1        2.405  -0.703  -1.223  0.00  0.00    +0.280 C 
ATOM      3  C   LIG    1        3.869  -0.500  -0.758  0.00  0.00    +0.040 C 
ATOM      4  C   LIG    1        3.830  -1.109   0.668  0.00  0.00    +0.050 C 
ATOM      5  C   LIG    1        2.424  -0.722   1.170  0.00  0.00    +0.240 C 
ENDROOT
BRANCH   5   6
ATOM      6  C   LIG    1        1.837  -1.852   1.976  0.00  0.00    +0.500 C 
ATOM      7  N   LIG    1        2.450  -2.264   3.103  0.00  0.00    -0.700 N 
ATOM      8  H   LIG    1        3.268  -1.833   3.396  0.00  0.00    +0.400 HD
ATOM      9  O   LIG    1        0.814  -2.391   1.609  0.00  0.00    -0.500 OA
BRANCH   7  10
ATOM     10  C   LIG    1        1.879  -3.363   3.886  0.00  0.00    +0.220 C 
ATOM     11  C   LIG    1        2.842  -4.429   4.413  0.00  0.00    +0.010 C 
ATOM     12  C   LIG    1        2.219  -3.418   5.377  0.00  0.00    +0.010 C 
ENDBRANCH   7  10
ENDBRANCH   5   6
BRANCH   1  13
ATOM     13  S   LIG    1        0.002  -0.004   0.002  0.00  0.00    +2.810 S 
ATOM     14  O   LIG    1       -0.549  -0.406  -1.245  0.00  0.00    -0.980 OA
ATOM     15  O   LIG    1       -0.525  -0.419   1.255  0.00  0.00    -0.950 OA
BRANCH  13  16
ATOM     16  N   LIG    1       -0.020   1.652   0.011  0.00  0.00    -1.270 NA
ATOM     17  H   LIG    1       -0.867   2.125   0.018  0.00  0.00    +0.420 HD
ATOM     18  H   LIG    1        0.813   2.148   0.006  0.00  0.00    +0.410 HD
ENDBRANCH  13  16
ENDBRANCH   1  13
TORSDOF 4
ENDMDL
MODEL      914
REMARK  Name = ZINC000002083239
REMARK                            x       y       z     vdW  Elec       q    Type
REMARK                         _______ _______ _______ _____ _____    ______ ____
ROOT
ATOM      1  C   LIG    1        0.002  -0.004   0.002  0.00  0.00    +0.520 A 
ATOM      2  C   LIG    1       -1.195  -0.739   0.004  0.00  0.00    -0.110 A 
ATOM      3  N   LIG    1       -2.511  -0.417   0.012  0.00  0.00    -0.460 NA
ATOM      4  C   LIG    1       -3.224  -1.506   0.010  0.00  0.00    +0.490 A 
ATOM      5  N   LIG    1       -2.407  -2.597  -0.001  0.00  0.00    -0.490 N 
ATOM      6  C   LIG    1       -1.113  -2.142  -0.005  0.00  0.00    +0.270 A 
ATOM      7  N   LIG    1        0.085  -2.718  -0.015  0.00  0.00    -0.580 NA
ATOM      8  C   LIG    1        1.181  -1.989  -0.016  0.00  0.00    +0.580 A 
ATOM      9  N   LIG    1        1.153  -0.668  -0.013  0.00  0.00    -0.590 NA
ENDROOT
BRANCH   1  10
ATOM     10  N   LIG    1       -0.017   1.380   0.010  0.00  0.00    -0.810 N 
ATOM     11  H   LIG    1       -0.863   1.853   0.016  0.00  0.00    +0.420 HD
ATOM     12  H   LIG    1        0.817   1.876   0.004  0.00  0.00    +0.410 HD
ENDBRANCH   1  10
BRANCH   5  13
ATOM     13  C   LIG    1       -2.833  -3.999  -0.007  0.00  0.00    +0.380 C 
BRANCH  13  14
ATOM     14  CA  LIG    1       -2.853  -4.532   1.427  0.00  0.00    +0.080 C 
BRANCH  14  15
ATOM     15  N   LIG    1       -1.486  -4.544   1.964  0.00  0.00    -0.610 N 
ATOM     16  H1  LIG    1       -1.500  -4.896   2.910  0.00  0.00    +0.430 HD
ATOM     17  H2  LIG    1       -1.115  -3.606   1.960  0.00  0.00    +0.410 HD
ATOM     18  H3  LIG    1       -0.905  -5.138   1.393  0.00  0.00    +0.440 HD
ENDBRANCH  14  15
BRANCH  14  19
ATOM     19  C   LIG    1       -3.408  -5.934   1.434  0.00  0.00    +0.500 C 
ATOM     20  OXT LIG    1       -4.589  -6.123   1.200  0.00  0.00    -0.630 OA
ATOM     21  O   LIG    1       -2.675  -6.878   1.673  0.00  0.00    -0.660 OA
ENDBRANCH  14  19
ENDBRANCH  13  14
ENDBRANCH   5  13
TORSDOF 5
ENDMDL
MODEL      915
REMARK  Name = ZINC000238833301
REMARK                            x       y       z     vdW  Elec       q    Type
REMARK                         _______ _______ _______ _____ _____    ______ ____
ROOT
ATOM      1  N   LIG    1       -2.207  -2.036  -1.794  0.00  0.00    -0.350 N 
ATOM      2  C   LIG    1       -3.535  -2.251  -1.710  0.00  0.00    +0.310 A 
ATOM      3  C   LIG    1       -4.023  -2.214  -2.985  0.00  0.00    -0.110 A 
ATOM      4  N   LIG    1       -3.000  -1.980  -3.825  0.00  0.00    -0.200 NA
ATOM      5  N   LIG    1       -1.909  -1.863  -3.153  0.00  0.00    -0.050 NA
ENDROOT
BRANCH   1  10
ATOM      6  C   LIG    1       -1.295  -0.603   0.011  0.00  0.00    +0.140 C 
ATOM      7  C   LIG    1       -1.738  -0.913   1.458  0.00  0.00    +0.210 C 
ATOM      8  O   LIG    1       -2.446  -2.169   1.366  0.00  0.00    -0.360 OA
ATOM      9  C   LIG    1       -1.682  -2.970   0.439  0.00  0.00    +0.250 C 
ATOM     10  C   LIG    1       -1.258  -1.985  -0.678  0.00  0.00    +0.260 C 
BRANCH   6  12
ATOM     11  C   LIG    1       -0.017   1.425   0.010  0.00  0.00    +0.230 C 
ATOM     12  O   LIG    1        0.002  -0.004   0.002  0.00  0.00    -0.370 OA
ENDBRANCH   6  12
ENDBRANCH   1  10
BRANCH   3  13
ATOM     13  C   LIG    1       -5.434  -2.400  -3.375  0.00  0.00    +0.610 C 
ATOM     14  O   LIG    1       -6.277  -2.606  -2.523  0.00  0.00    -0.540 OA
ATOM     15  N   LIG    1       -5.788  -2.340  -4.674  0.00  0.00    -0.840 N 
ATOM     16  H   LIG    1       -6.715  -2.462  -4.930  0.00  0.00    +0.410 HD
ATOM     17  H   LIG    1       -5.115  -2.175  -5.353  0.00  0.00    +0.410 HD
ENDBRANCH   3  13
TORSDOF 3
ENDMDL
MODEL      916
REMARK  Name = ZINC000238833300
REMARK                            x       y       z     vdW  Elec       q    Type
REMARK                         _______ _______ _______ _____ _____    ______ ____
ROOT
ATOM      1  N   LIG    1        0.096  -2.292  -1.147  0.00  0.00    -0.340 N 
ATOM      2  C   LIG    1        1.111  -2.779  -0.406  0.00  0.00    +0.310 A 
ATOM      3  C   LIG    1        2.183  -2.913  -1.242  0.00  0.00    -0.110 A 
ATOM      4  N   LIG    1        1.815  -2.512  -2.471  0.00  0.00    -0.200 NA
ATOM      5  N   LIG    1        0.582  -2.142  -2.453  0.00  0.00    -0.050 NA
ENDROOT
BRANCH   1  10
ATOM      6  C   LIG    1       -1.295  -0.603   0.011  0.00  0.00    +0.140 C 
ATOM      7  C   LIG    1       -1.738  -0.913   1.458  0.00  0.00    +0.210 C 
ATOM      8  O   LIG    1       -2.446  -2.169   1.366  0.00  0.00    -0.350 OA
ATOM      9  C   LIG    1       -1.682  -2.970   0.439  0.00  0.00    +0.240 C 
ATOM     10  C   LIG    1       -1.258  -1.985  -0.678  0.00  0.00    +0.260 C 
BRANCH   6  12
ATOM     11  C   LIG    1       -0.017   1.425   0.010  0.00  0.00    +0.220 C 
ATOM     12  O   LIG    1        0.002  -0.004   0.002  0.00  0.00    -0.370 OA
ENDBRANCH   6  12
ENDBRANCH   1  10
BRANCH   3  13
ATOM     13  C   LIG    1        3.517  -3.414  -0.861  0.00  0.00    +0.610 C 
ATOM     14  O   LIG    1        3.735  -3.750   0.287  0.00  0.00    -0.540 OA
ATOM     15  N   LIG    1        4.494  -3.498  -1.786  0.00  0.00    -0.840 N 
ATOM     16  H   LIG    1        5.371  -3.828  -1.535  0.00  0.00    +0.410 HD
ATOM     17  H   LIG    1        4.320  -3.230  -2.701  0.00  0.00    +0.410 HD
ENDBRANCH   3  13
TORSDOF 3
ENDMDL
MODEL      917
REMARK  Name = ZINC000238833303
REMARK                            x       y       z     vdW  Elec       q    Type
REMARK                         _______ _______ _______ _____ _____    ______ ____
ROOT
ATOM      1  N   LIG    1        0.117  -2.304   1.124  0.00  0.00    -0.340 N 
ATOM      2  C   LIG    1        1.121  -2.773   0.356  0.00  0.00    +0.320 A 
ATOM      3  C   LIG    1        2.208  -2.919   1.172  0.00  0.00    -0.110 A 
ATOM      4  N   LIG    1        1.861  -2.543   2.414  0.00  0.00    -0.200 NA
ATOM      5  N   LIG    1        0.629  -2.167   2.422  0.00  0.00    -0.060 NA
ENDROOT
BRANCH   1  10
ATOM      6  C   LIG    1       -1.295  -0.603   0.011  0.00  0.00    +0.140 C 
ATOM      7  C   LIG    1       -1.766  -0.898  -1.430  0.00  0.00    +0.210 C 
ATOM      8  O   LIG    1       -1.392  -2.273  -1.667  0.00  0.00    -0.360 OA
ATOM      9  C   LIG    1       -1.690  -2.965  -0.434  0.00  0.00    +0.240 C 
ATOM     10  C   LIG    1       -1.245  -1.993   0.685  0.00  0.00    +0.260 C 
BRANCH   6  12
ATOM     11  C   LIG    1       -0.017   1.425   0.010  0.00  0.00    +0.220 C 
ATOM     12  O   LIG    1        0.002  -0.004   0.002  0.00  0.00    -0.370 OA
ENDBRANCH   6  12
ENDBRANCH   1  10
BRANCH   3  13
ATOM     13  C   LIG    1        3.537  -3.406   0.758  0.00  0.00    +0.610 C 
ATOM     14  O   LIG    1        3.737  -3.719  -0.400  0.00  0.00    -0.540 OA
ATOM     15  N   LIG    1        4.531  -3.505   1.664  0.00  0.00    -0.840 N 
ATOM     16  H   LIG    1        5.405  -3.825   1.392  0.00  0.00    +0.410 HD
ATOM     17  H   LIG    1        4.371  -3.255   2.587  0.00  0.00    +0.410 HD
ENDBRANCH   3  13
TORSDOF 3
ENDMDL
MODEL      918
REMARK  Name = ZINC000238833297
REMARK                            x       y       z     vdW  Elec       q    Type
REMARK                         _______ _______ _______ _____ _____    ______ ____
ROOT
ATOM      1  N   LIG    1       -2.172  -2.055   1.817  0.00  0.00    -0.350 N 
ATOM      2  C   LIG    1       -3.500  -2.280   1.758  0.00  0.00    +0.300 A 
ATOM      3  C   LIG    1       -3.964  -2.254   3.042  0.00  0.00    -0.100 A 
ATOM      4  N   LIG    1       -2.928  -2.016   3.864  0.00  0.00    -0.200 NA
ATOM      5  N   LIG    1       -1.848  -1.898   3.172  0.00  0.00    -0.050 NA
ENDROOT
BRANCH   1  10
ATOM      6  C   LIG    1       -1.295  -0.603   0.011  0.00  0.00    +0.140 C 
ATOM      7  C   LIG    1       -1.766  -0.898  -1.430  0.00  0.00    +0.210 C 
ATOM      8  O   LIG    1       -1.392  -2.273  -1.667  0.00  0.00    -0.350 OA
ATOM      9  C   LIG    1       -1.690  -2.965  -0.434  0.00  0.00    +0.240 C 
ATOM     10  C   LIG    1       -1.245  -1.993   0.685  0.00  0.00    +0.260 C 
BRANCH   6  12
ATOM     11  C   LIG    1       -0.017   1.425   0.010  0.00  0.00    +0.230 C 
ATOM     12  O   LIG    1        0.002  -0.004   0.002  0.00  0.00    -0.370 OA
ENDBRANCH   6  12
ENDBRANCH   1  10
BRANCH   3  13
ATOM     13  C   LIG    1       -5.366  -2.453   3.457  0.00  0.00    +0.610 C 
ATOM     14  O   LIG    1       -6.223  -2.663   2.621  0.00  0.00    -0.540 OA
ATOM     15  N   LIG    1       -5.696  -2.404   4.763  0.00  0.00    -0.840 N 
ATOM     16  H   LIG    1       -6.617  -2.535   5.035  0.00  0.00    +0.410 HD
ATOM     17  H   LIG    1       -5.012  -2.237   5.430  0.00  0.00    +0.410 HD
ENDBRANCH   3  13
TORSDOF 3
ENDMDL
MODEL      919
REMARK  Name = ZINC000019770871
REMARK                            x       y       z     vdW  Elec       q    Type
REMARK                         _______ _______ _______ _____ _____    ______ ____
ROOT
ATOM      1  N   LIG    1       -1.354  -2.644  -1.287  0.00  0.00    -0.550 NA
ATOM      2  C   LIG    1       -2.307  -1.730  -0.642  0.00  0.00    +0.190 C 
ATOM      3  C   LIG    1       -3.731  -2.253  -0.848  0.00  0.00    +0.190 C 
ATOM      4  N   LIG    1       -3.839  -3.605  -0.284  0.00  0.00    -0.560 NA
ATOM      5  C   LIG    1       -2.886  -4.520  -0.928  0.00  0.00    +0.190 C 
ATOM      6  C   LIG    1       -1.463  -3.997  -0.723  0.00  0.00    +0.190 C 
ENDROOT
BRANCH   1   7
ATOM      7  C   LIG    1        0.020  -2.136  -1.177  0.00  0.00    +0.440 C 
BRANCH   7  10
ATOM      8  C   LIG    1       -0.018   1.503   0.010  0.00  0.00    +0.110 C 
ATOM      9  C   LIG    1        0.002  -0.004   0.002  0.00  0.00    +0.510 C 
ATOM     10  N   LIG    1        0.000  -0.672  -1.169  0.00  0.00    -0.730 N 
ATOM     11  H   LIG    1       -0.015  -0.182  -2.006  0.00  0.00    +0.410 HD
ATOM     12  O   LIG    1        0.020  -0.616   1.049  0.00  0.00    -0.540 OA
ENDBRANCH   7  10
ENDBRANCH   1   7
BRANCH   4  13
ATOM     13  C   LIG    1       -5.213  -4.113  -0.394  0.00  0.00    +0.440 C 
BRANCH  13  14
ATOM     14  N   LIG    1       -5.446  -5.122   0.642  0.00  0.00    -0.720 N 
ATOM     15  H   LIG    1       -5.191  -6.045   0.487  0.00  0.00    +0.400 HD
ATOM     16  C   LIG    1       -6.013  -4.767   1.812  0.00  0.00    +0.520 C 
ATOM     17  O   LIG    1       -6.331  -3.613   2.007  0.00  0.00    -0.540 OA
ATOM     18  C   LIG    1       -6.252  -5.805   2.879  0.00  0.00    +0.090 C 
ENDBRANCH  13  14
ENDBRANCH   4  13
TORSDOF 4
ENDMDL
MODEL      920
REMARK  Name = ZINC000019831234
REMARK                            x       y       z     vdW  Elec       q    Type
REMARK                         _______ _______ _______ _____ _____    ______ ____
ROOT
ATOM      1  C   LIG    1       -1.136  -2.188   0.001  0.00  0.00    +0.510 C 
ATOM      2  N   LIG    1       -2.293  -2.878   0.009  0.00  0.00    -0.700 N 
ATOM      3  H   LIG    1       -3.140  -2.404   0.019  0.00  0.00    +0.410 HD
ATOM      4  O   LIG    1       -0.077  -2.780  -0.012  0.00  0.00    -0.520 OA
ENDROOT
BRANCH   1   8
ATOM      5  C   LIG    1       -0.018   1.461   0.010  0.00  0.00    +0.300 C 
ATOM      6  N   LIG    1        0.002  -0.004   0.002  0.00  0.00    -0.700 N 
ATOM      7  H   LIG    1        0.849  -0.478  -0.009  0.00  0.00    +0.420 HD
ATOM      8  C   LIG    1       -1.156  -0.694   0.009  0.00  0.00    +0.510 C 
ATOM      9  O   LIG    1       -2.215  -0.101   0.023  0.00  0.00    -0.520 OA
ENDBRANCH   1   8
BRANCH   2  10
ATOM     10  C   LIG    1       -2.274  -4.343   0.000  0.00  0.00    +0.280 C 
BRANCH  10  11
ATOM     11  C   LIG    1       -3.709  -4.872   0.011  0.00  0.00    +0.180 C 
BRANCH  11  12
ATOM     12  N   LIG    1       -3.689  -6.341   0.003  0.00  0.00    -0.530 NA
ATOM     13  C   LIG    1       -2.744  -6.850  -1.002  0.00  0.00    +0.150 C 
ATOM     14  C   LIG    1       -2.711  -8.379  -0.935  0.00  0.00    +0.220 C 
ATOM     15  O   LIG    1       -4.033  -8.888  -1.129  0.00  0.00    -0.380 OA
ATOM     16  C   LIG    1       -4.979  -8.414  -0.167  0.00  0.00    +0.220 C 
ATOM     17  C   LIG    1       -5.036  -6.885  -0.225  0.00  0.00    +0.160 C 
ENDBRANCH  11  12
ENDBRANCH  10  11
ENDBRANCH   2  10
TORSDOF 4
ENDMDL
MODEL      921
REMARK  Name = ZINC000225208891
REMARK                            x       y       z     vdW  Elec       q    Type
REMARK                         _______ _______ _______ _____ _____    ______ ____
ROOT
ATOM      1  C   LIG    1        1.237  -2.730  -2.134  0.00  0.00    +0.270 C 
ATOM      2  C   LIG    1        0.201  -2.997  -3.229  0.00  0.00    +0.340 C 
ATOM      3  O   LIG    1       -0.835  -3.832  -2.710  0.00  0.00    -0.390 OA
ATOM      4  C   LIG    1       -0.384  -5.114  -2.267  0.00  0.00    +0.150 C 
ATOM      5  C   LIG    1        0.628  -4.932  -1.132  0.00  0.00    +0.120 C 
ATOM      6  C   LIG    1        1.792  -4.066  -1.629  0.00  0.00    +0.180 C 
ENDROOT
BRANCH   1  11
ATOM      7  C   LIG    1        1.547   0.372   1.610  0.00  0.00    +0.300 C 
ATOM      8  N   LIG    1        0.752  -0.526   0.768  0.00  0.00    -0.750 N 
ATOM      9  H   LIG    1       -0.194  -0.645   0.946  0.00  0.00    +0.390 HD
ATOM     10  C   LIG    1        1.335  -1.186  -0.252  0.00  0.00    +0.710 C 
ATOM     11  N   LIG    1        0.603  -2.012  -1.025  0.00  0.00    -0.700 N 
ATOM     12  H   LIG    1       -0.343  -2.131  -0.848  0.00  0.00    +0.400 HD
ATOM     13  O   LIG    1        2.521  -1.037  -0.474  0.00  0.00    -0.590 OA
ENDBRANCH   1  11
BRANCH   5  14
ATOM     14  O   LIG    1       -0.006  -4.292  -0.024  0.00  0.00    -0.530 OA
ATOM     15  H   LIG    1       -0.755  -4.784   0.339  0.00  0.00    +0.370 HD
ENDBRANCH   5  14
BRANCH   2  16
ATOM     16  O   LIG    1       -0.360  -1.757  -3.667  0.00  0.00    -0.530 OA
ATOM     17  H   LIG    1       -1.026  -1.850  -4.362  0.00  0.00    +0.390 HD
ENDBRANCH   2  16
BRANCH   6  18
ATOM     18  O   LIG    1        2.706  -3.832  -0.556  0.00  0.00    -0.520 OA
ATOM     19  H   LIG    1        3.090  -4.638  -0.183  0.00  0.00    +0.370 HD
ENDBRANCH   6  18
BRANCH   4  20
ATOM     20  C   LIG    1       -1.577  -5.928  -1.761  0.00  0.00    +0.200 C 
BRANCH  20  21
ATOM     21  O   LIG    1       -2.466  -6.195  -2.847  0.00  0.00    -0.560 OA
ATOM     22  H   LIG    1       -3.247  -6.709  -2.599  0.00  0.00    +0.390 HD
ENDBRANCH  20  21
ENDBRANCH   4  20
TORSDOF 6
ENDMDL
MODEL      922
REMARK  Name = ZINC000003861768
REMARK                            x       y       z     vdW  Elec       q    Type
REMARK                         _______ _______ _______ _____ _____    ______ ____
ROOT
ATOM      1  C1* LIG    1        0.085  -4.133  -0.021  0.00  0.00    +0.430 C 
ATOM      2  O4* LIG    1        0.943  -4.629   1.028  0.00  0.00    -0.350 OA
ATOM      3  C4* LIG    1        1.327  -5.965   0.660  0.00  0.00    +0.150 C 
ATOM      4  C3* LIG    1        1.263  -6.052  -0.877  0.00  0.00    +0.140 C 
ATOM      5  C2* LIG    1        0.753  -4.657  -1.318  0.00  0.00    +0.170 C 
ENDROOT
BRANCH   1   9
ATOM      6  C   LIG    1        0.002  -0.004   0.002  0.00  0.00    +0.630 A 
ATOM      7  N   LIG    1       -1.139  -0.678   0.004  0.00  0.00    -0.630 NA
ATOM      8  C   LIG    1       -1.126  -2.014  -0.004  0.00  0.00    +0.660 A 
ATOM      9  N   LIG    1        0.054  -2.668  -0.013  0.00  0.00    -0.550 N 
ATOM     10  C   LIG    1        1.207  -1.963  -0.014  0.00  0.00    +0.660 A 
ATOM     11  O   LIG    1       -2.173  -2.638  -0.002  0.00  0.00    -0.520 OA
ATOM     12  N   LIG    1        1.174  -0.654  -0.013  0.00  0.00    -0.600 NA
BRANCH   6  13
ATOM     13  N   LIG    1       -0.017   1.368   0.010  0.00  0.00    -0.790 N 
ATOM     14  H   LIG    1       -0.863   1.842   0.016  0.00  0.00    +0.420 HD
ATOM     15  H   LIG    1        0.817   1.865   0.004  0.00  0.00    +0.420 HD
ENDBRANCH   6  13
ENDBRANCH   1   9
BRANCH   4  16
ATOM     16  O3* LIG    1        0.344  -7.070  -1.282  0.00  0.00    -0.540 OA
ATOM     17  H3* LIG    1        0.584  -7.958  -0.983  0.00  0.00    +0.390 HD
ENDBRANCH   4  16
BRANCH   5  18
ATOM     18  O2* LIG    1       -0.198  -4.772  -2.378  0.00  0.00    -0.530 OA
ATOM     19  H2* LIG    1        0.155  -5.179  -3.181  0.00  0.00    +0.390 HD
ENDBRANCH   5  18
BRANCH   3  20
ATOM     20  C5* LIG    1        2.752  -6.248   1.141  0.00  0.00    +0.210 C 
BRANCH  20  21
ATOM     21  O5* LIG    1        2.777  -6.264   2.570  0.00  0.00    -0.560 OA
ATOM     22  H5* LIG    1        3.651  -6.438   2.946  0.00  0.00    +0.390 HD
ENDBRANCH  20  21
ENDBRANCH   3  20
TORSDOF 6
ENDMDL
MODEL      923
REMARK  Name = ZINC000019831235
REMARK                            x       y       z     vdW  Elec       q    Type
REMARK                         _______ _______ _______ _____ _____    ______ ____
ROOT
ATOM      1  C   LIG    1       -3.453  -1.160  -1.134  0.00  0.00    +0.510 C 
ATOM      2  N   LIG    1       -4.131  -1.292  -2.291  0.00  0.00    -0.700 N 
ATOM      3  H   LIG    1       -3.710  -1.050  -3.131  0.00  0.00    +0.410 HD
ATOM      4  O   LIG    1       -3.981  -1.462  -0.084  0.00  0.00    -0.520 OA
ENDROOT
BRANCH   1   7
ATOM      5  N   LIG    1       -1.372  -0.511   0.012  0.00  0.00    -0.700 N 
ATOM      6  H   LIG    1       -1.794  -0.752   0.852  0.00  0.00    +0.410 HD
ATOM      7  C   LIG    1       -2.051  -0.643  -1.145  0.00  0.00    +0.510 C 
ATOM      8  O   LIG    1       -1.523  -0.341  -2.195  0.00  0.00    -0.520 OA
BRANCH   5  10
ATOM      9  C   LIG    1       -0.019   1.526   0.010  0.00  0.00    +0.020 C 
ATOM     10  C   LIG    1        0.002  -0.004   0.002  0.00  0.00    +0.220 C 
ATOM     11  C   LIG    1        0.742  -0.511   1.242  0.00  0.00    +0.040 C 
ENDBRANCH   5  10
ENDBRANCH   1   7
BRANCH   2  12
ATOM     12  C   LIG    1       -5.506  -1.799  -2.281  0.00  0.00    +0.280 C 
BRANCH  12  13
ATOM     13  C   LIG    1       -6.042  -1.849  -3.713  0.00  0.00    +0.180 C 
BRANCH  13  14
ATOM     14  N   LIG    1       -7.420  -2.358  -3.703  0.00  0.00    -0.530 NA
ATOM     15  C   LIG    1       -7.535  -3.551  -2.851  0.00  0.00    +0.150 C 
ATOM     16  C   LIG    1       -8.995  -4.011  -2.821  0.00  0.00    +0.220 C 
ATOM     17  O   LIG    1       -9.440  -4.255  -4.158  0.00  0.00    -0.380 OA
ATOM     18  C   LIG    1       -9.342  -3.115  -5.015  0.00  0.00    +0.220 C 
ATOM     19  C   LIG    1       -7.886  -2.645  -5.067  0.00  0.00    +0.160 C 
ENDBRANCH  13  14
ENDBRANCH  12  13
ENDBRANCH   2  12
TORSDOF 5
ENDMDL
MODEL      924
REMARK  Name = ZINC000019831310
REMARK                            x       y       z     vdW  Elec       q    Type
REMARK                         _______ _______ _______ _____ _____    ______ ____
ROOT
ATOM      1  C   LIG    1       -2.551  -4.183   0.004  0.00  0.00    +0.510 C 
ATOM      2  N   LIG    1       -3.709  -4.872   0.011  0.00  0.00    -0.700 N 
ATOM      3  H   LIG    1       -4.556  -4.399   0.022  0.00  0.00    +0.410 HD
ATOM      4  O   LIG    1       -1.492  -4.775  -0.009  0.00  0.00    -0.520 OA
ENDROOT
BRANCH   1   7
ATOM      5  N   LIG    1       -1.413  -1.998   0.005  0.00  0.00    -0.700 N 
ATOM      6  H   LIG    1       -0.567  -2.472  -0.006  0.00  0.00    +0.410 HD
ATOM      7  C   LIG    1       -2.571  -2.688   0.012  0.00  0.00    +0.510 C 
ATOM      8  O   LIG    1       -3.630  -2.096   0.025  0.00  0.00    -0.520 OA
BRANCH   5   9
ATOM      9  C   LIG    1       -1.433  -0.534   0.013  0.00  0.00    +0.260 C 
BRANCH   9  11
ATOM     10  C   LIG    1       -0.019   1.526   0.010  0.00  0.00    +0.030 C 
ATOM     11  C   LIG    1        0.002  -0.004   0.002  0.00  0.00    +0.000 C 
ENDBRANCH   9  11
ENDBRANCH   5   9
ENDBRANCH   1   7
BRANCH   2  12
ATOM     12  C   LIG    1       -3.689  -6.337   0.003  0.00  0.00    +0.280 C 
BRANCH  12  13
ATOM     13  C   LIG    1       -5.125  -6.867   0.014  0.00  0.00    +0.180 C 
BRANCH  13  14
ATOM     14  N   LIG    1       -5.105  -8.335   0.006  0.00  0.00    -0.530 NA
ATOM     15  C   LIG    1       -4.160  -8.844  -0.999  0.00  0.00    +0.150 C 
ATOM     16  C   LIG    1       -4.127 -10.373  -0.933  0.00  0.00    +0.220 C 
ATOM     17  O   LIG    1       -5.449 -10.883  -1.126  0.00  0.00    -0.380 OA
ATOM     18  C   LIG    1       -6.395 -10.408  -0.164  0.00  0.00    +0.220 C 
ATOM     19  C   LIG    1       -6.451  -8.879  -0.222  0.00  0.00    +0.160 C 
ENDBRANCH  13  14
ENDBRANCH  12  13
ENDBRANCH   2  12
TORSDOF 6
ENDMDL
MODEL      925
REMARK  Name = ZINC000019831241
REMARK                            x       y       z     vdW  Elec       q    Type
REMARK                         _______ _______ _______ _____ _____    ______ ____
ROOT
ATOM      1  O   LIG    1        0.002  -0.004   0.002  0.00  0.00    -0.520 OA
ATOM      2  C   LIG    1       -0.014   1.209   0.009  0.00  0.00    +0.510 C 
ATOM      3  N   LIG    1        1.143   1.899   0.001  0.00  0.00    -0.700 N 
ATOM      4  H   LIG    1        1.130   2.869   0.007  0.00  0.00    +0.410 HD
ENDROOT
BRANCH   2   5
ATOM      5  C   LIG    1       -1.319   1.939   0.019  0.00  0.00    +0.510 C 
ATOM      6  N   LIG    1       -2.477   1.249   0.021  0.00  0.00    -0.670 N 
ATOM      7  H   LIG    1       -2.463   0.279   0.015  0.00  0.00    +0.410 HD
ATOM      8  O   LIG    1       -1.335   3.152   0.025  0.00  0.00    -0.520 OA
BRANCH   6   9
ATOM      9  C   LIG    1       -3.755   1.964   0.030  0.00  0.00    +0.210 C 
ATOM     10  C   LIG    1       -4.856   1.457  -0.903  0.00  0.00    +0.020 C 
ATOM     11  C   LIG    1       -4.969   1.233   0.606  0.00  0.00    +0.030 C 
ENDBRANCH   6   9
ENDBRANCH   2   5
BRANCH   3  12
ATOM     12  C   LIG    1        2.422   1.184  -0.015  0.00  0.00    +0.280 C 
BRANCH  12  13
ATOM     13  C   LIG    1        3.571   2.194  -0.020  0.00  0.00    +0.180 C 
BRANCH  13  14
ATOM     14  N   LIG    1        4.853   1.477  -0.036  0.00  0.00    -0.530 NA
ATOM     15  C   LIG    1        4.860   0.388   0.951  0.00  0.00    +0.150 C 
ATOM     16  C   LIG    1        6.188  -0.369   0.859  0.00  0.00    +0.220 C 
ATOM     17  O   LIG    1        7.268   0.548   1.057  0.00  0.00    -0.380 OA
ATOM     18  C   LIG    1        7.292   1.621   0.112  0.00  0.00    +0.220 C 
ATOM     19  C   LIG    1        5.975   2.398   0.196  0.00  0.00    +0.160 C 
ENDBRANCH  13  14
ENDBRANCH  12  13
ENDBRANCH   3  12
TORSDOF 5
ENDMDL
MODEL      926
REMARK  Name = ZINC000021983574
REMARK                            x       y       z     vdW  Elec       q    Type
REMARK                         _______ _______ _______ _____ _____    ______ ____
ROOT
ATOM      1  C   LIG    1       -0.004   1.458   0.266  0.00  0.00    +0.080 C 
ATOM      2  C   LIG    1        0.028  -0.068   0.164  0.00  0.00    +0.100 C 
ATOM      3  O   LIG    1        0.708  -0.477  -1.043  0.00  0.00    -0.330 OA
ATOM      4  C   LIG    1        1.116  -1.842  -0.806  0.00  0.00    +0.470 C 
ATOM      5  C   LIG    1        1.602  -1.860   0.660  0.00  0.00    +0.180 C 
ATOM      6  C   LIG    1        0.868  -0.666   1.315  0.00  0.00    +0.120 C 
ENDROOT
BRANCH   4   7
ATOM      7  N   LIG    1       -0.020  -2.751  -0.980  0.00  0.00    -0.540 N 
ATOM      8  C   LIG    1       -1.249  -2.246  -1.316  0.00  0.00    +0.320 A 
ATOM      9  C   LIG    1       -2.295  -3.084  -1.477  0.00  0.00    -0.060 A 
ATOM     10  C   LIG    1       -2.097  -4.476  -1.294  0.00  0.00    +0.540 A 
ATOM     11  N   LIG    1       -0.872  -4.932  -0.963  0.00  0.00    -0.650 N 
ATOM     12  H   LIG    1       -0.730  -5.883  -0.835  0.00  0.00    +0.440 HD
ATOM     13  O   LIG    1       -3.025  -5.252  -1.433  0.00  0.00    -0.480 OA
ATOM     14  F   LIG    1       -3.514  -2.604  -1.809  0.00  0.00    -0.100 F 
ATOM     15  C   LIG    1        0.154  -4.075  -0.814  0.00  0.00    +0.700 A 
ATOM     16  O   LIG    1        1.253  -4.502  -0.516  0.00  0.00    -0.520 OA
ENDBRANCH   4   7
BRANCH   5  17
ATOM     17  O   LIG    1        3.018  -1.677   0.721  0.00  0.00    -0.530 OA
ATOM     18  H   LIG    1        3.377  -1.680   1.618  0.00  0.00    +0.390 HD
ENDBRANCH   5  17
BRANCH   6  19
ATOM     19  O   LIG    1        1.808   0.294   1.802  0.00  0.00    -0.540 OA
ATOM     20  H   LIG    1        1.401   1.064   2.223  0.00  0.00    +0.380 HD
ENDBRANCH   6  19
TORSDOF 3
ENDMDL
MODEL      927
REMARK  Name = ZINC000000203991
REMARK                            x       y       z     vdW  Elec       q    Type
REMARK                         _______ _______ _______ _____ _____    ______ ____
ROOT
ATOM      1  N   LIG    1        0.688  -0.476  -1.203  0.00  0.00    -0.620 N 
ATOM      2  C   LIG    1        0.142  -1.247  -2.153  0.00  0.00    +0.700 C 
ATOM      3  N   LIG    1        0.976  -1.544  -3.157  0.00  0.00    -0.740 N 
ATOM      4  H   LIG    1        0.754  -2.090  -3.928  0.00  0.00    +0.430 HD
ATOM      5  C   LIG    1        2.281  -0.916  -2.908  0.00  0.00    +0.470 C 
ATOM      6  N   LIG    1        3.280  -1.952  -2.612  0.00  0.00    -0.740 N 
ATOM      7  H   LIG    1        3.632  -2.591  -3.251  0.00  0.00    +0.430 HD
ATOM      8  C   LIG    1        3.629  -1.876  -1.321  0.00  0.00    +0.710 C 
ATOM      9  N   LIG    1        3.000  -0.907  -0.645  0.00  0.00    -0.740 N 
ATOM     10  H   LIG    1        3.127  -0.706   0.295  0.00  0.00    +0.430 HD
ATOM     11  O   LIG    1        4.443  -2.620  -0.810  0.00  0.00    -0.570 OA
ATOM     12  O   LIG    1       -1.007  -1.641  -2.107  0.00  0.00    -0.570 OA
ATOM     13  C   LIG    1        2.080  -0.174  -1.563  0.00  0.00    +0.480 C 
ENDROOT
BRANCH   1  15
ATOM     14  C   LIG    1       -0.019   1.526   0.010  0.00  0.00    +0.040 C 
ATOM     15  C   LIG    1        0.002  -0.004   0.002  0.00  0.00    +0.200 C 
ATOM     16  C   LIG    1        0.742  -0.511   1.242  0.00  0.00    +0.040 C 
BRANCH  15  17
ATOM     17  C   LIG    1       -1.433  -0.534   0.013  0.00  0.00    +0.210 C 
BRANCH  17  18
ATOM     18  O   LIG    1       -2.102  -0.073   1.189  0.00  0.00    -0.580 OA
ATOM     19  H   LIG    1       -3.019  -0.371   1.262  0.00  0.00    +0.390 HD
ENDBRANCH  17  18
ENDBRANCH  15  17
ENDBRANCH   1  15
TORSDOF 3
ENDMDL
MODEL      928
REMARK  Name = ZINC000000110369
REMARK                            x       y       z     vdW  Elec       q    Type
REMARK                         _______ _______ _______ _____ _____    ______ ____
ROOT
ATOM      1  C   LIG    1       -0.018   1.461   0.010  0.00  0.00    +0.350 C 
ATOM      2  N   LIG    1        0.002  -0.004   0.002  0.00  0.00    -0.450 N 
ATOM      3  C   LIG    1        0.009  -0.809  -1.093  0.00  0.00    +0.560 A 
ATOM      4  N   LIG    1        0.027  -2.070  -0.710  0.00  0.00    -0.540 NA
ATOM      5  C   LIG    1        0.034  -2.140   0.622  0.00  0.00    +0.360 A 
ATOM      6  N   LIG    1        0.051  -3.192   1.524  0.00  0.00    -0.510 N 
ATOM      7  C   LIG    1        0.061  -4.574   1.037  0.00  0.00    +0.350 C 
ATOM      8  C   LIG    1        0.049  -2.946   2.848  0.00  0.00    +0.710 A 
ATOM      9  O   LIG    1        0.059  -3.881   3.625  0.00  0.00    -0.540 OA
ATOM     10  N   LIG    1        0.040  -1.691   3.331  0.00  0.00    -0.550 N 
ATOM     11  C   LIG    1        0.043  -1.477   4.780  0.00  0.00    +0.350 C 
ATOM     12  C   LIG    1        0.027  -0.627   2.502  0.00  0.00    +0.600 A 
ATOM     13  O   LIG    1        0.019   0.505   2.953  0.00  0.00    -0.520 OA
ATOM     14  C   LIG    1        0.024  -0.838   1.112  0.00  0.00    -0.180 A 
ENDROOT
BRANCH   3  15
ATOM     15  N   LIG    1       -0.003  -0.375  -2.399  0.00  0.00    -0.820 N 
ATOM     16  H   LIG    1        0.003  -1.020  -3.124  0.00  0.00    +0.430 HD
ATOM     17  H   LIG    1       -0.016   0.575  -2.594  0.00  0.00    +0.420 HD
ENDBRANCH   3  15
TORSDOF 1
ENDMDL
MODEL      929
REMARK  Name = ZINC000002561107
REMARK                            x       y       z     vdW  Elec       q    Type
REMARK                         _______ _______ _______ _____ _____    ______ ____
ROOT
ATOM      1  C   SER A  1        0.030   0.979   2.437  0.00  0.00    +0.500 C 
ATOM      2  N   GLY A  2       -0.150   1.589   3.626  0.00  0.00    -0.680 N 
ATOM      3  H   GLY A  2       -0.749   2.349   3.695  0.00  0.00    +0.420 HD
ATOM      4  O   SER A  1        0.778   0.029   2.350  0.00  0.00    -0.520 OA
ENDROOT
BRANCH   1   5
ATOM      5  CA  SER A  1       -0.699   1.479   1.216  0.00  0.00    +0.190 C 
BRANCH   5   6
ATOM      6  N   SER A  1       -0.012   1.005   0.008  0.00  0.00    -0.620 N 
ATOM      7  H1  SER A  1       -0.500   1.339  -0.810  0.00  0.00    +0.450 HD
ATOM      8  H2  SER A  1        0.935   1.354   0.000  0.00  0.00    +0.440 HD
ATOM      9  H3  SER A  1        0.002  -0.004   0.002  0.00  0.00    +0.440 HD
ENDBRANCH   5   6
BRANCH   5  10
ATOM     10  CB  SER A  1       -2.135   0.949   1.227  0.00  0.00    +0.240 C 
BRANCH  10  11
ATOM     11  OG  SER A  1       -2.859   1.515   0.133  0.00  0.00    -0.580 OA
ATOM     12  H   SER A  1       -3.780   1.223   0.078  0.00  0.00    +0.410 HD
ENDBRANCH  10  11
ENDBRANCH   5  10
ENDBRANCH   1   5
BRANCH   2  13
ATOM     13  CA  GLY A  2        0.558   1.103   4.812  0.00  0.00    +0.310 C 
BRANCH  13  14
ATOM     14  C   GLY A  2        0.185   1.951   6.002  0.00  0.00    +0.490 C 
ATOM     15  N   GLY A  3        0.719   1.688   7.211  0.00  0.00    -0.680 N 
ATOM     16  H   GLY A  3        1.344   0.953   7.316  0.00  0.00    +0.410 HD
ATOM     17  O   GLY A  2       -0.596   2.869   5.871  0.00  0.00    -0.560 OA
BRANCH  15  18
ATOM     18  CA  GLY A  3        0.356   2.511   8.367  0.00  0.00    +0.190 C 
BRANCH  18  19
ATOM     19  C   GLY A  3        1.085   2.012   9.588  0.00  0.00    +0.490 C 
ATOM     20  OXT GLY A  3        0.922   2.563  10.663  0.00  0.00    -0.680 OA
ATOM     21  O   GLY A  3        1.838   1.057   9.500  0.00  0.00    -0.690 OA
ENDBRANCH  18  19
ENDBRANCH  15  18
ENDBRANCH  13  14
ENDBRANCH   2  13
TORSDOF 8
ENDMDL
MODEL      930
REMARK  Name = ZINC000253389828
REMARK                            x       y       z     vdW  Elec       q    Type
REMARK                         _______ _______ _______ _____ _____    ______ ____
ROOT
ATOM      1  C   LIG    1        1.237  -2.730  -2.134  0.00  0.00    +0.280 C 
ATOM      2  C   LIG    1        0.235  -2.887  -3.281  0.00  0.00    +0.320 C 
ATOM      3  O   LIG    1       -0.875  -3.670  -2.838  0.00  0.00    -0.390 OA
ATOM      4  C   LIG    1       -0.528  -4.994  -2.427  0.00  0.00    +0.150 C 
ATOM      5  C   LIG    1        0.443  -4.921  -1.245  0.00  0.00    +0.120 C 
ATOM      6  C   LIG    1        1.681  -4.117  -1.659  0.00  0.00    +0.190 C 
ENDROOT
BRANCH   1  11
ATOM      7  C   LIG    1       -0.018   1.461   0.010  0.00  0.00    +0.300 C 
ATOM      8  N   LIG    1        0.002  -0.004   0.002  0.00  0.00    -0.750 N 
ATOM      9  H   LIG    1       -0.404  -0.499   0.731  0.00  0.00    +0.390 HD
ATOM     10  C   LIG    1        0.585  -0.664  -1.018  0.00  0.00    +0.710 C 
ATOM     11  N   LIG    1        0.603  -2.012  -1.025  0.00  0.00    -0.720 N 
ATOM     12  H   LIG    1        0.197  -2.507  -0.297  0.00  0.00    +0.390 HD
ATOM     13  O   LIG    1        1.095  -0.045  -1.931  0.00  0.00    -0.570 OA
ENDBRANCH   1  11
BRANCH   5  14
ATOM     14  O   LIG    1        0.835  -6.243  -0.868  0.00  0.00    -0.550 OA
ATOM     15  H   LIG    1        0.100  -6.809  -0.598  0.00  0.00    +0.390 HD
ENDBRANCH   5  14
BRANCH   2  16
ATOM     16  O   LIG    1       -0.224  -1.598  -3.692  0.00  0.00    -0.510 OA
ATOM     17  H   LIG    1       -0.863  -1.621  -4.418  0.00  0.00    +0.380 HD
ENDBRANCH   2  16
BRANCH   6  18
ATOM     18  O   LIG    1        2.560  -3.984  -0.540  0.00  0.00    -0.550 OA
ATOM     19  H   LIG    1        2.874  -4.827  -0.184  0.00  0.00    +0.390 HD
ENDBRANCH   6  18
BRANCH   4  20
ATOM     20  C   LIG    1       -1.793  -5.744  -2.003  0.00  0.00    +0.200 C 
BRANCH  20  21
ATOM     21  O   LIG    1       -2.649  -5.912  -3.135  0.00  0.00    -0.560 OA
ATOM     22  H   LIG    1       -3.471  -6.381  -2.939  0.00  0.00    +0.390 HD
ENDBRANCH  20  21
ENDBRANCH   4  20
TORSDOF 6
ENDMDL
MODEL      931
REMARK  Name = ZINC000002487386
REMARK                            x       y       z     vdW  Elec       q    Type
REMARK                         _______ _______ _______ _____ _____    ______ ____
ROOT
ATOM      1  N   LIG    1       -2.762  -4.053   0.007  0.00  0.00    -0.640 N 
ATOM      2  C   LIG    1       -2.798  -4.874  -1.085  0.00  0.00    +0.730 C 
ATOM      3  N   LIG    1       -3.179  -6.154  -0.754  0.00  0.00    -0.720 N 
ATOM      4  H   LIG    1       -3.071  -6.964  -1.277  0.00  0.00    +0.430 HD
ATOM      5  C   LIG    1       -3.760  -6.014   0.518  0.00  0.00    +0.390 C 
ATOM      6  N   LIG    1       -4.148  -6.740   1.652  0.00  0.00    -0.720 N 
ATOM      7  H   LIG    1       -4.306  -7.695   1.719  0.00  0.00    +0.430 HD
ATOM      8  C   LIG    1       -4.253  -5.801   2.646  0.00  0.00    +0.730 C 
ATOM      9  N   LIG    1       -3.675  -4.614   2.296  0.00  0.00    -0.740 N 
ATOM     10  H   LIG    1       -3.810  -3.749   2.714  0.00  0.00    +0.430 HD
ATOM     11  O   LIG    1       -4.798  -6.001   3.715  0.00  0.00    -0.530 OA
ATOM     12  O   LIG    1       -2.526  -4.516  -2.215  0.00  0.00    -0.530 OA
ATOM     13  C   LIG    1       -2.785  -4.945   1.168  0.00  0.00    +0.420 C 
ENDROOT
BRANCH   1  14
ATOM     14  C   LIG    1       -2.705  -2.589   0.014  0.00  0.00    +0.350 C 
BRANCH  14  15
ATOM     15  C   LIG    1       -1.244  -2.135   0.003  0.00  0.00    +0.090 C 
BRANCH  15  16
ATOM     16  C   LIG    1       -1.185  -0.630   0.010  0.00  0.00    +0.470 C 
ATOM     17  O   LIG    1       -2.208   0.015   0.023  0.00  0.00    -0.510 OA
BRANCH  16  19
ATOM     18  C   LIG    1       -0.018   1.448   0.010  0.00  0.00    +0.260 C 
ATOM     19  O   LIG    1        0.002  -0.004   0.002  0.00  0.00    -0.360 OA
ENDBRANCH  16  19
ENDBRANCH  15  16
ENDBRANCH  14  15
ENDBRANCH   1  14
TORSDOF 4
ENDMDL
MODEL      932
REMARK  Name = ZINC000002487389
REMARK                            x       y       z     vdW  Elec       q    Type
REMARK                         _______ _______ _______ _____ _____    ______ ____
ROOT
ATOM      1  N   LIG    1       -2.762  -4.053   0.007  0.00  0.00    -0.630 N 
ATOM      2  C   LIG    1       -2.796  -4.821  -1.089  0.00  0.00    +0.700 C 
ATOM      3  N   LIG    1       -2.846  -6.134  -0.832  0.00  0.00    -0.740 N 
ATOM      4  H   LIG    1       -2.877  -6.836  -1.501  0.00  0.00    +0.430 HD
ATOM      5  C   LIG    1       -2.848  -6.345   0.623  0.00  0.00    +0.480 C 
ATOM      6  N   LIG    1       -1.576  -6.955   1.035  0.00  0.00    -0.740 N 
ATOM      7  H   LIG    1       -1.298  -7.862   0.834  0.00  0.00    +0.440 HD
ATOM      8  C   LIG    1       -0.862  -6.062   1.732  0.00  0.00    +0.710 C 
ATOM      9  N   LIG    1       -1.465  -4.875   1.874  0.00  0.00    -0.740 N 
ATOM     10  H   LIG    1       -1.097  -4.112   2.347  0.00  0.00    +0.430 HD
ATOM     11  O   LIG    1        0.236  -6.307   2.193  0.00  0.00    -0.570 OA
ATOM     12  O   LIG    1       -2.784  -4.367  -2.217  0.00  0.00    -0.560 OA
ATOM     13  C   LIG    1       -2.783  -4.909   1.201  0.00  0.00    +0.480 C 
ENDROOT
BRANCH   1  14
ATOM     14  C   LIG    1       -2.705  -2.589   0.014  0.00  0.00    +0.360 C 
BRANCH  14  15
ATOM     15  C   LIG    1       -1.244  -2.135   0.003  0.00  0.00    +0.090 C 
BRANCH  15  16
ATOM     16  C   LIG    1       -1.185  -0.630   0.010  0.00  0.00    +0.470 C 
ATOM     17  O   LIG    1       -2.208   0.015   0.023  0.00  0.00    -0.510 OA
BRANCH  16  19
ATOM     18  C   LIG    1       -0.018   1.448   0.010  0.00  0.00    +0.270 C 
ATOM     19  O   LIG    1        0.002  -0.004   0.002  0.00  0.00    -0.360 OA
ENDBRANCH  16  19
ENDBRANCH  15  16
ENDBRANCH  14  15
ENDBRANCH   1  14
TORSDOF 4
ENDMDL
MODEL      933
REMARK  Name = ZINC000002482508
REMARK                            x       y       z     vdW  Elec       q    Type
REMARK                         _______ _______ _______ _____ _____    ______ ____
ROOT
ATOM      1  C   LIG    1       -2.551  -4.183   0.004  0.00  0.00    +0.510 C 
ATOM      2  N   LIG    1       -3.709  -4.872   0.011  0.00  0.00    -0.690 N 
ATOM      3  H   LIG    1       -4.556  -4.399   0.022  0.00  0.00    +0.420 HD
ATOM      4  O   LIG    1       -1.492  -4.775  -0.009  0.00  0.00    -0.520 OA
ENDROOT
BRANCH   1   7
ATOM      5  N   LIG    1       -1.413  -1.998   0.005  0.00  0.00    -0.690 N 
ATOM      6  H   LIG    1       -0.567  -2.472  -0.006  0.00  0.00    +0.420 HD
ATOM      7  C   LIG    1       -2.571  -2.688   0.012  0.00  0.00    +0.510 C 
ATOM      8  O   LIG    1       -3.630  -2.096   0.025  0.00  0.00    -0.520 OA
BRANCH   5   9
ATOM      9  C   LIG    1       -1.433  -0.534   0.013  0.00  0.00    +0.240 C 
BRANCH   9  11
ATOM     10  C   LIG    1       -0.019   1.526   0.010  0.00  0.00    +0.020 C 
ATOM     11  C   LIG    1        0.002  -0.004   0.002  0.00  0.00    +0.200 C 
BRANCH  11  12
ATOM     12  O   LIG    1        0.693  -0.477   1.160  0.00  0.00    -0.560 OA
ATOM     13  H   LIG    1        0.294  -0.202   1.996  0.00  0.00    +0.380 HD
ENDBRANCH  11  12
ENDBRANCH   9  11
ENDBRANCH   5   9
ENDBRANCH   1   7
BRANCH   2  14
ATOM     14  C   LIG    1       -3.689  -6.337   0.003  0.00  0.00    +0.290 C 
BRANCH  14  15
ATOM     15  C   LIG    1       -5.125  -6.867   0.014  0.00  0.00    +0.150 C 
ATOM     16  C   LIG    1       -5.126  -8.416   0.041  0.00  0.00    +0.020 C 
ATOM     17  C   LIG    1       -6.511  -8.698   0.683  0.00  0.00    +0.010 C 
ATOM     18  C   LIG    1       -6.664  -7.517   1.666  0.00  0.00    +0.190 C 
ATOM     19  O   LIG    1       -5.794  -6.468   1.221  0.00  0.00    -0.380 OA
ENDBRANCH  14  15
ENDBRANCH   2  14
TORSDOF 6
ENDMDL
MODEL      934
REMARK  Name = ZINC000002482509
REMARK                            x       y       z     vdW  Elec       q    Type
REMARK                         _______ _______ _______ _____ _____    ______ ____
ROOT
ATOM      1  C   LIG    1        1.113  -4.109  -2.426  0.00  0.00    +0.510 C 
ATOM      2  N   LIG    1        1.677  -4.768  -3.457  0.00  0.00    -0.690 N 
ATOM      3  H   LIG    1        2.139  -4.276  -4.154  0.00  0.00    +0.420 HD
ATOM      4  O   LIG    1        0.535  -4.725  -1.555  0.00  0.00    -0.520 OA
ENDROOT
BRANCH   1   7
ATOM      5  N   LIG    1        0.634  -1.958  -1.325  0.00  0.00    -0.700 N 
ATOM      6  H   LIG    1        0.172  -2.451  -0.629  0.00  0.00    +0.420 HD
ATOM      7  C   LIG    1        1.198  -2.618  -2.356  0.00  0.00    +0.510 C 
ATOM      8  O   LIG    1        1.776  -2.002  -3.228  0.00  0.00    -0.520 OA
BRANCH   5   9
ATOM      9  C   LIG    1        0.718  -0.497  -1.257  0.00  0.00    +0.240 C 
BRANCH   9  11
ATOM     10  C   LIG    1       -0.019   1.526   0.010  0.00  0.00    +0.020 C 
ATOM     11  C   LIG    1        0.002  -0.004   0.002  0.00  0.00    +0.200 C 
BRANCH  11  12
ATOM     12  O   LIG    1        0.693  -0.477   1.160  0.00  0.00    -0.560 OA
ATOM     13  H   LIG    1        1.611  -0.180   1.219  0.00  0.00    +0.380 HD
ENDBRANCH  11  12
ENDBRANCH   9  11
ENDBRANCH   5   9
ENDBRANCH   1   7
BRANCH   2  14
ATOM     14  C   LIG    1        1.593  -6.229  -3.526  0.00  0.00    +0.280 C 
BRANCH  14  15
ATOM     15  C   LIG    1        2.309  -6.723  -4.785  0.00  0.00    +0.160 C 
ATOM     16  C   LIG    1        2.123  -8.248  -4.930  0.00  0.00    +0.020 C 
ATOM     17  C   LIG    1        3.517  -8.704  -5.440  0.00  0.00    +0.010 C 
ATOM     18  C   LIG    1        4.442  -7.705  -4.699  0.00  0.00    +0.200 C 
ATOM     19  O   LIG    1        3.714  -6.465  -4.677  0.00  0.00    -0.380 OA
ENDBRANCH  14  15
ENDBRANCH   2  14
TORSDOF 6
ENDMDL
MODEL      935
REMARK  Name = ZINC000002487390
REMARK                            x       y       z     vdW  Elec       q    Type
REMARK                         _______ _______ _______ _____ _____    ______ ____
ROOT
ATOM      1  N   LIG    1       -2.762  -4.053   0.007  0.00  0.00    -0.640 N 
ATOM      2  C   LIG    1       -2.798  -4.874  -1.085  0.00  0.00    +0.730 C 
ATOM      3  N   LIG    1       -2.515  -6.180  -0.757  0.00  0.00    -0.720 N 
ATOM      4  H   LIG    1       -2.689  -6.979  -1.278  0.00  0.00    +0.430 HD
ATOM      5  C   LIG    1       -1.913  -6.085   0.509  0.00  0.00    +0.380 C 
ATOM      6  N   LIG    1       -1.572  -6.839   1.640  0.00  0.00    -0.720 N 
ATOM      7  H   LIG    1       -1.487  -7.803   1.706  0.00  0.00    +0.430 HD
ATOM      8  C   LIG    1       -1.386  -5.911   2.634  0.00  0.00    +0.730 C 
ATOM      9  N   LIG    1       -1.874  -4.683   2.288  0.00  0.00    -0.740 N 
ATOM     10  H   LIG    1       -1.670  -3.832   2.704  0.00  0.00    +0.430 HD
ATOM     11  O   LIG    1       -0.849  -6.153   3.697  0.00  0.00    -0.530 OA
ATOM     12  O   LIG    1       -3.051  -4.495  -2.213  0.00  0.00    -0.530 OA
ATOM     13  C   LIG    1       -2.785  -4.945   1.168  0.00  0.00    +0.420 C 
ENDROOT
BRANCH   1  14
ATOM     14  C   LIG    1       -2.705  -2.589   0.014  0.00  0.00    +0.360 C 
BRANCH  14  15
ATOM     15  C   LIG    1       -1.244  -2.135   0.003  0.00  0.00    +0.080 C 
BRANCH  15  16
ATOM     16  C   LIG    1       -1.185  -0.630   0.010  0.00  0.00    +0.470 C 
ATOM     17  O   LIG    1       -2.208   0.015   0.023  0.00  0.00    -0.500 OA
BRANCH  16  19
ATOM     18  C   LIG    1       -0.018   1.448   0.010  0.00  0.00    +0.270 C 
ATOM     19  O   LIG    1        0.002  -0.004   0.002  0.00  0.00    -0.360 OA
ENDBRANCH  16  19
ENDBRANCH  15  16
ENDBRANCH  14  15
ENDBRANCH   1  14
TORSDOF 4
ENDMDL
MODEL      936
REMARK  Name = ZINC000005662796
REMARK                            x       y       z     vdW  Elec       q    Type
REMARK                         _______ _______ _______ _____ _____    ______ ____
ROOT
ATOM      1  O   LIG    1        1.322   2.020   0.000  0.00  0.00    -0.380 OA
ENDROOT
BRANCH   1   2
ATOM      2  C   LIG    1       -0.019   1.526   0.010  0.00  0.00    +0.190 C 
BRANCH   2   3
ATOM      3  C   LIG    1        0.002  -0.004   0.002  0.00  0.00    +0.200 C 
BRANCH   3   4
ATOM      4  C   LIG    1       -1.412  -0.526   0.013  0.00  0.00    +0.170 A 
ATOM      5  N   LIG    1       -2.136  -0.796   1.071  0.00  0.00    -0.290 NA
ATOM      6  N   LIG    1       -3.285  -1.219   0.668  0.00  0.00    -0.230 N 
ATOM      7  H   LIG    1       -4.017  -1.491   1.242  0.00  0.00    +0.480 HD
ATOM      8  N   LIG    1       -3.304  -1.222  -0.620  0.00  0.00    -0.050 NA
ATOM      9  N   LIG    1       -2.167  -0.794  -1.053  0.00  0.00    -0.270 NA
ENDBRANCH   3   4
ENDBRANCH   2   3
ENDBRANCH   1   2
BRANCH   1  10
ATOM     10  C   LIG    1        1.415   3.446   0.007  0.00  0.00    +0.190 C 
BRANCH  10  11
ATOM     11  C   LIG    1        2.888   3.861  -0.005  0.00  0.00    +0.200 C 
BRANCH  11  12
ATOM     12  C   LIG    1        2.987   5.365   0.002  0.00  0.00    +0.170 A 
ATOM     13  N   LIG    1        3.022   6.149  -1.046  0.00  0.00    -0.290 NA
ATOM     14  N   LIG    1        3.108   7.366  -0.629  0.00  0.00    -0.230 N 
ATOM     15  H   LIG    1        3.152   8.153  -1.194  0.00  0.00    +0.480 HD
ATOM     16  N   LIG    1        3.128   7.369   0.659  0.00  0.00    -0.050 NA
ATOM     17  N   LIG    1        3.049   6.151   1.077  0.00  0.00    -0.270 NA
ENDBRANCH  11  12
ENDBRANCH  10  11
ENDBRANCH   1  10
TORSDOF 6
ENDMDL
MODEL      937
REMARK  Name = ZINC000002487387
REMARK                            x       y       z     vdW  Elec       q    Type
REMARK                         _______ _______ _______ _____ _____    ______ ____
ROOT
ATOM      1  N   LIG    1       -2.762  -4.053   0.007  0.00  0.00    -0.630 N 
ATOM      2  C   LIG    1       -2.796  -4.821  -1.089  0.00  0.00    +0.700 C 
ATOM      3  N   LIG    1       -2.846  -6.134  -0.832  0.00  0.00    -0.740 N 
ATOM      4  H   LIG    1       -2.877  -6.836  -1.501  0.00  0.00    +0.430 HD
ATOM      5  C   LIG    1       -2.848  -6.345   0.623  0.00  0.00    +0.470 C 
ATOM      6  N   LIG    1       -4.160  -6.855   1.046  0.00  0.00    -0.740 N 
ATOM      7  H   LIG    1       -4.509  -7.738   0.848  0.00  0.00    +0.440 HD
ATOM      8  C   LIG    1       -4.797  -5.910   1.749  0.00  0.00    +0.710 C 
ATOM      9  N   LIG    1       -4.102  -4.773   1.885  0.00  0.00    -0.740 N 
ATOM     10  H   LIG    1       -4.406  -3.984   2.361  0.00  0.00    +0.430 HD
ATOM     11  O   LIG    1       -5.906  -6.069   2.221  0.00  0.00    -0.570 OA
ATOM     12  O   LIG    1       -2.784  -4.367  -2.217  0.00  0.00    -0.560 OA
ATOM     13  C   LIG    1       -2.783  -4.909   1.201  0.00  0.00    +0.480 C 
ENDROOT
BRANCH   1  14
ATOM     14  C   LIG    1       -2.705  -2.589   0.014  0.00  0.00    +0.350 C 
BRANCH  14  15
ATOM     15  C   LIG    1       -1.244  -2.135   0.003  0.00  0.00    +0.090 C 
BRANCH  15  16
ATOM     16  C   LIG    1       -1.185  -0.630   0.010  0.00  0.00    +0.470 C 
ATOM     17  O   LIG    1       -2.208   0.015   0.023  0.00  0.00    -0.510 OA
BRANCH  16  19
ATOM     18  C   LIG    1       -0.018   1.448   0.010  0.00  0.00    +0.260 C 
ATOM     19  O   LIG    1        0.002  -0.004   0.002  0.00  0.00    -0.360 OA
ENDBRANCH  16  19
ENDBRANCH  15  16
ENDBRANCH  14  15
ENDBRANCH   1  14
TORSDOF 4
ENDMDL
MODEL      938
REMARK  Name = ZINC000002482511
REMARK                            x       y       z     vdW  Elec       q    Type
REMARK                         _______ _______ _______ _____ _____    ______ ____
ROOT
ATOM      1  C   LIG    1       -2.551  -4.183   0.004  0.00  0.00    +0.510 C 
ATOM      2  N   LIG    1       -3.709  -4.872   0.011  0.00  0.00    -0.690 N 
ATOM      3  H   LIG    1       -4.556  -4.399   0.022  0.00  0.00    +0.420 HD
ATOM      4  O   LIG    1       -1.492  -4.775  -0.009  0.00  0.00    -0.520 OA
ENDROOT
BRANCH   1   7
ATOM      5  N   LIG    1       -1.413  -1.998   0.005  0.00  0.00    -0.700 N 
ATOM      6  H   LIG    1       -0.567  -2.472  -0.006  0.00  0.00    +0.420 HD
ATOM      7  C   LIG    1       -2.571  -2.688   0.012  0.00  0.00    +0.510 C 
ATOM      8  O   LIG    1       -3.630  -2.096   0.025  0.00  0.00    -0.520 OA
BRANCH   5   9
ATOM      9  C   LIG    1       -1.433  -0.534   0.013  0.00  0.00    +0.240 C 
BRANCH   9  11
ATOM     10  C   LIG    1       -0.019   1.526   0.010  0.00  0.00    +0.020 C 
ATOM     11  C   LIG    1        0.002  -0.004   0.002  0.00  0.00    +0.200 C 
BRANCH  11  12
ATOM     12  O   LIG    1        0.693  -0.477   1.160  0.00  0.00    -0.560 OA
ATOM     13  H   LIG    1        0.294  -0.202   1.996  0.00  0.00    +0.380 HD
ENDBRANCH  11  12
ENDBRANCH   9  11
ENDBRANCH   5   9
ENDBRANCH   1   7
BRANCH   2  14
ATOM     14  C   LIG    1       -3.689  -6.337   0.003  0.00  0.00    +0.280 C 
BRANCH  14  15
ATOM     15  C   LIG    1       -5.125  -6.867   0.014  0.00  0.00    +0.160 C 
ATOM     16  C   LIG    1       -5.114  -8.406   0.128  0.00  0.00    +0.020 C 
ATOM     17  C   LIG    1       -6.270  -8.815  -0.826  0.00  0.00    +0.010 C 
ATOM     18  C   LIG    1       -6.150  -7.723  -1.919  0.00  0.00    +0.200 C 
ATOM     19  O   LIG    1       -5.777  -6.526  -1.214  0.00  0.00    -0.380 OA
ENDBRANCH  14  15
ENDBRANCH   2  14
TORSDOF 6
ENDMDL
MODEL      939
REMARK  Name = ZINC000006521407
REMARK                            x       y       z     vdW  Elec       q    Type
REMARK                         _______ _______ _______ _____ _____    ______ ____
ROOT
ATOM      1  C   LIG    1       -0.018   1.503   0.010  0.00  0.00    +0.130 C 
ATOM      2  C   LIG    1        0.002  -0.004   0.002  0.00  0.00    -0.250 A 
ATOM      3  C   LIG    1       -1.153  -0.704   0.004  0.00  0.00    +0.340 A 
ATOM      4  N   LIG    1       -1.116  -2.072  -0.004  0.00  0.00    -0.530 N 
ATOM      5  C   LIG    1        0.060  -2.726  -0.013  0.00  0.00    +0.690 A 
ATOM      6  N   LIG    1        1.226  -2.053  -0.016  0.00  0.00    -0.660 N 
ATOM      7  H   LIG    1        2.064  -2.540  -0.023  0.00  0.00    +0.430 HD
ATOM      8  O   LIG    1        0.069  -3.942  -0.020  0.00  0.00    -0.500 OA
ATOM      9  C   LIG    1        1.232  -0.705  -0.013  0.00  0.00    +0.550 A 
ATOM     10  O   LIG    1        2.287  -0.095  -0.016  0.00  0.00    -0.510 OA
ENDROOT
BRANCH   4  11
ATOM     11  C   LIG    1       -2.369  -2.831  -0.002  0.00  0.00    +0.450 C 
ATOM     12  O   LIG    1       -2.362  -3.810   1.060  0.00  0.00    -0.340 OA
ATOM     13  C   LIG    1       -3.352  -4.790   0.681  0.00  0.00    +0.200 C 
ATOM     14  C   LIG    1       -3.160  -4.977  -0.841  0.00  0.00    +0.130 C 
ATOM     15  O   LIG    1       -1.827  -4.959  -1.356  0.00  0.00    -0.280 OA
ATOM     16  C   LIG    1       -2.499  -3.656  -1.301  0.00  0.00    +0.100 C 
BRANCH  13  17
ATOM     17  C   LIG    1       -3.106  -6.108   1.417  0.00  0.00    +0.210 C 
BRANCH  17  18
ATOM     18  O   LIG    1       -3.332  -5.922   2.816  0.00  0.00    -0.570 OA
ATOM     19  H   LIG    1       -3.194  -6.719   3.346  0.00  0.00    +0.390 HD
ENDBRANCH  17  18
ENDBRANCH  13  17
ENDBRANCH   4  11
TORSDOF 3
ENDMDL
MODEL      940
REMARK  Name = ZINC000049732560
REMARK                            x       y       z     vdW  Elec       q    Type
REMARK                         _______ _______ _______ _____ _____    ______ ____
ROOT
ATOM      1  O   LIG    1        0.002  -0.004   0.002  0.00  0.00    -0.530 OA
ATOM      2  C   LIG    1       -0.014   1.211   0.009  0.00  0.00    +0.710 C 
ATOM      3  N   LIG    1       -1.137   1.940   0.029  0.00  0.00    -0.680 N 
ATOM      4  H   LIG    1       -2.031   1.564   0.040  0.00  0.00    +0.440 HD
ATOM      5  C   LIG    1       -0.870   3.262   0.033  0.00  0.00    +0.540 C 
ATOM      6  C   LIG    1        0.638   3.373   0.011  0.00  0.00    +0.100 C 
ATOM      7  C   LIG    1        1.097   4.090  -1.251  0.00  0.00    +0.110 C 
ATOM      8  C   LIG    1        2.611   3.938  -1.420  0.00  0.00    -0.330 C 
ATOM      9  S   LIG    1        3.445   4.744  -0.022  0.00  0.00    +2.420 S 
ATOM     10  C   LIG    1        2.652   3.923   1.390  0.00  0.00    -0.320 C 
ATOM     11  O   LIG    1        3.088   6.120  -0.011  0.00  0.00    -0.920 OA
ATOM     12  O   LIG    1        4.820   4.383  -0.044  0.00  0.00    -0.930 OA
ATOM     13  C   LIG    1        1.133   4.077   1.267  0.00  0.00    +0.110 C 
ATOM     14  O   LIG    1       -1.672   4.172   0.050  0.00  0.00    -0.450 OA
ATOM     15  N   LIG    1        1.094   1.975   0.002  0.00  0.00    -0.720 N 
ATOM     16  H   LIG    1        2.013   1.664  -0.011  0.00  0.00    +0.440 HD
ENDROOT
TORSDOF 0
ENDMDL
MODEL      941
REMARK  Name = ZINC000002505891
REMARK                            x       y       z     vdW  Elec       q    Type
REMARK                         _______ _______ _______ _____ _____    ______ ____
ROOT
ATOM      1  N   LIG    1        2.061  -0.131  -1.376  0.00  0.00    -0.460 N 
ATOM      2  H1  LIG    1        2.222  -0.887  -0.728  0.00  0.00    +0.410 HD
ATOM      3  H2  LIG    1        2.550   0.693  -1.059  0.00  0.00    +0.440 HD
ENDROOT
BRANCH   1   4
ATOM      4  C   LIG    1        2.555  -0.512  -2.706  0.00  0.00    +0.230 C 
ATOM      5  C   LIG    1        2.407  -2.037  -2.876  0.00  0.00    -0.300 C 
ATOM      6  S   LIG    1        3.866  -2.478  -3.903  0.00  0.00    +2.400 S 
ATOM      7  C   LIG    1        4.963  -1.225  -3.125  0.00  0.00    -0.310 C 
ATOM      8  O   LIG    1        3.624  -2.131  -5.259  0.00  0.00    -0.900 OA
ATOM      9  O   LIG    1        4.314  -3.785  -3.567  0.00  0.00    -0.910 OA
ATOM     10  C   LIG    1        4.002  -0.055  -2.845  0.00  0.00    +0.230 C 
BRANCH  10  11
ATOM     11  O   LIG    1        4.400   0.593  -1.636  0.00  0.00    -0.570 OA
ATOM     12  H   LIG    1        5.289   0.973  -1.667  0.00  0.00    +0.410 HD
ENDBRANCH  10  11
ENDBRANCH   1   4
BRANCH   1  13
ATOM     13  CA  LIG    1        0.622   0.153  -1.451  0.00  0.00    +0.080 C 
BRANCH  13  14
ATOM     14  C   LIG    1        0.392   1.352  -2.335  0.00  0.00    +0.490 C 
ATOM     15  OXT LIG    1        1.342   1.959  -2.799  0.00  0.00    -0.670 OA
ATOM     16  O   LIG    1       -0.745   1.714  -2.587  0.00  0.00    -0.630 OA
ENDBRANCH  13  14
BRANCH  13  18
ATOM     17  C   LIG    1       -0.030  -2.224  -1.047  0.00  0.00    +0.020 C 
ATOM     18  C   LIG    1       -0.107  -1.059  -2.035  0.00  0.00    +0.050 C 
ENDBRANCH  13  18
ENDBRANCH   1  13
TORSDOF 5
ENDMDL
MODEL      942
REMARK  Name = ZINC000045885116
REMARK                            x       y       z     vdW  Elec       q    Type
REMARK                         _______ _______ _______ _____ _____    ______ ____
ROOT
ATOM      1  C   LIG    1        0.603  -0.549  -1.268  0.00  0.00    +0.520 C 
ATOM      2  N   LIG    1        1.900  -0.321  -1.552  0.00  0.00    -0.610 N 
ATOM      3  C   LIG    1        2.489  -0.740  -2.835  0.00  0.00    +0.300 C 
ATOM      4  C   LIG    1        2.982   0.511  -3.565  0.00  0.00    +0.260 C 
ATOM      5  N   LIG    1        3.740   1.370  -2.665  0.00  0.00    -0.720 N 
ATOM      6  H   LIG    1        4.362   2.001  -3.060  0.00  0.00    +0.410 HD
ATOM      7  C   LIG    1        3.639   1.349  -1.335  0.00  0.00    +0.510 C 
ATOM      8  O   LIG    1        4.264   2.168  -0.695  0.00  0.00    -0.540 OA
ATOM      9  C   LIG    1        2.784   0.362  -0.596  0.00  0.00    +0.330 C 
ATOM     10  O   LIG    1       -0.084  -1.184  -2.040  0.00  0.00    -0.510 OA
ENDROOT
BRANCH   1  12
ATOM     11  C   LIG    1       -0.649   1.339  -0.262  0.00  0.00    +0.100 C 
ATOM     12  C   LIG    1        0.006  -0.016   0.009  0.00  0.00    +0.270 C 
BRANCH  12  13
ATOM     13  N   LIG    1       -1.003  -0.956   0.506  0.00  0.00    -0.370 N 
ATOM     14  C   LIG    1       -2.294  -1.022   0.136  0.00  0.00    +0.500 A 
ATOM     15  N   LIG    1       -2.859  -1.992   0.807  0.00  0.00    -0.540 NA
ATOM     16  C   LIG    1       -1.965  -2.567   1.611  0.00  0.00    +0.430 A 
ATOM     17  N   LIG    1       -0.812  -1.970   1.458  0.00  0.00    -0.320 NA
ENDBRANCH  12  13
ENDBRANCH   1  12
TORSDOF 2
ENDMDL
MODEL      943
REMARK  Name = ZINC000408147783
REMARK                            x       y       z     vdW  Elec       q    Type
REMARK                         _______ _______ _______ _____ _____    ______ ____
ROOT
ATOM      1  O   LIG    1       -0.006   0.018   0.261  0.00  0.00    -0.510 OA
ATOM      2  C   LIG    1       -0.015   1.211   0.042  0.00  0.00    +0.520 C 
ATOM      3  N   LIG    1       -1.184   1.849  -0.169  0.00  0.00    -0.740 N 
ATOM      4  H   LIG    1       -1.191   2.803  -0.344  0.00  0.00    +0.400 HD
ENDROOT
BRANCH   3   5
ATOM      5  C   LIG    1       -2.443   1.100  -0.135  0.00  0.00    +0.260 C 
BRANCH   5   6
ATOM      6  C   LIG    1       -3.610   2.053  -0.404  0.00  0.00    +0.090 C 
ATOM      7  C   LIG    1       -4.942   1.272  -0.469  0.00  0.00    +0.050 C 
ATOM      8  C   LIG    1       -5.457   1.528  -1.903  0.00  0.00    +0.210 C 
ATOM      9  O   LIG    1       -4.831   2.767  -2.304  0.00  0.00    -0.360 OA
ATOM     10  C   LIG    1       -3.478   2.688  -1.805  0.00  0.00    +0.190 C 
BRANCH   6  11
ATOM     11  O   LIG    1       -3.669   3.066   0.602  0.00  0.00    -0.540 OA
ATOM     12  H   LIG    1       -2.869   3.606   0.664  0.00  0.00    +0.380 HD
ENDBRANCH   6  11
ENDBRANCH   5   6
ENDBRANCH   3   5
BRANCH   2  13
ATOM     13  C   LIG    1        1.280   1.980   0.001  0.00  0.00    +0.220 C 
BRANCH  13  14
ATOM     14  N   LIG    1        2.408   1.044   0.105  0.00  0.00    -0.520 NA
ATOM     15  C   LIG    1        3.674   1.765   0.306  0.00  0.00    +0.160 C 
ATOM     16  C   LIG    1        4.811   0.753   0.470  0.00  0.00    +0.220 C 
ATOM     17  O   LIG    1        4.850  -0.101  -0.676  0.00  0.00    -0.390 OA
ATOM     18  C   LIG    1        3.634  -0.819  -0.902  0.00  0.00    +0.230 C 
ATOM     19  C   LIG    1        2.485   0.177  -1.079  0.00  0.00    +0.150 C 
ENDBRANCH  13  14
ENDBRANCH   2  13
TORSDOF 5
ENDMDL
MODEL      944
REMARK  Name = ZINC000408147784
REMARK                            x       y       z     vdW  Elec       q    Type
REMARK                         _______ _______ _______ _____ _____    ______ ____
ROOT
ATOM      1  O   LIG    1       -0.006   0.018   0.261  0.00  0.00    -0.510 OA
ATOM      2  C   LIG    1       -0.015   1.211   0.042  0.00  0.00    +0.520 C 
ATOM      3  N   LIG    1       -1.184   1.849  -0.169  0.00  0.00    -0.740 N 
ATOM      4  H   LIG    1       -1.191   2.803  -0.344  0.00  0.00    +0.400 HD
ENDROOT
BRANCH   3   5
ATOM      5  C   LIG    1       -2.443   1.100  -0.135  0.00  0.00    +0.260 C 
BRANCH   5   6
ATOM      6  C   LIG    1       -3.610   2.053  -0.404  0.00  0.00    +0.090 C 
ATOM      7  C   LIG    1       -4.958   1.341  -0.154  0.00  0.00    +0.050 C 
ATOM      8  C   LIG    1       -5.609   2.157   0.984  0.00  0.00    +0.210 C 
ATOM      9  O   LIG    1       -5.000   3.464   0.896  0.00  0.00    -0.360 OA
ATOM     10  C   LIG    1       -3.605   3.215   0.614  0.00  0.00    +0.190 C 
BRANCH   6  11
ATOM     11  O   LIG    1       -3.546   2.556  -1.739  0.00  0.00    -0.540 OA
ATOM     12  H   LIG    1       -2.732   3.039  -1.939  0.00  0.00    +0.380 HD
ENDBRANCH   6  11
ENDBRANCH   5   6
ENDBRANCH   3   5
BRANCH   2  13
ATOM     13  C   LIG    1        1.280   1.980   0.001  0.00  0.00    +0.220 C 
BRANCH  13  14
ATOM     14  N   LIG    1        2.408   1.044   0.105  0.00  0.00    -0.520 NA
ATOM     15  C   LIG    1        3.674   1.765   0.306  0.00  0.00    +0.160 C 
ATOM     16  C   LIG    1        4.811   0.753   0.470  0.00  0.00    +0.220 C 
ATOM     17  O   LIG    1        4.850  -0.101  -0.676  0.00  0.00    -0.390 OA
ATOM     18  C   LIG    1        3.634  -0.819  -0.902  0.00  0.00    +0.230 C 
ATOM     19  C   LIG    1        2.485   0.177  -1.079  0.00  0.00    +0.150 C 
ENDBRANCH  13  14
ENDBRANCH   2  13
TORSDOF 5
ENDMDL
MODEL      945
REMARK  Name = ZINC000036023199
REMARK                            x       y       z     vdW  Elec       q    Type
REMARK                         _______ _______ _______ _____ _____    ______ ____
ROOT
ATOM      1  C   LIG    1       -0.018   1.503   0.010  0.00  0.00    +0.130 C 
ATOM      2  C   LIG    1        0.002  -0.004   0.002  0.00  0.00    -0.240 A 
ATOM      3  C   LIG    1       -1.147  -0.711   0.004  0.00  0.00    +0.330 A 
ATOM      4  N   LIG    1       -1.100  -2.077  -0.003  0.00  0.00    -0.550 N 
ATOM      5  C   LIG    1        0.083  -2.734  -0.015  0.00  0.00    +0.580 A 
ATOM      6  O   LIG    1       -0.067  -4.076  -0.024  0.00  0.00    -0.240 OA
ATOM      7  C   LIG    1       -1.477  -4.424  -0.024  0.00  0.00    +0.220 C 
ATOM      8  C   LIG    1       -1.846  -5.037  -1.397  0.00  0.00    +0.180 C 
ATOM      9  C   LIG    1       -2.259  -3.786  -2.214  0.00  0.00    +0.120 C 
ATOM     10  O   LIG    1       -2.940  -2.961  -1.244  0.00  0.00    -0.340 OA
ATOM     11  N   LIG    1        1.220  -2.050  -0.016  0.00  0.00    -0.580 NA
ATOM     12  C   LIG    1       -2.200  -3.056   0.001  0.00  0.00    +0.430 C 
ATOM     13  C   LIG    1        1.230  -0.713  -0.013  0.00  0.00    +0.530 A 
ATOM     14  O   LIG    1        2.290  -0.107  -0.014  0.00  0.00    -0.500 OA
ENDROOT
BRANCH   8  15
ATOM     15  O   LIG    1       -0.716  -5.684  -1.986  0.00  0.00    -0.530 OA
ATOM     16  H   LIG    1       -0.897  -6.084  -2.847  0.00  0.00    +0.390 HD
ENDBRANCH   8  15
BRANCH   9  17
ATOM     17  C   LIG    1       -3.202  -4.175  -3.354  0.00  0.00    +0.220 C 
BRANCH  17  18
ATOM     18  O   LIG    1       -3.474  -3.026  -4.159  0.00  0.00    -0.560 OA
ATOM     19  H   LIG    1       -4.068  -3.199  -4.903  0.00  0.00    +0.390 HD
ENDBRANCH  17  18
ENDBRANCH   9  17
TORSDOF 3
ENDMDL
MODEL      946
REMARK  Name = ZINC000379700169
REMARK                            x       y       z     vdW  Elec       q    Type
REMARK                         _______ _______ _______ _____ _____    ______ ____
ROOT
ATOM      1  C   LIG    1       -1.248  -2.095   0.003  0.00  0.00    +0.120 C 
ATOM      2  C   LIG    1       -2.450  -2.728   0.011  0.00  0.00    -0.190 A 
ATOM      3  S   LIG    1       -4.065  -1.994   0.022  0.00  0.00    +0.230 S 
ATOM      4  C   LIG    1       -4.931  -3.539   0.028  0.00  0.00    +0.130 A 
ATOM      5  N   LIG    1       -3.986  -4.527   0.021  0.00  0.00    -0.650 N 
ATOM      6  H   LIG    1       -4.247  -5.461   0.022  0.00  0.00    +0.430 HD
ATOM      7  C   LIG    1       -6.284  -3.711   0.037  0.00  0.00    -0.090 C 
ATOM      8  C   LIG    1       -2.707  -4.187   0.005  0.00  0.00    +0.560 A 
ATOM      9  O   LIG    1       -1.812  -5.008  -0.002  0.00  0.00    -0.470 OA
ENDROOT
BRANCH   7  10
ATOM     10  C   LIG    1       -7.136  -2.591   0.043  0.00  0.00    +0.560 C 
ATOM     11  O   LIG    1       -6.664  -1.467   0.041  0.00  0.00    -0.540 OA
ATOM     12  N   LIG    1       -8.473  -2.761   0.052  0.00  0.00    -0.850 N 
ATOM     13  H   LIG    1       -9.060  -1.989   0.056  0.00  0.00    +0.410 HD
ATOM     14  H   LIG    1       -8.848  -3.656   0.054  0.00  0.00    +0.400 HD
ENDBRANCH   7  10
BRANCH   1  15
ATOM     15  C   LIG    1       -1.192  -0.633   0.010  0.00  0.00    +0.490 C 
ATOM     16  O   LIG    1       -2.220   0.015   0.023  0.00  0.00    -0.480 OA
BRANCH  15  18
ATOM     17  C   LIG    1       -0.017   1.425   0.010  0.00  0.00    +0.280 C 
ATOM     18  O   LIG    1        0.002  -0.004   0.002  0.00  0.00    -0.340 OA
ENDBRANCH  15  18
ENDBRANCH   1  15
TORSDOF 3
ENDMDL
MODEL      947
REMARK  Name = ZINC000022877576
REMARK                            x       y       z     vdW  Elec       q    Type
REMARK                         _______ _______ _______ _____ _____    ______ ____
ROOT
ATOM      1  C   LIG    1        1.095  -4.864   0.422  0.00  0.00    +0.590 C 
ATOM      2  N   LIG    1        0.747  -5.095  -0.859  0.00  0.00    -0.680 N 
ATOM      3  H   LIG    1        0.970  -4.448  -1.546  0.00  0.00    +0.430 HD
ATOM      4  O   LIG    1        0.815  -5.673   1.284  0.00  0.00    -0.520 OA
ENDROOT
BRANCH   1   9
ATOM      5  C   LIG    1        3.870  -0.132   1.843  0.00  0.00    +0.160 C 
ATOM      6  C   LIG    1        3.132  -1.395   1.480  0.00  0.00    +0.110 A 
ATOM      7  C   LIG    1        2.773  -1.631   0.161  0.00  0.00    +0.230 A 
ATOM      8  N   LIG    1        2.128  -2.735  -0.161  0.00  0.00    -0.400 NA
ATOM      9  C   LIG    1        1.820  -3.622   0.780  0.00  0.00    +0.020 A 
ATOM     10  C   LIG    1        2.182  -3.381   2.105  0.00  0.00    +0.310 A 
ATOM     11  N   LIG    1        2.833  -2.276   2.418  0.00  0.00    -0.440 NA
ENDBRANCH   1   9
BRANCH   2  12
ATOM     12  C   LIG    1        0.030  -6.322  -1.213  0.00  0.00    +0.250 C 
BRANCH  12  13
ATOM     13  C   LIG    1        0.287  -6.655  -2.660  0.00  0.00    +0.530 C 
ATOM     14  O   LIG    1        0.605  -5.779  -3.436  0.00  0.00    -0.510 OA
ATOM     15  N   LIG    1        0.163  -7.925  -3.092  0.00  0.00    -0.840 N 
ATOM     16  H   LIG    1        0.259  -8.128  -4.036  0.00  0.00    +0.410 HD
ATOM     17  H   LIG    1       -0.022  -8.637  -2.459  0.00  0.00    +0.400 HD
ENDBRANCH  12  13
BRANCH  12  18
ATOM     18  C   LIG    1       -1.448  -6.121  -0.998  0.00  0.00    +0.510 C 
ATOM     19  O   LIG    1       -1.922  -5.006  -1.053  0.00  0.00    -0.510 OA
ATOM     20  N   LIG    1       -2.243  -7.179  -0.745  0.00  0.00    -0.840 N 
ATOM     21  H   LIG    1       -3.203  -7.060  -0.679  0.00  0.00    +0.410 HD
ATOM     22  H   LIG    1       -1.855  -8.061  -0.630  0.00  0.00    +0.400 HD
ENDBRANCH  12  18
ENDBRANCH   2  12
TORSDOF 4
ENDMDL
MODEL      948
REMARK  Name = ZINC000002274494
REMARK                            x       y       z     vdW  Elec       q    Type
REMARK                         _______ _______ _______ _____ _____    ______ ____
ROOT
ATOM      1  C   LIG    1        2.894   2.043   1.993  0.00  0.00    +0.550 A 
ATOM      2  N   LIG    1        3.461   1.447   3.015  0.00  0.00    -0.520 NA
ATOM      3  C   LIG    1        4.191   2.150   3.922  0.00  0.00    +0.310 A 
ATOM      4  N   LIG    1        4.839   1.783   5.003  0.00  0.00    -0.240 NA
ATOM      5  O   LIG    1        5.426   2.941   5.570  0.00  0.00    +0.090 OA
ATOM      6  N   LIG    1        5.085   4.044   4.748  0.00  0.00    -0.210 NA
ATOM      7  C   LIG    1        4.353   3.603   3.764  0.00  0.00    +0.220 A 
ATOM      8  N   LIG    1        3.753   4.236   2.682  0.00  0.00    -0.220 N 
ATOM      9  N   LIG    1        3.707   5.454   2.274  0.00  0.00    -0.020 NA
ATOM     10  N   LIG    1        3.004   5.511   1.196  0.00  0.00    -0.030 NA
ATOM     11  N   LIG    1        2.582   4.332   0.885  0.00  0.00    -0.230 NA
ATOM     12  C   LIG    1        3.035   3.490   1.794  0.00  0.00    +0.170 A 
ENDROOT
BRANCH   1  15
ATOM     13  C   LIG    1       -0.027   1.412   0.029  0.00  0.00    +0.230 C 
ATOM     14  C   LIG    1        1.408   1.951   0.010  0.00  0.00    +0.280 C 
ATOM     15  N   LIG    1        2.162   1.300   1.093  0.00  0.00    -0.540 N 
ATOM     16  C   LIG    1        2.110  -0.167   1.187  0.00  0.00    +0.290 C 
ATOM     17  C   LIG    1        0.641  -0.603   1.148  0.00  0.00    +0.230 C 
ATOM     18  O   LIG    1        0.006  -0.017   0.009  0.00  0.00    -0.370 OA
ENDBRANCH   1  15
TORSDOF 1
ENDMDL
MODEL      949
REMARK  Name = ZINC000048546611
REMARK                            x       y       z     vdW  Elec       q    Type
REMARK                         _______ _______ _______ _____ _____    ______ ____
ROOT
ATOM      1  C   LIG    1        0.204   1.455   0.005  0.00  0.00    +0.360 C 
ATOM      2  N   LIG    1        0.110  -0.007  -0.001  0.00  0.00    -0.550 N 
ATOM      3  C   LIG    1        0.015  -0.663  -1.177  0.00  0.00    +0.560 A 
ATOM      4  C   LIG    1       -0.079  -2.131  -1.156  0.00  0.00    +0.060 A 
ATOM      5  C   LIG    1       -0.065  -2.769   0.071  0.00  0.00    +0.130 A 
ATOM      6  N   LIG    1        0.035  -2.015   1.226  0.00  0.00    -0.520 N 
ATOM      7  C   LIG    1        0.050  -2.684   2.530  0.00  0.00    +0.370 C 
ATOM      8  C   LIG    1       -0.157  -4.227   0.115  0.00  0.00    +0.220 A 
ATOM      9  C   LIG    1       -0.253  -4.908  -1.068  0.00  0.00    -0.110 A 
ATOM     10  C   LIG    1       -0.262  -4.202  -2.284  0.00  0.00    +0.540 A 
ATOM     11  O   LIG    1       -0.349  -4.819  -3.333  0.00  0.00    -0.530 OA
ATOM     12  N   LIG    1       -0.178  -2.860  -2.314  0.00  0.00    -0.590 N 
ATOM     13  H   LIG    1       -0.186  -2.400  -3.168  0.00  0.00    +0.430 HD
ATOM     14  O   LIG    1        0.007  -0.054  -2.231  0.00  0.00    -0.480 OA
ATOM     15  C   LIG    1        0.124  -0.675   1.165  0.00  0.00    +0.690 A 
ATOM     16  O   LIG    1        0.211  -0.044   2.201  0.00  0.00    -0.530 OA
ENDROOT
BRANCH   8  17
ATOM     17  O   LIG    1       -0.147  -4.887   1.297  0.00  0.00    -0.450 OA
ATOM     18  H   LIG    1       -0.212  -5.848   1.211  0.00  0.00    +0.420 HD
ENDBRANCH   8  17
TORSDOF 1
ENDMDL
MODEL      950
REMARK  Name = ZINC000201779749
REMARK                            x       y       z     vdW  Elec       q    Type
REMARK                         _______ _______ _______ _____ _____    ______ ____
ROOT
ATOM      1  C   LIG    1       -2.580  -2.823   0.011  0.00  0.00    +0.220 C 
ENDROOT
BRANCH   1   2
ATOM      2  C   LIG    1       -1.246  -2.121   0.003  0.00  0.00    +0.350 C 
ATOM      3  O   LIG    1       -0.225  -2.765  -0.011  0.00  0.00    -0.370 OA
BRANCH   2   4
ATOM      4  C   LIG    1       -1.189  -0.631   0.010  0.00  0.00    +0.430 C 
ATOM      5  O   LIG    1       -2.215   0.015   0.023  0.00  0.00    -0.470 OA
BRANCH   4   7
ATOM      6  C   LIG    1       -0.018   1.448   0.010  0.00  0.00    +0.280 C 
ATOM      7  O   LIG    1        0.002  -0.004   0.002  0.00  0.00    -0.330 OA
ENDBRANCH   4   7
ENDBRANCH   2   4
ENDBRANCH   1   2
BRANCH   1   8
ATOM      8  O   LIG    1       -2.407  -4.168   0.464  0.00  0.00    -0.520 OA
ATOM      9  H   LIG    1       -1.811  -4.694  -0.087  0.00  0.00    +0.380 HD
ENDBRANCH   1   8
BRANCH   1  10
ATOM     10  C   LIG    1       -3.161  -2.832  -1.404  0.00  0.00    +0.170 C 
BRANCH  10  11
ATOM     11  O   LIG    1       -2.216  -3.414  -2.303  0.00  0.00    -0.550 OA
ATOM     12  H   LIG    1       -1.978  -4.326  -2.087  0.00  0.00    +0.380 HD
ENDBRANCH  10  11
BRANCH  10  13
ATOM     13  C   LIG    1       -4.453  -3.651  -1.419  0.00  0.00    +0.210 C 
BRANCH  13  14
ATOM     14  O   LIG    1       -5.398  -3.069  -0.519  0.00  0.00    -0.540 OA
ATOM     15  H   LIG    1       -5.636  -2.157  -0.736  0.00  0.00    +0.380 HD
ENDBRANCH  13  14
BRANCH  13  16
ATOM     16  C   LIG    1       -5.035  -3.660  -2.834  0.00  0.00    +0.160 C 
BRANCH  16  17
ATOM     17  O   LIG    1       -6.175  -4.519  -2.876  0.00  0.00    -0.560 OA
ATOM     18  H   LIG    1       -6.596  -4.573  -3.745  0.00  0.00    +0.380 HD
ENDBRANCH  16  17
ENDBRANCH  13  16
ENDBRANCH  10  13
ENDBRANCH   1  10
TORSDOF 10
ENDMDL
MODEL      951
REMARK  Name = ZINC000245239256
REMARK                            x       y       z     vdW  Elec       q    Type
REMARK                         _______ _______ _______ _____ _____    ______ ____
ROOT
ATOM      1  C   LIG    1        0.668  -0.571  -1.175  0.00  0.00    +0.170 C 
ATOM      2  C   LIG    1       -0.337  -0.827  -2.302  0.00  0.00    +0.170 C 
ATOM      3  C   LIG    1        0.382  -1.514  -3.467  0.00  0.00    +0.120 C 
ATOM      4  C   LIG    1        1.032  -2.806  -2.964  0.00  0.00    +0.170 C 
ATOM      5  O   LIG    1        1.932  -2.500  -1.897  0.00  0.00    -0.390 OA
ATOM      6  C   LIG    1        1.309  -1.899  -0.760  0.00  0.00    +0.430 C 
ENDROOT
BRANCH   1   8
ATOM      7  C   LIG    1       -0.050   1.432  -0.072  0.00  0.00    +0.200 C 
ATOM      8  O   LIG    1       -0.007   0.004  -0.054  0.00  0.00    -0.340 OA
ENDBRANCH   1   8
BRANCH   3   9
ATOM      9  O   LIG    1       -0.561  -1.822  -4.495  0.00  0.00    -0.550 OA
ATOM     10  H   LIG    1       -0.173  -2.259  -5.266  0.00  0.00    +0.390 HD
ENDBRANCH   3   9
BRANCH   2  11
ATOM     11  O   LIG    1       -1.388  -1.669  -1.823  0.00  0.00    -0.520 OA
ATOM     12  H   LIG    1       -2.062  -1.873  -2.486  0.00  0.00    +0.380 HD
ENDBRANCH   2  11
BRANCH   6  13
ATOM     13  O   LIG    1        0.300  -2.774  -0.251  0.00  0.00    -0.330 OA
ATOM     14  C   LIG    1        0.807  -4.005   0.268  0.00  0.00    +0.220 C 
ENDBRANCH   6  13
BRANCH   6  15
ATOM     15  O   LIG    1        2.289  -1.661   0.252  0.00  0.00    -0.370 OA
ATOM     16  C   LIG    1        3.409  -0.893  -0.193  0.00  0.00    +0.230 C 
ENDBRANCH   6  15
BRANCH   4  17
ATOM     17  C   LIG    1        1.804  -3.467  -4.108  0.00  0.00    +0.200 C 
BRANCH  17  18
ATOM     18  O   LIG    1        2.313  -4.729  -3.672  0.00  0.00    -0.560 OA
ATOM     19  H   LIG    1        2.814  -5.206  -4.348  0.00  0.00    +0.380 HD
ENDBRANCH  17  18
ENDBRANCH   4  17
TORSDOF 7
ENDMDL
MODEL      952
REMARK  Name = ZINC000534586708
REMARK                            x       y       z     vdW  Elec       q    Type
REMARK                         _______ _______ _______ _____ _____    ______ ____
ROOT
ATOM      1  N   UNK A  1       -0.539  -2.552  -1.258  0.00  0.00    -0.710 N 
ATOM      2  H   UNK A  1        0.024  -1.938  -1.755  0.00  0.00    +0.410 HD
ATOM      3  C   UNK A  0       -0.757  -3.796  -1.728  0.00  0.00    +0.490 C 
ATOM      4  O   UNK A  0       -1.462  -4.564  -1.107  0.00  0.00    -0.530 OA
ENDROOT
BRANCH   1   5
ATOM      5  C   UNK A  1       -1.154  -2.126   0.002  0.00  0.00    +0.260 C 
BRANCH   5   6
ATOM      6  C   UNK A  1       -1.295  -0.603   0.011  0.00  0.00    +0.170 C 
BRANCH   6   8
ATOM      7  C   UNK A  1       -0.017   1.425   0.010  0.00  0.00    +0.200 C 
ATOM      8  O   UNK A  1        0.002  -0.004   0.002  0.00  0.00    -0.360 OA
ENDBRANCH   6   8
ENDBRANCH   5   6
BRANCH   5   9
ATOM      9  C   UNK A  1       -0.272  -2.564   1.173  0.00  0.00    +0.170 C 
BRANCH   9  10
ATOM     10  O   UNK A  1        0.979  -1.875   1.110  0.00  0.00    -0.540 OA
ATOM     11  H   UNK A  1        1.590  -2.104   1.824  0.00  0.00    +0.370 HD
ENDBRANCH   9  10
ENDBRANCH   5   9
ENDBRANCH   1   5
BRANCH   3  12
ATOM     12  C   UNK A  0       -0.125  -4.234  -3.024  0.00  0.00    +0.370 C 
BRANCH  12  13
ATOM     13  N   UNK A  0       -0.512  -5.617  -3.313  0.00  0.00    -0.620 N 
ATOM     14  C   UNK A  0        0.219  -6.816  -2.876  0.00  0.00    +0.260 C 
ATOM     15  C   UNK A  0       -0.612  -7.983  -3.445  0.00  0.00    +0.260 C 
ATOM     16  N   UNK A  0       -1.722  -7.317  -4.143  0.00  0.00    -0.640 N 
ATOM     17  C   UNK A  0       -2.803  -7.998  -4.860  0.00  0.00    +0.330 C 
ATOM     18  C   UNK A  0       -1.591  -5.991  -4.014  0.00  0.00    +0.710 C 
ATOM     19  O   UNK A  0       -2.376  -5.197  -4.496  0.00  0.00    -0.580 OA
ENDBRANCH  12  13
ENDBRANCH   3  12
TORSDOF 7
ENDMDL
MODEL      953
REMARK  Name = ZINC000040217529
REMARK                            x       y       z     vdW  Elec       q    Type
REMARK                         _______ _______ _______ _____ _____    ______ ____
ROOT
ATOM      1  C   LIG    1       -0.018   1.503   0.010  0.00  0.00    +0.100 C 
ATOM      2  C   LIG    1        0.002  -0.004   0.002  0.00  0.00    +0.510 C 
ATOM      3  N   LIG    1        0.000  -0.672  -1.169  0.00  0.00    -0.620 N 
ATOM      4  C   LIG    1       -0.016   0.057  -2.445  0.00  0.00    +0.280 C 
ATOM      5  C   LIG    1        1.177  -0.408  -3.290  0.00  0.00    +0.290 C 
ATOM      6  N   LIG    1        1.191  -1.878  -3.313  0.00  0.00    -1.000 NA
ATOM      7  C   LIG    1        1.207  -2.606  -2.037  0.00  0.00    +0.290 C 
ATOM      8  C   LIG    1        0.020  -2.141  -1.192  0.00  0.00    +0.290 C 
ATOM      9  O   LIG    1        0.020  -0.616   1.049  0.00  0.00    -0.540 OA
ENDROOT
BRANCH   6  10
ATOM     10  S   LIG    1        1.190  -2.698  -4.752  0.00  0.00    +2.800 S 
ATOM     11  O   LIG    1        0.630  -1.817  -5.716  0.00  0.00    -0.980 OA
ATOM     12  O   LIG    1        0.659  -3.988  -4.478  0.00  0.00    -0.980 OA
BRANCH  10  13
ATOM     13  N   LIG    1        2.771  -2.925  -5.188  0.00  0.00    -1.260 NA
ATOM     14  H   LIG    1        2.985  -3.392  -6.011  0.00  0.00    +0.420 HD
ATOM     15  H   LIG    1        3.483  -2.592  -4.620  0.00  0.00    +0.410 HD
ENDBRANCH  10  13
ENDBRANCH   6  10
TORSDOF 2
ENDMDL
MODEL      954
REMARK  Name = ZINC000035343861
REMARK                            x       y       z     vdW  Elec       q    Type
REMARK                         _______ _______ _______ _____ _____    ______ ____
ROOT
ATOM      1  N   LIG    1        0.690  -0.478  -1.207  0.00  0.00    -0.520 NA
ATOM      2  C   LIG    1        0.226   0.250  -2.395  0.00  0.00    +0.180 C 
ATOM      3  C   LIG    1        1.090  -0.142  -3.599  0.00  0.00    +0.300 C 
ATOM      4  N   LIG    1        1.079  -1.607  -3.724  0.00  0.00    -1.000 NA
ATOM      5  C   LIG    1        1.400  -2.409  -2.534  0.00  0.00    +0.310 C 
ATOM      6  C   LIG    1        0.525  -1.928  -1.372  0.00  0.00    +0.180 C 
ENDROOT
BRANCH   4   7
ATOM      7  S   LIG    1        0.717  -2.335  -5.167  0.00  0.00    +2.610 S 
ATOM      8  O   LIG    1       -0.098  -1.387  -5.843  0.00  0.00    -0.960 OA
ATOM      9  O   LIG    1        0.206  -3.609  -4.798  0.00  0.00    -0.950 OA
ATOM     10  C   LIG    1        2.318  -2.508  -6.001  0.00  0.00    -0.280 C 
ENDBRANCH   4   7
BRANCH   1  12
ATOM     11  C   LIG    1       -0.019   1.526   0.010  0.00  0.00    +0.060 C 
ATOM     12  C   LIG    1        0.002  -0.004   0.002  0.00  0.00    +0.130 C 
BRANCH  12  13
ATOM     13  C   LIG    1        0.731  -0.503   1.223  0.00  0.00    +0.520 C 
ATOM     14  O   LIG    1        1.725  -1.187   1.099  0.00  0.00    -0.520 OA
ATOM     15  N   LIG    1        0.278  -0.191   2.453  0.00  0.00    -0.860 N 
ATOM     16  H   LIG    1        0.747  -0.512   3.239  0.00  0.00    +0.400 HD
ATOM     17  H   LIG    1       -0.517   0.356   2.553  0.00  0.00    +0.400 HD
ENDBRANCH  12  13
ENDBRANCH   1  12
TORSDOF 3
ENDMDL
MODEL      955
REMARK  Name = ZINC000036043373
REMARK                            x       y       z     vdW  Elec       q    Type
REMARK                         _______ _______ _______ _____ _____    ______ ____
ROOT
ATOM      1  C   LIG    1        4.311   3.818  -1.973  0.00  0.00    +0.220 C 
ENDROOT
BRANCH   1   7
ATOM      2  O   LIG    1        0.002  -0.004   0.002  0.00  0.00    -0.550 OA
ATOM      3  C   LIG    1       -0.014   1.209   0.009  0.00  0.00    +0.620 C 
ATOM      4  N   LIG    1        1.143   1.898   0.001  0.00  0.00    -0.620 N 
ATOM      5  C   LIG    1        2.438   1.200  -0.021  0.00  0.00    +0.290 C 
ATOM      6  C   LIG    1        3.285   1.782  -1.158  0.00  0.00    +0.170 C 
ATOM      7  N   LIG    1        3.369   3.240  -1.005  0.00  0.00    -0.520 NA
ATOM      8  C   LIG    1        2.044   3.865  -1.123  0.00  0.00    +0.170 C 
ATOM      9  C   LIG    1        1.146   3.369   0.009  0.00  0.00    +0.290 C 
ENDBRANCH   1   7
BRANCH   1  10
ATOM     10  C   LIG    1        4.558   5.265  -1.632  0.00  0.00    +0.520 C 
ATOM     11  N   LIG    1        5.394   6.002  -2.389  0.00  0.00    -0.620 N 
ATOM     12  C   LIG    1        6.074   5.418  -3.556  0.00  0.00    +0.240 C 
ATOM     13  C   LIG    1        5.849   6.342  -4.759  0.00  0.00    +0.220 C 
ATOM     14  O   LIG    1        6.227   7.675  -4.405  0.00  0.00    -0.380 OA
ATOM     15  C   LIG    1        5.451   8.242  -3.347  0.00  0.00    +0.220 C 
ATOM     16  C   LIG    1        5.651   7.417  -2.076  0.00  0.00    +0.260 C 
ATOM     17  O   LIG    1        4.003   5.766  -0.677  0.00  0.00    -0.520 OA
ENDBRANCH   1  10
TORSDOF 2
ENDMDL
MODEL      956
REMARK  Name = ZINC000035174768
REMARK                            x       y       z     vdW  Elec       q    Type
REMARK                         _______ _______ _______ _____ _____    ______ ____
ROOT
ATOM      1  N   LIG    1        1.354  -2.503  -2.345  0.00  0.00    -0.710 N 
ATOM      2  H   LIG    1        1.691  -1.827  -2.954  0.00  0.00    +0.420 HD
ATOM      3  C   LIG    1        1.527  -3.809  -2.627  0.00  0.00    +0.590 C 
ATOM      4  O   LIG    1        1.104  -4.657  -1.863  0.00  0.00    -0.510 OA
ENDROOT
BRANCH   3   5
ATOM      5  C   LIG    1        2.224  -4.209  -3.854  0.00  0.00    +0.080 C 
ATOM      6  N   LIG    1        2.675  -3.298  -4.659  0.00  0.00    -0.200 NA
ATOM      7  N   LIG    1        3.344  -3.642  -5.839  0.00  0.00    -0.460 N 
ATOM      8  C   LIG    1        3.208  -4.875  -6.365  0.00  0.00    +0.490 C 
ATOM      9  C   LIG    1        2.334  -5.891  -5.675  0.00  0.00    +0.090 C 
ATOM     10  O   LIG    1        3.785  -5.165  -7.391  0.00  0.00    -0.510 OA
ATOM     11  C   LIG    1        4.197  -2.655  -6.506  0.00  0.00    +0.340 C 
ATOM     12  C   LIG    1        2.412  -5.672  -4.159  0.00  0.00    +0.110 C 
ENDBRANCH   3   5
BRANCH   1  13
ATOM     13  C   LIG    1        0.657  -2.104  -1.120  0.00  0.00    +0.370 C 
BRANCH  13  14
ATOM     14  C   LIG    1        0.598  -0.600  -1.043  0.00  0.00    +0.460 C 
ATOM     15  O   LIG    1        1.088   0.070  -1.921  0.00  0.00    -0.500 OA
BRANCH  14  17
ATOM     16  C   LIG    1       -0.018   1.448   0.010  0.00  0.00    +0.290 C 
ATOM     17  O   LIG    1        0.002  -0.004   0.002  0.00  0.00    -0.350 OA
ENDBRANCH  14  17
ENDBRANCH  13  14
ENDBRANCH   1  13
TORSDOF 4
ENDMDL
MODEL      957
REMARK  Name = ZINC000236410764
REMARK                            x       y       z     vdW  Elec       q    Type
REMARK                         _______ _______ _______ _____ _____    ______ ____
ROOT
ATOM      1  N   LIG    1       -1.117   4.220   1.248  0.00  0.00    -0.660 NA
ATOM      2  H   LIG    1       -2.015   3.892   1.573  0.00  0.00    +0.360 HD
ENDROOT
BRANCH   1   6
ATOM      3  O   LIG    1        0.002  -0.004   0.002  0.00  0.00    -0.480 OA
ATOM      4  C   LIG    1       -0.014   1.208   0.009  0.00  0.00    +0.540 C 
ATOM      5  C   LIG    1       -1.260   2.068   0.032  0.00  0.00    +0.100 C 
ATOM      6  C   LIG    1       -0.705   3.507   0.032  0.00  0.00    +0.160 C 
ATOM      7  C   LIG    1        0.795   3.309   0.009  0.00  0.00    +0.540 C 
ATOM      8  O   LIG    1        1.620   4.197   0.002  0.00  0.00    -0.470 OA
ATOM      9  N   LIG    1        1.066   1.998   0.003  0.00  0.00    -0.680 N 
ATOM     10  H   LIG    1        1.971   1.650  -0.012  0.00  0.00    +0.420 HD
ENDBRANCH   1   6
BRANCH   1  11
ATOM     11  C   LIG    1       -1.135   5.672   1.027  0.00  0.00    +0.280 C 
BRANCH  11  12
ATOM     12  C   LIG    1       -1.562   6.368   2.294  0.00  0.00    +0.170 A 
ATOM     13  C   LIG    1       -0.615   6.856   3.180  0.00  0.00    -0.050 A 
ATOM     14  C   LIG    1       -1.054   7.489   4.332  0.00  0.00    +0.320 A 
ATOM     15  N   LIG    1       -2.354   7.605   4.547  0.00  0.00    -0.520 NA
ATOM     16  C   LIG    1       -3.227   7.128   3.681  0.00  0.00    +0.500 A 
ATOM     17  N   LIG    1       -2.846   6.526   2.573  0.00  0.00    -0.520 NA
ENDBRANCH  11  12
ENDBRANCH   1  11
TORSDOF 3
ENDMDL
MODEL      958
REMARK  Name = ZINC000106385955
REMARK                            x       y       z     vdW  Elec       q    Type
REMARK                         _______ _______ _______ _____ _____    ______ ____
ROOT
ATOM      1  N   LIG    1       -1.153   4.233  -1.164  0.00  0.00    -0.510 NA
ATOM      2  C   LIG    1       -0.768   3.518  -2.389  0.00  0.00    +0.180 C 
ATOM      3  C   LIG    1       -1.320   4.264  -3.606  0.00  0.00    +0.190 C 
ATOM      4  N   LIG    1       -0.797   5.637  -3.615  0.00  0.00    -0.530 NA
ATOM      5  C   LIG    1       -1.181   6.352  -2.390  0.00  0.00    +0.180 C 
ATOM      6  C   LIG    1       -0.629   5.606  -1.173  0.00  0.00    +0.210 C 
ENDROOT
BRANCH   1  10
ATOM      7  O   LIG    1        0.002  -0.004   0.002  0.00  0.00    -0.480 OA
ATOM      8  C   LIG    1       -0.014   1.208   0.009  0.00  0.00    +0.530 C 
ATOM      9  C   LIG    1       -1.260   2.068   0.032  0.00  0.00    +0.100 C 
ATOM     10  C   LIG    1       -0.705   3.507   0.032  0.00  0.00    +0.190 C 
ATOM     11  C   LIG    1        0.795   3.309   0.009  0.00  0.00    +0.500 C 
ATOM     12  O   LIG    1        1.620   4.197   0.002  0.00  0.00    -0.470 OA
ATOM     13  N   LIG    1        1.066   1.998   0.003  0.00  0.00    -0.680 N 
ATOM     14  H   LIG    1        1.971   1.650  -0.012  0.00  0.00    +0.420 HD
ENDBRANCH   1  10
BRANCH   4  15
ATOM     15  C   LIG    1       -1.244   6.363  -4.811  0.00  0.00    +0.180 C 
BRANCH  15  16
ATOM     16  C   LIG    1       -0.488   7.689  -4.915  0.00  0.00    +0.180 C 
BRANCH  16  17
ATOM     17  O   LIG    1        0.901   7.430  -5.128  0.00  0.00    -0.560 OA
ATOM     18  H   LIG    1        1.443   8.228  -5.204  0.00  0.00    +0.380 HD
ENDBRANCH  16  17
ENDBRANCH  15  16
ENDBRANCH   4  15
TORSDOF 4
ENDMDL
MODEL      959
REMARK  Name = ZINC000236099557
REMARK                            x       y       z     vdW  Elec       q    Type
REMARK                         _______ _______ _______ _____ _____    ______ ____
ROOT
ATOM      1  N   LIG    1        1.444  -3.609   1.802  0.00  0.00    -0.670 NA
ATOM      2  H   LIG    1        1.958  -3.752   0.946  0.00  0.00    +0.360 HD
ENDROOT
BRANCH   1   3
ATOM      3  C   LIG    1        1.503  -4.803   2.657  0.00  0.00    +0.170 C 
ATOM      4  C   LIG    1        2.835  -5.526   2.435  0.00  0.00    +0.060 C 
ATOM      5  C   LIG    1        2.922  -6.701   3.415  0.00  0.00    +0.100 C 
ATOM      6  C   LIG    1        2.740  -6.187   4.819  0.00  0.00    +0.520 C 
ATOM      7  N   LIG    1        2.003  -5.095   5.071  0.00  0.00    -0.680 N 
ATOM      8  H   LIG    1        1.905  -4.801   5.990  0.00  0.00    +0.410 HD
ATOM      9  O   LIG    1        3.270  -6.772   5.739  0.00  0.00    -0.500 OA
ATOM     10  C   LIG    1        1.397  -4.392   4.102  0.00  0.00    +0.530 C 
ATOM     11  O   LIG    1        0.753  -3.408   4.396  0.00  0.00    -0.480 OA
ENDBRANCH   1   3
BRANCH   1  12
ATOM     12  C   LIG    1        0.052  -3.230   1.524  0.00  0.00    +0.350 C 
BRANCH  12  17
ATOM     13  C   LIG    1       -0.018   1.461   0.010  0.00  0.00    +0.410 C 
ATOM     14  N   LIG    1        0.002  -0.004   0.002  0.00  0.00    -0.140 N 
ATOM     15  N   LIG    1        0.008  -0.745  -1.051  0.00  0.00    -0.060 NA
ATOM     16  N   LIG    1        0.026  -1.982  -0.687  0.00  0.00    -0.280 NA
ATOM     17  C   LIG    1        0.032  -2.004   0.646  0.00  0.00    +0.170 A 
ATOM     18  N   LIG    1        0.022  -0.757   1.048  0.00  0.00    -0.280 NA
ENDBRANCH  12  17
ENDBRANCH   1  12
TORSDOF 3
ENDMDL
MODEL      960
REMARK  Name = ZINC000236098910
REMARK                            x       y       z     vdW  Elec       q    Type
REMARK                         _______ _______ _______ _____ _____    ______ ____
ROOT
ATOM      1  N   LIG    1        1.444  -3.609   1.802  0.00  0.00    -0.650 NA
ATOM      2  H   LIG    1        1.958  -3.752   0.946  0.00  0.00    +0.360 HD
ENDROOT
BRANCH   1   3
ATOM      3  C   LIG    1        1.503  -4.803   2.657  0.00  0.00    +0.200 C 
ATOM      4  C   LIG    1        2.830  -4.819   3.423  0.00  0.00    +0.080 C 
ATOM      5  C   LIG    1        2.918  -6.125   4.219  0.00  0.00    +0.100 C 
ATOM      6  C   LIG    1        2.748  -7.290   3.280  0.00  0.00    +0.520 C 
ATOM      7  N   LIG    1        2.018  -7.180   2.159  0.00  0.00    -0.670 N 
ATOM      8  H   LIG    1        1.927  -7.956   1.585  0.00  0.00    +0.410 HD
ATOM      9  O   LIG    1        3.280  -8.347   3.541  0.00  0.00    -0.500 OA
ATOM     10  C   LIG    1        1.408  -6.039   1.802  0.00  0.00    +0.490 C 
ATOM     11  O   LIG    1        0.771  -6.003   0.771  0.00  0.00    -0.490 OA
ENDBRANCH   1   3
BRANCH   1  12
ATOM     12  C   LIG    1        0.052  -3.230   1.524  0.00  0.00    +0.350 C 
BRANCH  12  17
ATOM     13  C   LIG    1       -0.018   1.461   0.010  0.00  0.00    +0.410 C 
ATOM     14  N   LIG    1        0.002  -0.004   0.002  0.00  0.00    -0.140 N 
ATOM     15  N   LIG    1        0.008  -0.745  -1.051  0.00  0.00    -0.060 NA
ATOM     16  N   LIG    1        0.026  -1.982  -0.687  0.00  0.00    -0.280 NA
ATOM     17  C   LIG    1        0.032  -2.004   0.646  0.00  0.00    +0.170 A 
ATOM     18  N   LIG    1        0.022  -0.757   1.048  0.00  0.00    -0.290 NA
ENDBRANCH  12  17
ENDBRANCH   1  12
TORSDOF 3
ENDMDL
MODEL      961
REMARK  Name = ZINC000236413570
REMARK                            x       y       z     vdW  Elec       q    Type
REMARK                         _______ _______ _______ _____ _____    ______ ____
ROOT
ATOM      1  N   LIG    1       -1.153   4.233  -1.164  0.00  0.00    -0.650 NA
ATOM      2  H   LIG    1       -0.581   4.002  -1.963  0.00  0.00    +0.350 HD
ENDROOT
BRANCH   1   6
ATOM      3  O   LIG    1        0.002  -0.004   0.002  0.00  0.00    -0.480 OA
ATOM      4  C   LIG    1       -0.014   1.208   0.009  0.00  0.00    +0.530 C 
ATOM      5  C   LIG    1       -1.260   2.068   0.032  0.00  0.00    +0.110 C 
ATOM      6  C   LIG    1       -0.705   3.507   0.032  0.00  0.00    +0.200 C 
ATOM      7  C   LIG    1        0.795   3.309   0.009  0.00  0.00    +0.500 C 
ATOM      8  O   LIG    1        1.620   4.197   0.002  0.00  0.00    -0.470 OA
ATOM      9  N   LIG    1        1.066   1.998   0.003  0.00  0.00    -0.680 N 
ATOM     10  H   LIG    1        1.971   1.650  -0.012  0.00  0.00    +0.420 HD
ENDBRANCH   1   6
BRANCH   1  11
ATOM     11  C   LIG    1       -1.164   5.683  -0.926  0.00  0.00    +0.270 C 
BRANCH  11  12
ATOM     12  C   LIG    1       -1.627   6.393  -2.172  0.00  0.00    +0.170 A 
ATOM     13  C   LIG    1       -2.958   6.749  -2.324  0.00  0.00    -0.050 A 
ATOM     14  C   LIG    1       -3.337   7.401  -3.487  0.00  0.00    +0.320 A 
ATOM     15  N   LIG    1       -2.423   7.659  -4.408  0.00  0.00    -0.520 NA
ATOM     16  C   LIG    1       -1.166   7.304  -4.229  0.00  0.00    +0.500 A 
ATOM     17  N   LIG    1       -0.768   6.689  -3.134  0.00  0.00    -0.520 NA
ENDBRANCH  11  12
ENDBRANCH   1  11
TORSDOF 3
ENDMDL
MODEL      962
REMARK  Name = ZINC000237680161
REMARK                            x       y       z     vdW  Elec       q    Type
REMARK                         _______ _______ _______ _____ _____    ______ ____
ROOT
ATOM      1  N   LIG    1        0.025  -0.388   2.422  0.00  0.00    -0.650 N 
ATOM      2  H   LIG    1        0.018   0.559   2.633  0.00  0.00    +0.410 HD
ATOM      3  C   LIG    1        0.039  -1.300   3.414  0.00  0.00    +0.510 C 
ATOM      4  O   LIG    1        0.049  -2.484   3.150  0.00  0.00    -0.490 OA
ENDROOT
BRANCH   1  10
ATOM      5  C   LIG    1       -0.018   1.461   0.010  0.00  0.00    +0.360 C 
ATOM      6  N   LIG    1        0.002  -0.004   0.002  0.00  0.00    -0.390 N 
ATOM      7  N   LIG    1        0.009  -0.822  -1.135  0.00  0.00    -0.290 NA
ATOM      8  C   LIG    1        0.028  -2.071  -0.745  0.00  0.00    +0.250 A 
ATOM      9  C   LIG    1        0.034  -2.094   0.653  0.00  0.00    -0.110 A 
ATOM     10  C   LIG    1        0.023  -0.806   1.091  0.00  0.00    +0.300 A 
ENDBRANCH   1  10
BRANCH   3  11
ATOM     11  C   LIG    1        0.041  -0.849   4.852  0.00  0.00    +0.340 C 
BRANCH  11  12
ATOM     12  N   LIG    1        0.056  -2.020   5.732  0.00  0.00    -0.590 N 
ATOM     13  C   LIG    1       -1.219  -2.594   6.152  0.00  0.00    +0.230 C 
ATOM     14  C   LIG    1       -1.010  -4.020   6.664  0.00  0.00    +0.230 C 
ATOM     15  N   LIG    1        0.084  -4.012   7.649  0.00  0.00    -0.680 NA
ATOM     16  H   LIG    1       -0.095  -3.342   8.382  0.00  0.00    +0.350 HD
ATOM     17  C   LIG    1        1.363  -3.736   6.984  0.00  0.00    +0.280 C 
ATOM     18  C   LIG    1        1.237  -2.520   6.110  0.00  0.00    +0.490 C 
ATOM     19  O   LIG    1        2.249  -1.964   5.739  0.00  0.00    -0.540 OA
ENDBRANCH  11  12
ENDBRANCH   3  11
TORSDOF 3
ENDMDL
MODEL      963
REMARK  Name = ZINC000521373441
REMARK                            x       y       z     vdW  Elec       q    Type
REMARK                         _______ _______ _______ _____ _____    ______ ____
ROOT
ATOM      1  C   LIG    1       -0.019   1.526   0.010  0.00  0.00    +0.080 C 
ATOM      2  C   LIG    1        0.002  -0.004   0.002  0.00  0.00    +0.130 C 
ATOM      3  C   LIG    1       -1.436  -0.536   0.015  0.00  0.00    +0.260 C 
ATOM      4  N   LIG    1       -1.389  -1.995   0.196  0.00  0.00    -0.620 N 
ATOM      5  C   LIG    1       -0.578  -2.530   1.302  0.00  0.00    +0.240 C 
ATOM      6  C   LIG    1        0.818  -1.901   1.226  0.00  0.00    +0.220 C 
ATOM      7  C   LIG    1       -2.068  -2.818  -0.627  0.00  0.00    +0.500 C 
ATOM      8  O   LIG    1       -2.731  -2.358  -1.533  0.00  0.00    -0.530 OA
ATOM      9  O   LIG    1        0.691  -0.479   1.161  0.00  0.00    -0.370 OA
ENDROOT
BRANCH   7  10
ATOM     10  C   LIG    1       -2.005  -4.310  -0.422  0.00  0.00    +0.320 C 
BRANCH  10  11
ATOM     11  N   LIG    1       -2.822  -4.978  -1.438  0.00  0.00    -0.590 N 
ATOM     12  C   LIG    1       -4.231  -5.227  -1.147  0.00  0.00    +0.230 C 
ATOM     13  C   LIG    1       -4.994  -5.500  -2.445  0.00  0.00    +0.230 C 
ATOM     14  N   LIG    1       -4.271  -6.529  -3.210  0.00  0.00    -0.680 NA
ATOM     15  H   LIG    1       -4.117  -7.354  -2.651  0.00  0.00    +0.350 HD
ATOM     16  C   LIG    1       -3.001  -5.988  -3.711  0.00  0.00    +0.280 C 
ATOM     17  C   LIG    1       -2.246  -5.327  -2.593  0.00  0.00    +0.490 C 
ATOM     18  O   LIG    1       -1.062  -5.109  -2.740  0.00  0.00    -0.540 OA
ENDBRANCH  10  11
ENDBRANCH   7  10
TORSDOF 2
ENDMDL
MODEL      964
REMARK  Name = ZINC000521373457
REMARK                            x       y       z     vdW  Elec       q    Type
REMARK                         _______ _______ _______ _____ _____    ______ ____
ROOT
ATOM      1  C   LIG    1       -0.019   1.526   0.010  0.00  0.00    +0.070 C 
ATOM      2  C   LIG    1        0.002  -0.004   0.002  0.00  0.00    +0.140 C 
ATOM      3  C   LIG    1        0.722  -0.499  -1.258  0.00  0.00    +0.260 C 
ATOM      4  N   LIG    1        0.894  -1.957  -1.151  0.00  0.00    -0.620 N 
ATOM      5  C   LIG    1        1.483  -2.495   0.085  0.00  0.00    +0.240 C 
ATOM      6  C   LIG    1        0.726  -1.903   1.280  0.00  0.00    +0.220 C 
ATOM      7  C   LIG    1        0.523  -2.775  -2.156  0.00  0.00    +0.500 C 
ATOM      8  O   LIG    1        0.039  -2.312  -3.167  0.00  0.00    -0.530 OA
ATOM      9  O   LIG    1        0.695  -0.479   1.159  0.00  0.00    -0.370 OA
ENDROOT
BRANCH   7  10
ATOM     10  C   LIG    1        0.709  -4.264  -2.023  0.00  0.00    +0.320 C 
BRANCH  10  11
ATOM     11  N   LIG    1        0.232  -4.926  -3.240  0.00  0.00    -0.590 N 
ATOM     12  C   LIG    1       -1.168  -5.337  -3.308  0.00  0.00    +0.230 C 
ATOM     13  C   LIG    1       -1.573  -5.580  -4.763  0.00  0.00    +0.230 C 
ATOM     14  N   LIG    1       -0.579  -6.467  -5.388  0.00  0.00    -0.680 NA
ATOM     15  H   LIG    1       -0.464  -7.315  -4.854  0.00  0.00    +0.350 HD
ATOM     16  C   LIG    1        0.702  -5.764  -5.542  0.00  0.00    +0.280 C 
ATOM     17  C   LIG    1        1.096  -5.123  -4.241  0.00  0.00    +0.490 C 
ATOM     18  O   LIG    1        2.249  -4.777  -4.090  0.00  0.00    -0.540 OA
ENDBRANCH  10  11
ENDBRANCH   7  10
TORSDOF 2
ENDMDL
MODEL      965
REMARK  Name = ZINC000006761404
REMARK                            x       y       z     vdW  Elec       q    Type
REMARK                         _______ _______ _______ _____ _____    ______ ____
ROOT
ATOM      1  C   LIG    1        0.020  -2.136  -1.177  0.00  0.00    +0.220 C 
ATOM      2  C   LIG    1        1.448  -2.627  -1.082  0.00  0.00    +0.480 C 
ATOM      3  O   LIG    1        1.685  -3.938  -1.300  0.00  0.00    -0.350 OA
ATOM      4  C   LIG    1        1.116  -4.486  -2.521  0.00  0.00    +0.170 C 
ATOM      5  C   LIG    1       -0.382  -4.170  -2.565  0.00  0.00    +0.190 C 
ATOM      6  O   LIG    1        2.350  -1.868  -0.818  0.00  0.00    -0.430 OA
ATOM      7  C   LIG    1       -0.584  -2.654  -2.488  0.00  0.00    +0.210 C 
ENDROOT
BRANCH   1  10
ATOM      8  C   LIG    1       -0.018   1.503   0.010  0.00  0.00    +0.110 C 
ATOM      9  C   LIG    1        0.002  -0.004   0.002  0.00  0.00    +0.520 C 
ATOM     10  N   LIG    1        0.000  -0.672  -1.169  0.00  0.00    -0.720 N 
ATOM     11  H   LIG    1       -0.015  -0.182  -2.006  0.00  0.00    +0.400 HD
ATOM     12  O   LIG    1        0.020  -0.616   1.049  0.00  0.00    -0.530 OA
ENDBRANCH   1  10
BRANCH   5  13
ATOM     13  O   LIG    1       -1.033  -4.795  -1.457  0.00  0.00    -0.540 OA
ATOM     14  H   LIG    1       -0.945  -5.758  -1.440  0.00  0.00    +0.380 HD
ENDBRANCH   5  13
BRANCH   7  15
ATOM     15  O   LIG    1       -1.981  -2.355  -2.526  0.00  0.00    -0.530 OA
ATOM     16  H   LIG    1       -2.183  -1.411  -2.481  0.00  0.00    +0.390 HD
ENDBRANCH   7  15
BRANCH   4  17
ATOM     17  C   LIG    1        1.321  -6.002  -2.545  0.00  0.00    +0.230 C 
BRANCH  17  18
ATOM     18  O   LIG    1        2.718  -6.293  -2.615  0.00  0.00    -0.560 OA
ATOM     19  H   LIG    1        2.923  -7.238  -2.634  0.00  0.00    +0.390 HD
ENDBRANCH  17  18
ENDBRANCH   4  17
TORSDOF 5
ENDMDL
MODEL      966
REMARK  Name = ZINC000098179607
REMARK                            x       y       z     vdW  Elec       q    Type
REMARK                         _______ _______ _______ _____ _____    ______ ____
ROOT
ATOM      1  C   LIG    1        0.771  -2.068  -1.074  0.00  0.00    +0.130 A 
ATOM      2  C   LIG    1        1.178  -2.684  -2.221  0.00  0.00    +0.040 A 
ATOM      3  C   LIG    1        1.095  -4.155  -2.291  0.00  0.00    +0.540 A 
ATOM      4  N   LIG    1        0.623  -4.832  -1.224  0.00  0.00    -0.650 N 
ATOM      5  H   LIG    1        0.563  -5.799  -1.256  0.00  0.00    +0.440 HD
ATOM      6  C   LIG    1        0.234  -4.177  -0.117  0.00  0.00    +0.700 A 
ATOM      7  O   LIG    1       -0.187  -4.815   0.829  0.00  0.00    -0.530 OA
ATOM      8  O   LIG    1        1.447  -4.748  -3.294  0.00  0.00    -0.470 OA
ATOM      9  N   LIG    1        0.303  -2.839  -0.021  0.00  0.00    -0.620 N 
ATOM     10  H   LIG    1        0.013  -2.404   0.795  0.00  0.00    +0.450 HD
ENDROOT
BRANCH   1  11
ATOM     11  C   LIG    1        0.834  -0.600  -0.953  0.00  0.00    +0.510 C 
ATOM     12  O   LIG    1        1.338   0.061  -1.839  0.00  0.00    -0.450 OA
BRANCH  11  14
ATOM     13  C   LIG    1        0.429   1.456   0.192  0.00  0.00    +0.290 C 
ATOM     14  O   LIG    1        0.333   0.008   0.140  0.00  0.00    -0.360 OA
ENDBRANCH  11  14
ENDBRANCH   1  11
BRANCH   2  15
ATOM     15  O   LIG    1        1.647  -1.963  -3.270  0.00  0.00    -0.280 OA
ATOM     16  C   LIG    1        3.023  -2.138  -3.614  0.00  0.00    +0.250 C 
ENDBRANCH   2  15
TORSDOF 3
ENDMDL
MODEL      967
REMARK  Name = ZINC000020220397
REMARK                            x       y       z     vdW  Elec       q    Type
REMARK                         _______ _______ _______ _____ _____    ______ ____
ROOT
ATOM      1  C   LIG    1        0.680  -2.075   1.092  0.00  0.00    +0.130 C 
ATOM      2  C   LIG    1        1.303  -2.688   2.130  0.00  0.00    -0.140 A 
ATOM      3  S   LIG    1        2.102  -1.929   3.520  0.00  0.00    +0.190 S 
ATOM      4  C   LIG    1        2.577  -3.455   4.269  0.00  0.00    +0.300 A 
ATOM      5  N   LIG    1        3.239  -3.607   5.378  0.00  0.00    -0.480 NA
ATOM      6  C   LIG    1        3.561  -4.960   5.845  0.00  0.00    +0.240 C 
ATOM      7  C   LIG    1        2.478  -5.938   5.387  0.00  0.00    +0.020 C 
ATOM      8  C   LIG    1        2.360  -5.898   3.860  0.00  0.00    +0.300 C 
ATOM      9  N   LIG    1        2.119  -4.484   3.467  0.00  0.00    -0.580 N 
ATOM     10  C   LIG    1        1.463  -4.140   2.360  0.00  0.00    +0.550 A 
ATOM     11  O   LIG    1        1.027  -4.968   1.585  0.00  0.00    -0.470 OA
ENDROOT
BRANCH   1  12
ATOM     12  C   LIG    1        0.621  -0.614   1.034  0.00  0.00    +0.490 C 
ATOM     13  O   LIG    1        1.131   0.051   1.916  0.00  0.00    -0.480 OA
BRANCH  12  15
ATOM     14  C   LIG    1       -0.017   1.425   0.010  0.00  0.00    +0.280 C 
ATOM     15  O   LIG    1        0.002  -0.004   0.002  0.00  0.00    -0.340 OA
ENDBRANCH  12  15
ENDBRANCH   1  12
TORSDOF 2
ENDMDL
MODEL      968
REMARK  Name = ZINC000098210274
REMARK                            x       y       z     vdW  Elec       q    Type
REMARK                         _______ _______ _______ _____ _____    ______ ____
ROOT
ATOM      1  C   LIG    1        3.677  -4.765  -3.972  0.00  0.00    +0.180 C 
ENDROOT
BRANCH   1   2
ATOM      2  C   LIG    1        3.058  -5.793  -4.920  0.00  0.00    +0.230 C 
ATOM      3  N   LIG    1        2.614  -5.146  -6.167  0.00  0.00    -0.710 N 
ATOM      4  H   LIG    1        1.944  -4.450  -6.253  0.00  0.00    +0.450 HD
ATOM      5  C   LIG    1        3.319  -5.709  -7.165  0.00  0.00    +0.700 C 
ATOM      6  N   LIG    1        4.169  -6.645  -6.725  0.00  0.00    -0.680 N 
ATOM      7  H   LIG    1        4.759  -7.158  -7.299  0.00  0.00    +0.430 HD
ATOM      8  O   LIG    1        3.197  -5.403  -8.335  0.00  0.00    -0.540 OA
ATOM      9  C   LIG    1        4.102  -6.789  -5.383  0.00  0.00    +0.530 C 
ATOM     10  O   LIG    1        4.746  -7.552  -4.696  0.00  0.00    -0.460 OA
ENDBRANCH   1   2
BRANCH   1  13
ATOM     11  N   LIG    1        1.279  -2.677  -2.210  0.00  0.00    -0.290 N 
ATOM     12  C   LIG    1        2.300  -3.565  -2.181  0.00  0.00    +0.170 A 
ATOM     13  C   LIG    1        2.605  -3.831  -3.472  0.00  0.00    -0.030 A 
ATOM     14  N   LIG    1        1.766  -3.103  -4.218  0.00  0.00    -0.260 NA
ATOM     15  N   LIG    1        0.990  -2.435  -3.440  0.00  0.00    -0.070 NA
BRANCH  11  16
ATOM     16  C   LIG    1        0.613  -2.097  -1.041  0.00  0.00    +0.350 C 
BRANCH  16  17
ATOM     17  C   LIG    1        0.652  -0.570  -1.138  0.00  0.00    +0.180 C 
BRANCH  17  19
ATOM     18  C   LIG    1       -0.017   1.425   0.010  0.00  0.00    +0.220 C 
ATOM     19  O   LIG    1        0.002  -0.004   0.002  0.00  0.00    -0.390 OA
ENDBRANCH  17  19
ENDBRANCH  16  17
ENDBRANCH  11  16
ENDBRANCH   1  13
TORSDOF 5
ENDMDL
MODEL      969
REMARK  Name = ZINC000098210272
REMARK                            x       y       z     vdW  Elec       q    Type
REMARK                         _______ _______ _______ _____ _____    ______ ____
ROOT
ATOM      1  C   LIG    1        1.143   4.095   1.264  0.00  0.00    +0.180 C 
ENDROOT
BRANCH   1   7
ATOM      2  O   LIG    1        0.002  -0.004   0.002  0.00  0.00    -0.540 OA
ATOM      3  C   LIG    1       -0.014   1.211   0.009  0.00  0.00    +0.700 C 
ATOM      4  N   LIG    1       -1.136   1.940   0.029  0.00  0.00    -0.680 N 
ATOM      5  H   LIG    1       -2.030   1.563   0.040  0.00  0.00    +0.430 HD
ATOM      6  C   LIG    1       -0.871   3.261   0.032  0.00  0.00    +0.530 C 
ATOM      7  C   LIG    1        0.640   3.376   0.011  0.00  0.00    +0.230 C 
ATOM      8  O   LIG    1       -1.674   4.169   0.049  0.00  0.00    -0.460 OA
ATOM      9  N   LIG    1        1.094   1.974   0.002  0.00  0.00    -0.710 N 
ATOM     10  H   LIG    1        2.012   1.662  -0.011  0.00  0.00    +0.450 HD
ENDBRANCH   1   7
BRANCH   1  11
ATOM     11  C   LIG    1        2.632   4.304   1.159  0.00  0.00    -0.030 A 
ATOM     12  C   LIG    1        3.295   5.479   1.269  0.00  0.00    +0.170 A 
ATOM     13  N   LIG    1        4.606   5.189   1.108  0.00  0.00    -0.290 N 
ATOM     14  N   LIG    1        4.718   3.922   0.914  0.00  0.00    -0.070 NA
ATOM     15  N   LIG    1        3.559   3.364   0.945  0.00  0.00    -0.260 NA
BRANCH  13  16
ATOM     16  C   LIG    1        5.710   6.152   1.148  0.00  0.00    +0.340 C 
BRANCH  16  17
ATOM     17  C   LIG    1        6.739   5.706   2.189  0.00  0.00    +0.200 C 
BRANCH  17  18
ATOM     18  O   LIG    1        7.815   6.645   2.228  0.00  0.00    -0.570 OA
ATOM     19  H   LIG    1        8.506   6.426   2.867  0.00  0.00    +0.400 HD
ENDBRANCH  17  18
ENDBRANCH  16  17
ENDBRANCH  13  16
ENDBRANCH   1  11
TORSDOF 5
ENDMDL
MODEL      970
REMARK  Name = ZINC000044608174
REMARK                            x       y       z     vdW  Elec       q    Type
REMARK                         _______ _______ _______ _____ _____    ______ ____
ROOT
ATOM      1  C   LIG    1        0.673  -0.582   1.123  0.00  0.00    +0.180 C 
ATOM      2  C   LIG    1       -0.330  -0.815   2.257  0.00  0.00    +0.130 C 
ATOM      3  C   LIG    1        0.381  -1.506   3.423  0.00  0.00    +0.140 C 
ATOM      4  O   LIG    1        0.956  -2.733   2.969  0.00  0.00    -0.370 OA
ATOM      5  C   LIG    1        1.936  -2.574   1.942  0.00  0.00    +0.360 C 
ATOM      6  C   LIG    1        1.289  -1.925   0.715  0.00  0.00    +0.270 C 
ENDROOT
BRANCH   6   7
ATOM      7  N   LIG    1        2.305  -1.708  -0.317  0.00  0.00    -0.710 N 
ATOM      8  H   LIG    1        2.751  -0.849  -0.386  0.00  0.00    +0.400 HD
ATOM      9  C   LIG    1        2.621  -2.701  -1.171  0.00  0.00    +0.510 C 
ATOM     10  O   LIG    1        2.063  -3.775  -1.085  0.00  0.00    -0.540 OA
ATOM     11  C   LIG    1        3.667  -2.479  -2.233  0.00  0.00    +0.110 C 
ENDBRANCH   6   7
BRANCH   1  13
ATOM     12  C   LIG    1       -0.017   1.425   0.010  0.00  0.00    +0.200 C 
ATOM     13  O   LIG    1        0.002  -0.004   0.002  0.00  0.00    -0.360 OA
ENDBRANCH   1  13
BRANCH   5  14
ATOM     14  O   LIG    1        2.994  -1.740   2.418  0.00  0.00    -0.580 OA
ATOM     15  H   LIG    1        3.450  -2.090   3.196  0.00  0.00    +0.390 HD
ENDBRANCH   5  14
BRANCH   2  16
ATOM     16  O   LIG    1       -1.397  -1.642   1.789  0.00  0.00    -0.540 OA
ATOM     17  H   LIG    1       -2.070  -1.831   2.456  0.00  0.00    +0.380 HD
ENDBRANCH   2  16
BRANCH   3  18
ATOM     18  C   LIG    1       -0.628  -1.796   4.537  0.00  0.00    +0.200 C 
BRANCH  18  19
ATOM     19  O   LIG    1        0.056  -2.334   5.670  0.00  0.00    -0.560 OA
ATOM     20  H   LIG    1       -0.523  -2.542   6.416  0.00  0.00    +0.380 HD
ENDBRANCH  18  19
ENDBRANCH   3  18
TORSDOF 6
ENDMDL
MODEL      971
REMARK  Name = ZINC000098210275
REMARK                            x       y       z     vdW  Elec       q    Type
REMARK                         _______ _______ _______ _____ _____    ______ ____
ROOT
ATOM      1  C   LIG    1        3.677  -4.765  -3.972  0.00  0.00    +0.180 C 
ENDROOT
BRANCH   1   2
ATOM      2  C   LIG    1        3.058  -5.793  -4.920  0.00  0.00    +0.240 C 
ATOM      3  N   LIG    1        2.175  -6.712  -4.183  0.00  0.00    -0.720 N 
ATOM      4  H   LIG    1        1.376  -6.475  -3.685  0.00  0.00    +0.440 HD
ATOM      5  C   LIG    1        2.692  -7.945  -4.332  0.00  0.00    +0.700 C 
ATOM      6  N   LIG    1        3.804  -7.946  -5.077  0.00  0.00    -0.680 N 
ATOM      7  H   LIG    1        4.315  -8.742  -5.292  0.00  0.00    +0.430 HD
ATOM      8  O   LIG    1        2.204  -8.946  -3.846  0.00  0.00    -0.540 OA
ATOM      9  C   LIG    1        4.126  -6.702  -5.493  0.00  0.00    +0.530 C 
ATOM     10  O   LIG    1        5.073  -6.382  -6.180  0.00  0.00    -0.460 OA
ENDBRANCH   1   2
BRANCH   1  13
ATOM     11  N   LIG    1        1.279  -2.677  -2.210  0.00  0.00    -0.290 N 
ATOM     12  C   LIG    1        2.300  -3.565  -2.181  0.00  0.00    +0.160 A 
ATOM     13  C   LIG    1        2.605  -3.831  -3.472  0.00  0.00    -0.030 A 
ATOM     14  N   LIG    1        1.766  -3.103  -4.218  0.00  0.00    -0.260 NA
ATOM     15  N   LIG    1        0.990  -2.435  -3.440  0.00  0.00    -0.080 NA
BRANCH  11  16
ATOM     16  C   LIG    1        0.613  -2.097  -1.041  0.00  0.00    +0.350 C 
BRANCH  16  17
ATOM     17  C   LIG    1        0.652  -0.570  -1.138  0.00  0.00    +0.180 C 
BRANCH  17  19
ATOM     18  C   LIG    1       -0.017   1.425   0.010  0.00  0.00    +0.220 C 
ATOM     19  O   LIG    1        0.002  -0.004   0.002  0.00  0.00    -0.390 OA
ENDBRANCH  17  19
ENDBRANCH  16  17
ENDBRANCH  11  16
ENDBRANCH   1  13
TORSDOF 5
ENDMDL
MODEL      972
REMARK  Name = ZINC000100005182
REMARK                            x       y       z     vdW  Elec       q    Type
REMARK                         _______ _______ _______ _____ _____    ______ ____
ROOT
ATOM      1  C   LIG    1       -2.580  -2.823   0.011  0.00  0.00    +0.210 C 
ENDROOT
BRANCH   1   2
ATOM      2  C   LIG    1       -1.246  -2.121   0.003  0.00  0.00    +0.350 C 
ATOM      3  O   LIG    1       -0.225  -2.765  -0.011  0.00  0.00    -0.370 OA
BRANCH   2   4
ATOM      4  C   LIG    1       -1.189  -0.631   0.010  0.00  0.00    +0.430 C 
ATOM      5  O   LIG    1       -2.215   0.015   0.023  0.00  0.00    -0.470 OA
BRANCH   4   7
ATOM      6  C   LIG    1       -0.018   1.448   0.010  0.00  0.00    +0.280 C 
ATOM      7  O   LIG    1        0.002  -0.004   0.002  0.00  0.00    -0.340 OA
ENDBRANCH   4   7
ENDBRANCH   2   4
ENDBRANCH   1   2
BRANCH   1   8
ATOM      8  O   LIG    1       -2.398  -4.195  -0.346  0.00  0.00    -0.510 OA
ATOM      9  H   LIG    1       -1.814  -4.683   0.250  0.00  0.00    +0.380 HD
ENDBRANCH   1   8
BRANCH   1  10
ATOM     10  C   LIG    1       -3.192  -2.738   1.411  0.00  0.00    +0.180 C 
BRANCH  10  11
ATOM     11  O   LIG    1       -2.267  -3.259   2.368  0.00  0.00    -0.550 OA
ATOM     12  H   LIG    1       -2.025  -4.183   2.218  0.00  0.00    +0.380 HD
ENDBRANCH  10  11
BRANCH  10  13
ATOM     13  C   LIG    1       -4.484  -3.556   1.454  0.00  0.00    +0.210 C 
BRANCH  13  14
ATOM     14  O   LIG    1       -4.215  -4.894   1.030  0.00  0.00    -0.530 OA
ATOM     15  H   LIG    1       -3.566  -5.357   1.577  0.00  0.00    +0.360 HD
ENDBRANCH  13  14
BRANCH  13  16
ATOM     16  C   LIG    1       -5.030  -3.574   2.883  0.00  0.00    +0.170 C 
BRANCH  16  17
ATOM     17  O   LIG    1       -6.295  -4.238   2.901  0.00  0.00    -0.560 OA
ATOM     18  H   LIG    1       -6.701  -4.286   3.778  0.00  0.00    +0.380 HD
ENDBRANCH  16  17
ENDBRANCH  13  16
ENDBRANCH  10  13
ENDBRANCH   1  10
TORSDOF 10
ENDMDL
MODEL      973
REMARK  Name = ZINC000034781450
REMARK                            x       y       z     vdW  Elec       q    Type
REMARK                         _______ _______ _______ _____ _____    ______ ____
ROOT
ATOM      1  N   LIG    1        1.356  -2.504  -2.349  0.00  0.00    -0.660 NA
ATOM      2  H   LIG    1        0.914  -2.103  -3.162  0.00  0.00    +0.360 HD
ENDROOT
BRANCH   1   3
ATOM      3  C   LIG    1        1.433  -3.967  -2.458  0.00  0.00    +0.170 C 
ATOM      4  C   LIG    1        2.681  -4.485  -1.723  0.00  0.00    +0.080 C 
ATOM      5  C   LIG    1        2.924  -5.951  -2.133  0.00  0.00    -0.310 C 
ATOM      6  S   LIG    1        2.219  -6.097  -3.815  0.00  0.00    +2.400 S 
ATOM      7  O   LIG    1        1.125  -7.003  -3.790  0.00  0.00    -0.930 OA
ATOM      8  O   LIG    1        3.271  -6.284  -4.752  0.00  0.00    -0.930 OA
ATOM      9  C   LIG    1        1.587  -4.381  -3.944  0.00  0.00    -0.310 C 
ENDBRANCH   1   3
BRANCH   1  10
ATOM     10  C   LIG    1        0.657  -2.104  -1.120  0.00  0.00    +0.260 C 
BRANCH  10  11
ATOM     11  C   LIG    1        0.598  -0.600  -1.043  0.00  0.00    +0.460 C 
ATOM     12  O   LIG    1        1.088   0.070  -1.921  0.00  0.00    -0.490 OA
BRANCH  11  14
ATOM     13  C   LIG    1       -0.018   1.448   0.010  0.00  0.00    +0.270 C 
ATOM     14  O   LIG    1        0.002  -0.004   0.002  0.00  0.00    -0.360 OA
ENDBRANCH  11  14
ENDBRANCH  10  11
ENDBRANCH   1  10
TORSDOF 4
ENDMDL
MODEL      974
REMARK  Name = ZINC000013511528
REMARK                            x       y       z     vdW  Elec       q    Type
REMARK                         _______ _______ _______ _____ _____    ______ ____
ROOT
ATOM      1  C   LIG    1       -0.018   1.461   0.010  0.00  0.00    +0.340 C 
ATOM      2  N   LIG    1        0.002  -0.004   0.002  0.00  0.00    -0.510 N 
ATOM      3  C   LIG    1       -1.189  -0.711   0.004  0.00  0.00    +0.360 A 
ATOM      4  C   LIG    1       -1.143  -2.104  -0.004  0.00  0.00    -0.150 A 
ATOM      5  N   LIG    1       -2.457  -2.531   0.002  0.00  0.00    -0.450 N 
ATOM      6  C   LIG    1       -2.989  -3.892   0.005  0.00  0.00    +0.370 C 
ATOM      7  C   LIG    1       -4.463  -3.863  -0.295  0.00  0.00    +0.520 C 
ATOM      8  N   LIG    1       -5.192  -2.739  -0.270  0.00  0.00    -0.500 N 
ATOM      9  H   LIG    1       -6.144  -2.790  -0.451  0.00  0.00    +0.440 HD
ATOM     10  N   LIG    1       -4.617  -1.488   0.009  0.00  0.00    -0.490 N 
ATOM     11  H   LIG    1       -5.166  -0.710   0.195  0.00  0.00    +0.460 HD
ATOM     12  O   LIG    1       -5.017  -4.905  -0.572  0.00  0.00    -0.500 OA
ATOM     13  C   LIG    1       -3.239  -1.410   0.008  0.00  0.00    +0.550 A 
ATOM     14  C   LIG    1        0.108  -2.746  -0.014  0.00  0.00    +0.600 A 
ATOM     15  N   LIG    1        1.234  -2.003  -0.016  0.00  0.00    -0.650 N 
ATOM     16  H   LIG    1        2.097  -2.445  -0.023  0.00  0.00    +0.440 HD
ATOM     17  O   LIG    1        0.175  -3.963  -0.022  0.00  0.00    -0.510 OA
ATOM     18  N   LIG    1       -2.474  -0.347   0.012  0.00  0.00    -0.510 NA
ATOM     19  C   LIG    1        1.178  -0.660  -0.013  0.00  0.00    +0.710 A 
ATOM     20  O   LIG    1        2.213  -0.022  -0.014  0.00  0.00    -0.530 OA
ENDROOT
TORSDOF 0
ENDMDL
MODEL      975
REMARK  Name = ZINC000005051638
REMARK                            x       y       z     vdW  Elec       q    Type
REMARK                         _______ _______ _______ _____ _____    ______ ____
ROOT
ATOM      1  C   LIG    1       -0.019   1.526   0.010  0.00  0.00    +0.110 C 
ATOM      2  C   LIG    1        0.002  -0.004   0.002  0.00  0.00    +0.130 C 
ATOM      3  C   LIG    1        0.854  -0.605  -1.087  0.00  0.00    -0.030 C 
ATOM      4  C   LIG    1        1.303  -1.792  -0.699  0.00  0.00    +0.010 C 
ATOM      5  C   LIG    1        0.584  -2.039   0.664  0.00  0.00    +0.170 C 
ATOM      6  C   LIG    1       -0.805  -2.176   0.139  0.00  0.00    -0.110 C 
ATOM      7  C   LIG    1       -2.025  -2.929   0.159  0.00  0.00    +0.590 C 
ATOM      8  N   LIG    1       -2.844  -2.199  -0.682  0.00  0.00    -0.720 N 
ATOM      9  H   LIG    1       -3.688  -2.525  -1.031  0.00  0.00    +0.420 HD
ATOM     10  C   LIG    1       -2.324  -0.956  -0.968  0.00  0.00    +0.540 C 
ATOM     11  O   LIG    1       -2.574  -0.240  -1.915  0.00  0.00    -0.440 OA
ATOM     12  O   LIG    1       -2.275  -3.950   0.763  0.00  0.00    -0.450 OA
ATOM     13  C   LIG    1       -1.365  -0.652   0.220  0.00  0.00    +0.050 C 
ATOM     14  O   LIG    1        0.673  -0.645   1.168  0.00  0.00    -0.340 OA
ENDROOT
BRANCH   5  15
ATOM     15  C   LIG    1        1.110  -3.155   1.568  0.00  0.00    +0.250 C 
BRANCH  15  16
ATOM     16  O   LIG    1        2.482  -2.906   1.883  0.00  0.00    -0.560 OA
ATOM     17  H   LIG    1        2.882  -3.575   2.454  0.00  0.00    +0.390 HD
ENDBRANCH  15  16
ENDBRANCH   5  15
TORSDOF 2
ENDMDL
MODEL      976
REMARK  Name = ZINC000026420802
REMARK                            x       y       z     vdW  Elec       q    Type
REMARK                         _______ _______ _______ _____ _____    ______ ____
ROOT
ATOM      1  C   LIG    1       -0.018   1.461   0.010  0.00  0.00    +0.350 C 
ATOM      2  N   LIG    1        0.002  -0.004   0.002  0.00  0.00    -0.560 N 
ATOM      3  C   LIG    1       -1.165  -0.684   0.004  0.00  0.00    +0.580 A 
ATOM      4  C   LIG    1       -1.114  -2.152  -0.004  0.00  0.00    -0.330 A 
ATOM      5  C   LIG    1       -2.277  -2.936  -0.003  0.00  0.00    +0.350 A 
ATOM      6  C   LIG    1       -2.123  -4.324  -0.012  0.00  0.00    -0.130 A 
ATOM      7  C   LIG    1       -0.854  -4.863  -0.021  0.00  0.00    +0.380 A 
ATOM      8  N   LIG    1        0.225  -4.100  -0.021  0.00  0.00    -0.550 NA
ATOM      9  C   LIG    1        0.144  -2.781  -0.014  0.00  0.00    +0.450 A 
ATOM     10  N   LIG    1        1.278  -1.988  -0.015  0.00  0.00    -0.530 N 
ATOM     11  C   LIG    1        2.602  -2.617  -0.024  0.00  0.00    +0.350 C 
ATOM     12  O   LIG    1       -2.231  -0.097   0.012  0.00  0.00    -0.520 OA
ATOM     13  C   LIG    1        1.180  -0.648  -0.013  0.00  0.00    +0.710 A 
ATOM     14  O   LIG    1        2.202   0.010  -0.014  0.00  0.00    -0.530 OA
ENDROOT
BRANCH   5  15
ATOM     15  N   LIG    1       -3.533  -2.354   0.005  0.00  0.00    -0.550 N 
ATOM     16  H   LIG    1       -3.620  -1.388   0.011  0.00  0.00    +0.420 HD
BRANCH  15  17
ATOM     17  N   LIG    1       -4.650  -3.141   0.006  0.00  0.00    -0.610 NA
ATOM     18  H   LIG    1       -5.488  -2.579   0.013  0.00  0.00    +0.370 HD
ATOM     19  H   LIG    1       -4.639  -3.784   0.784  0.00  0.00    +0.340 HD
ENDBRANCH  15  17
ENDBRANCH   5  15
TORSDOF 2
ENDMDL
MODEL      977
REMARK  Name = ZINC000011693090
REMARK                            x       y       z     vdW  Elec       q    Type
REMARK                         _______ _______ _______ _____ _____    ______ ____
ROOT
ATOM      1  C   LIG    1       -0.018   1.461   0.010  0.00  0.00    +0.350 C 
ATOM      2  N   LIG    1        0.002  -0.004   0.002  0.00  0.00    -0.510 N 
ATOM      3  C   LIG    1       -1.189  -0.713   0.004  0.00  0.00    +0.360 A 
ATOM      4  C   LIG    1       -1.140  -2.102  -0.004  0.00  0.00    -0.150 A 
ATOM      5  N   LIG    1       -2.460  -2.537   0.001  0.00  0.00    -0.460 N 
ATOM      6  C   LIG    1       -3.295  -3.746  -0.001  0.00  0.00    +0.320 C 
ATOM      7  C   LIG    1       -4.739  -3.215   0.009  0.00  0.00    +0.310 C 
ATOM      8  N   LIG    1       -4.589  -1.755   0.016  0.00  0.00    -0.700 N 
ATOM      9  H   LIG    1       -5.318  -1.116   0.023  0.00  0.00    +0.440 HD
ATOM     10  C   LIG    1       -3.248  -1.437   0.011  0.00  0.00    +0.530 A 
ATOM     11  C   LIG    1        0.109  -2.747  -0.014  0.00  0.00    +0.590 A 
ATOM     12  N   LIG    1        1.235  -2.004  -0.016  0.00  0.00    -0.550 N 
ATOM     13  C   LIG    1        2.539  -2.670  -0.026  0.00  0.00    +0.350 C 
ATOM     14  O   LIG    1        0.174  -3.964  -0.021  0.00  0.00    -0.520 OA
ATOM     15  N   LIG    1       -2.473  -0.357   0.012  0.00  0.00    -0.520 NA
ATOM     16  C   LIG    1        1.177  -0.661  -0.013  0.00  0.00    +0.710 A 
ATOM     17  O   LIG    1        2.213  -0.023  -0.015  0.00  0.00    -0.530 OA
ENDROOT
TORSDOF 0
ENDMDL
MODEL      978
REMARK  Name = ZINC000015884447
REMARK                            x       y       z     vdW  Elec       q    Type
REMARK                         _______ _______ _______ _____ _____    ______ ____
ROOT
ATOM      1  C   LIG    1       -0.018   1.461   0.010  0.00  0.00    +0.340 C 
ATOM      2  N   LIG    1        0.002  -0.004   0.002  0.00  0.00    -0.510 N 
ATOM      3  C   LIG    1       -1.186  -0.701   0.004  0.00  0.00    +0.260 A 
ATOM      4  C   LIG    1       -1.157  -2.088  -0.004  0.00  0.00    -0.060 A 
ATOM      5  C   LIG    1        0.145  -2.755  -0.013  0.00  0.00    +0.590 A 
ATOM      6  N   LIG    1        1.260  -1.994  -0.014  0.00  0.00    -0.550 N 
ATOM      7  C   LIG    1        2.575  -2.639  -0.024  0.00  0.00    +0.340 C 
ATOM      8  O   LIG    1        0.221  -3.970  -0.021  0.00  0.00    -0.480 OA
ATOM      9  N   LIG    1       -2.444  -2.524   0.000  0.00  0.00    -0.440 NA
ATOM     10  C   LIG    1       -3.244  -1.488   0.010  0.00  0.00    +0.510 A 
ATOM     11  N   LIG    1       -2.500  -0.340   0.012  0.00  0.00    -0.580 N 
ATOM     12  H   LIG    1       -2.846   0.567   0.019  0.00  0.00    +0.430 HD
ATOM     13  C   LIG    1        1.180  -0.652  -0.013  0.00  0.00    +0.710 A 
ATOM     14  O   LIG    1        2.208  -0.003  -0.013  0.00  0.00    -0.530 OA
ENDROOT
BRANCH  10  15
ATOM     15  N   LIG    1       -4.627  -1.546   0.017  0.00  0.00    -0.560 N 
ATOM     16  H   LIG    1       -5.146  -0.726   0.024  0.00  0.00    +0.410 HD
BRANCH  15  17
ATOM     17  N   LIG    1       -5.260  -2.756   0.013  0.00  0.00    -0.580 NA
ATOM     18  H   LIG    1       -4.966  -3.316  -0.773  0.00  0.00    +0.350 HD
ATOM     19  H   LIG    1       -6.263  -2.640   0.019  0.00  0.00    +0.360 HD
ENDBRANCH  15  17
ENDBRANCH  10  15
TORSDOF 2
ENDMDL
MODEL      979
REMARK  Name = ZINC000057453708
REMARK                            x       y       z     vdW  Elec       q    Type
REMARK                         _______ _______ _______ _____ _____    ______ ____
ROOT
ATOM      1  C   LIG    1       -0.018   1.461   0.010  0.00  0.00    +0.350 C 
ATOM      2  N   LIG    1        0.002  -0.004   0.002  0.00  0.00    -0.520 N 
ATOM      3  C   LIG    1       -1.193  -0.704   0.004  0.00  0.00    +0.340 A 
ATOM      4  N   LIG    1       -2.435  -0.332   0.012  0.00  0.00    -0.470 NA
ATOM      5  C   LIG    1       -3.254  -1.549   0.009  0.00  0.00    +0.190 C 
ATOM      6  N   LIG    1       -2.319  -2.679  -0.002  0.00  0.00    -0.340 NA
ATOM      7  C   LIG    1       -4.122  -1.598   1.265  0.00  0.00    +0.080 C 
ATOM      8  C   LIG    1       -4.960  -2.879   1.258  0.00  0.00    +0.030 C 
ATOM      9  C   LIG    1       -5.848  -2.900   0.012  0.00  0.00    +0.020 C 
ATOM     10  C   LIG    1       -4.971  -2.865  -1.240  0.00  0.00    +0.030 C 
ATOM     11  C   LIG    1       -4.133  -1.585  -1.240  0.00  0.00    +0.080 C 
ATOM     12  C   LIG    1       -1.124  -2.189  -0.004  0.00  0.00    +0.060 A 
ATOM     13  C   LIG    1        0.233  -2.806  -0.014  0.00  0.00    +0.590 A 
ATOM     14  N   LIG    1        1.303  -1.983  -0.014  0.00  0.00    -0.560 N 
ATOM     15  C   LIG    1        2.646  -2.568  -0.023  0.00  0.00    +0.370 C 
ATOM     16  O   LIG    1        0.372  -4.012  -0.021  0.00  0.00    -0.450 OA
ATOM     17  C   LIG    1        1.177  -0.650  -0.013  0.00  0.00    +0.720 A 
ATOM     18  O   LIG    1        2.193   0.017  -0.013  0.00  0.00    -0.520 OA
ENDROOT
TORSDOF 0
ENDMDL
MODEL      980
REMARK  Name = ZINC000000057358
REMARK                            x       y       z     vdW  Elec       q    Type
REMARK                         _______ _______ _______ _____ _____    ______ ____
ROOT
ATOM      1  C   LIG    1       -0.018   1.461   0.010  0.00  0.00    +0.350 C 
ATOM      2  N   LIG    1        0.002  -0.004   0.002  0.00  0.00    -0.510 N 
ATOM      3  C   LIG    1       -1.189  -0.712   0.004  0.00  0.00    +0.320 A 
ATOM      4  C   LIG    1       -1.144  -2.100  -0.004  0.00  0.00    -0.150 A 
ATOM      5  N   LIG    1       -2.456  -2.530   0.000  0.00  0.00    -0.410 N 
ATOM      6  C   LIG    1       -3.231  -1.427   0.010  0.00  0.00    +0.500 A 
ATOM      7  C   LIG    1        0.111  -2.748  -0.013  0.00  0.00    +0.590 A 
ATOM      8  N   LIG    1        1.236  -2.003  -0.015  0.00  0.00    -0.550 N 
ATOM      9  C   LIG    1        2.541  -2.668  -0.025  0.00  0.00    +0.360 C 
ATOM     10  O   LIG    1        0.176  -3.964  -0.021  0.00  0.00    -0.510 OA
ATOM     11  N   LIG    1       -2.477  -0.358   0.012  0.00  0.00    -0.500 NA
ATOM     12  C   LIG    1        1.178  -0.660  -0.013  0.00  0.00    +0.710 A 
ATOM     13  O   LIG    1        2.213  -0.022  -0.014  0.00  0.00    -0.530 OA
ENDROOT
BRANCH   5  14
ATOM     14  C   LIG    1       -2.918  -3.920  -0.005  0.00  0.00    +0.320 C 
BRANCH  14  15
ATOM     15  C   LIG    1       -2.953  -4.450   1.430  0.00  0.00    +0.180 C 
BRANCH  15  16
ATOM     16  O   LIG    1       -3.404  -5.806   1.426  0.00  0.00    -0.570 OA
ATOM     17  H   LIG    1       -3.451  -6.208   2.304  0.00  0.00    +0.390 HD
ENDBRANCH  15  16
ENDBRANCH  14  15
ENDBRANCH   5  14
TORSDOF 3
ENDMDL
MODEL      981
REMARK  Name = ZINC000015884450
REMARK                            x       y       z     vdW  Elec       q    Type
REMARK                         _______ _______ _______ _____ _____    ______ ____
ROOT
ATOM      1  C   LIG    1       -0.018   1.461   0.010  0.00  0.00    +0.350 C 
ATOM      2  N   LIG    1        0.002  -0.004   0.002  0.00  0.00    -0.510 N 
ATOM      3  C   LIG    1       -1.189  -0.712   0.004  0.00  0.00    +0.320 A 
ATOM      4  C   LIG    1       -1.144  -2.100  -0.004  0.00  0.00    -0.150 A 
ATOM      5  N   LIG    1       -2.456  -2.530   0.000  0.00  0.00    -0.410 N 
ATOM      6  C   LIG    1       -3.231  -1.427   0.010  0.00  0.00    +0.500 A 
ATOM      7  C   LIG    1        0.111  -2.748  -0.013  0.00  0.00    +0.590 A 
ATOM      8  N   LIG    1        1.236  -2.003  -0.015  0.00  0.00    -0.550 N 
ATOM      9  C   LIG    1        2.541  -2.668  -0.025  0.00  0.00    +0.360 C 
ATOM     10  O   LIG    1        0.176  -3.964  -0.021  0.00  0.00    -0.510 OA
ATOM     11  N   LIG    1       -2.477  -0.358   0.012  0.00  0.00    -0.500 NA
ATOM     12  C   LIG    1        1.178  -0.660  -0.013  0.00  0.00    +0.710 A 
ATOM     13  O   LIG    1        2.213  -0.022  -0.014  0.00  0.00    -0.530 OA
ENDROOT
BRANCH   5  14
ATOM     14  C   LIG    1       -2.918  -3.920  -0.005  0.00  0.00    +0.330 C 
BRANCH  14  15
ATOM     15  C   LIG    1       -2.953  -4.450   1.430  0.00  0.00    +0.020 C 
BRANCH  15  16
ATOM     16  C   LIG    1       -3.436  -5.902   1.425  0.00  0.00    +0.180 C 
BRANCH  16  17
ATOM     17  O   LIG    1       -3.468  -6.398   2.765  0.00  0.00    -0.570 OA
ATOM     18  H   LIG    1       -3.766  -7.315   2.838  0.00  0.00    +0.390 HD
ENDBRANCH  16  17
ENDBRANCH  15  16
ENDBRANCH  14  15
ENDBRANCH   5  14
TORSDOF 4
ENDMDL
MODEL      982
REMARK  Name = ZINC000100034211
REMARK                            x       y       z     vdW  Elec       q    Type
REMARK                         _______ _______ _______ _____ _____    ______ ____
ROOT
ATOM      1  C   LIG    1       -0.018   1.461   0.010  0.00  0.00    +0.360 C 
ATOM      2  N   LIG    1        0.002  -0.004   0.002  0.00  0.00    -0.490 N 
ATOM      3  C   LIG    1        0.008  -0.794  -1.091  0.00  0.00    +0.680 A 
ATOM      4  N   LIG    1        0.028  -2.082  -0.698  0.00  0.00    -0.610 N 
ATOM      5  H   LIG    1        0.036  -2.852  -1.288  0.00  0.00    +0.440 HD
ATOM      6  C   LIG    1        0.034  -2.127   0.673  0.00  0.00    +0.350 A 
ATOM      7  N   LIG    1        0.053  -3.160   1.582  0.00  0.00    -0.520 N 
ATOM      8  C   LIG    1        0.063  -4.546   1.110  0.00  0.00    +0.350 C 
ATOM      9  C   LIG    1        0.051  -2.901   2.903  0.00  0.00    +0.710 A 
ATOM     10  O   LIG    1        0.063  -3.827   3.692  0.00  0.00    -0.520 OA
ATOM     11  N   LIG    1        0.042  -1.639   3.367  0.00  0.00    -0.550 N 
ATOM     12  C   LIG    1        0.046  -1.397   4.812  0.00  0.00    +0.360 C 
ATOM     13  C   LIG    1        0.028  -0.593   2.515  0.00  0.00    +0.590 A 
ATOM     14  O   LIG    1        0.018   0.549   2.940  0.00  0.00    -0.500 OA
ATOM     15  O   LIG    1       -0.001  -0.406  -2.244  0.00  0.00    -0.540 OA
ATOM     16  C   LIG    1        0.024  -0.836   1.126  0.00  0.00    -0.100 A 
ENDROOT
TORSDOF 0
ENDMDL
MODEL      983
REMARK  Name = ZINC000000337818
REMARK                            x       y       z     vdW  Elec       q    Type
REMARK                         _______ _______ _______ _____ _____    ______ ____
ROOT
ATOM      1  C   LIG    1       -0.018   1.461   0.010  0.00  0.00    +0.360 C 
ATOM      2  N   LIG    1        0.002  -0.004   0.002  0.00  0.00    -0.560 N 
ATOM      3  C   LIG    1        0.005  -0.661  -1.178  0.00  0.00    +0.570 A 
ATOM      4  C   LIG    1        0.025  -2.138  -1.156  0.00  0.00    -0.020 A 
ATOM      5  N   LIG    1        0.030  -2.851  -2.273  0.00  0.00    -0.340 NA
ATOM      6  C   LIG    1        0.049  -4.169  -2.204  0.00  0.00    +0.240 A 
ATOM      7  CA  LIG    1        0.063  -4.807  -0.971  0.00  0.00    +0.160 A 
ATOM      8  N   LIG    1        0.059  -4.106   0.149  0.00  0.00    -0.470 NA
ATOM      9  C   LIG    1        0.040  -2.783   0.094  0.00  0.00    +0.360 A 
ATOM     10  N   LIG    1        0.036  -2.011   1.241  0.00  0.00    -0.520 N 
ATOM     11  C   LIG    1        0.052  -2.664   2.552  0.00  0.00    +0.370 C 
ATOM     12  O   LIG    1       -0.007  -0.053  -2.231  0.00  0.00    -0.450 OA
ATOM     13  C   LIG    1        0.022  -0.669   1.168  0.00  0.00    +0.710 A 
ATOM     14  O   LIG    1        0.019  -0.030   2.202  0.00  0.00    -0.520 OA
ENDROOT
BRANCH   7  15
ATOM     15  C   LIG    1        0.084  -6.313  -0.910  0.00  0.00    +0.310 C 
BRANCH  15  16
ATOM     16  O   LIG    1        0.085  -6.844  -2.237  0.00  0.00    -0.570 OA
ATOM     17  H   LIG    1        0.098  -7.810  -2.274  0.00  0.00    +0.400 HD
ENDBRANCH  15  16
ENDBRANCH   7  15
TORSDOF 2
ENDMDL
MODEL      984
REMARK  Name = ZINC000016929327
REMARK                            x       y       z     vdW  Elec       q    Type
REMARK                         _______ _______ _______ _____ _____    ______ ____
ROOT
ATOM      1  C   LIG    1        0.002  -0.004   0.002  0.00  0.00    +0.630 A 
ATOM      2  N   LIG    1       -1.139  -0.678   0.004  0.00  0.00    -0.640 NA
ATOM      3  C   LIG    1       -1.126  -2.014  -0.004  0.00  0.00    +0.660 A 
ATOM      4  N   LIG    1        0.054  -2.668  -0.013  0.00  0.00    -0.550 N 
ATOM      5  C   LIG    1        1.207  -1.963  -0.014  0.00  0.00    +0.680 A 
ATOM      6  O   LIG    1       -2.173  -2.638  -0.002  0.00  0.00    -0.520 OA
ATOM      7  N   LIG    1        1.174  -0.654  -0.013  0.00  0.00    -0.600 NA
ENDROOT
BRANCH   4   8
ATOM      8  C1* LIG    1        0.085  -4.133  -0.021  0.00  0.00    +0.410 C 
ATOM      9  C2* LIG    1        0.738  -4.649  -1.323  0.00  0.00    -0.000 C 
ATOM     10  C3* LIG    1        1.548  -5.885  -0.872  0.00  0.00    +0.170 C 
ATOM     11  C4* LIG    1        1.290  -5.969   0.649  0.00  0.00    +0.190 C 
ATOM     12  O4* LIG    1        0.933  -4.624   1.040  0.00  0.00    -0.360 OA
BRANCH  10  13
ATOM     13  O3* LIG    1        1.074  -7.062  -1.529  0.00  0.00    -0.550 OA
ATOM     14  H3* LIG    1        1.159  -7.036  -2.492  0.00  0.00    +0.390 HD
ENDBRANCH  10  13
BRANCH  11  15
ATOM     15  C5* LIG    1        2.555  -6.422   1.380  0.00  0.00    +0.220 C 
BRANCH  15  16
ATOM     16  O5* LIG    1        2.263  -6.605   2.767  0.00  0.00    -0.570 OA
ATOM     17  H5* LIG    1        3.022  -6.893   3.294  0.00  0.00    +0.390 HD
ENDBRANCH  15  16
ENDBRANCH  11  15
ENDBRANCH   4   8
BRANCH   1  18
ATOM     18  N   LIG    1       -0.017   1.368   0.010  0.00  0.00    -0.790 N 
ATOM     19  H   LIG    1       -0.863   1.842   0.016  0.00  0.00    +0.420 HD
ATOM     20  H   LIG    1        0.817   1.865   0.004  0.00  0.00    +0.420 HD
ENDBRANCH   1  18
TORSDOF 5
ENDMDL
MODEL      985
REMARK  Name = ZINC000100055794
REMARK                            x       y       z     vdW  Elec       q    Type
REMARK                         _______ _______ _______ _____ _____    ______ ____
ROOT
ATOM      1  O   LIG    1        0.002  -0.004   0.002  0.00  0.00    -0.430 OA
ATOM      2  C   LIG    1       -0.014   1.204   0.009  0.00  0.00    +0.460 C 
ATOM      3  O   LIG    1       -1.114   1.979   0.029  0.00  0.00    -0.340 OA
ATOM      4  C   LIG    1       -0.836   3.194  -0.730  0.00  0.00    +0.180 C 
ATOM      5  C   LIG    1        0.667   3.469  -0.510  0.00  0.00    +0.190 C 
ATOM      6  C   LIG    1        1.200   2.110   0.002  0.00  0.00    +0.110 C 
ENDROOT
BRANCH   5   7
ATOM      7  O   LIG    1        0.856   4.487   0.474  0.00  0.00    -0.500 OA
ATOM      8  H   LIG    1        1.783   4.698   0.650  0.00  0.00    +0.380 HD
ENDBRANCH   5   7
BRANCH   6   9
ATOM      9  O   LIG    1        1.738   2.250   1.319  0.00  0.00    -0.520 OA
ATOM     10  H   LIG    1        2.087   1.428   1.690  0.00  0.00    +0.390 HD
ENDBRANCH   6   9
BRANCH   4  11
ATOM     11  C   LIG    1       -1.674   4.357  -0.196  0.00  0.00    +0.220 C 
BRANCH  11  12
ATOM     12  O   LIG    1       -1.298   4.637   1.153  0.00  0.00    -0.520 OA
ATOM     13  H   LIG    1       -1.423   3.893   1.759  0.00  0.00    +0.380 HD
ENDBRANCH  11  12
BRANCH  11  14
ATOM     14  C   LIG    1       -3.157   3.982  -0.245  0.00  0.00    +0.180 C 
BRANCH  14  15
ATOM     15  O   LIG    1       -3.534   3.703  -1.594  0.00  0.00    -0.540 OA
ATOM     16  H   LIG    1       -3.408   4.446  -2.200  0.00  0.00    +0.370 HD
ENDBRANCH  14  15
BRANCH  14  17
ATOM     17  C   LIG    1       -3.995   5.145   0.289  0.00  0.00    +0.170 C 
BRANCH  17  18
ATOM     18  O   LIG    1       -5.368   4.753   0.353  0.00  0.00    -0.570 OA
ATOM     19  H   LIG    1       -5.959   5.443   0.683  0.00  0.00    +0.380 HD
ENDBRANCH  17  18
ENDBRANCH  14  17
ENDBRANCH  11  14
ENDBRANCH   4  11
TORSDOF 8
ENDMDL
MODEL      986
REMARK  Name = ZINC000008382902
REMARK                            x       y       z     vdW  Elec       q    Type
REMARK                         _______ _______ _______ _____ _____    ______ ____
ROOT
ATOM      1  C   LIG    1       -1.992  -0.739   1.272  0.00  0.00    +0.150 C 
ENDROOT
BRANCH   1   7
ATOM      2  N   LIG    1        0.002  -0.004   0.002  0.00  0.00    -0.400 N 
ATOM      3  C   LIG    1        1.081  -0.818  -0.007  0.00  0.00    +0.330 C 
ATOM      4  N   LIG    1        0.698  -2.101  -0.012  0.00  0.00    -0.120 NA
ATOM      5  N   LIG    1       -0.525  -2.257  -0.007  0.00  0.00    -0.050 NA
ATOM      6  S   LIG    1        2.707  -0.284  -0.010  0.00  0.00    -0.370 S 
ATOM      7  C   LIG    1       -1.151  -0.925   0.008  0.00  0.00    +0.330 C 
BRANCH   2   8
ATOM      8  N   LIG    1       -0.016   1.362   0.009  0.00  0.00    -0.550 NA
ATOM      9  H   LIG    1       -0.555   1.720  -0.765  0.00  0.00    +0.370 HD
ATOM     10  H   LIG    1        0.920   1.736   0.003  0.00  0.00    +0.400 HD
ENDBRANCH   2   8
ENDBRANCH   1   7
BRANCH   1  11
ATOM     11  C   LIG    1       -3.113  -1.780   1.296  0.00  0.00    +0.340 C 
ATOM     12  N   LIG    1       -2.569  -3.123   1.552  0.00  0.00    -0.050 NA
ATOM     13  N   LIG    1       -3.060  -3.537   2.606  0.00  0.00    -0.120 NA
ATOM     14  C   LIG    1       -3.909  -2.677   3.182  0.00  0.00    +0.330 C 
ATOM     15  S   LIG    1       -4.745  -2.964   4.647  0.00  0.00    -0.380 S 
ATOM     16  N   LIG    1       -4.012  -1.549   2.443  0.00  0.00    -0.400 N 
BRANCH  16  17
ATOM     17  N   LIG    1       -4.776  -0.446   2.701  0.00  0.00    -0.550 NA
ATOM     18  H   LIG    1       -4.208   0.388   2.729  0.00  0.00    +0.360 HD
ATOM     19  H   LIG    1       -5.296  -0.559   3.559  0.00  0.00    +0.400 HD
ENDBRANCH  16  17
ENDBRANCH   1  11
TORSDOF 4
ENDMDL
MODEL      987
REMARK  Name = ZINC000004831424
REMARK                            x       y       z     vdW  Elec       q    Type
REMARK                         _______ _______ _______ _____ _____    ______ ____
ROOT
ATOM      1  C   LIG    1        0.633  -2.108   1.011  0.00  0.00    +0.190 C 
ATOM      2  O   LIG    1        1.383  -2.522  -0.133  0.00  0.00    -0.380 OA
ATOM      3  C   LIG    1        1.389  -3.934  -0.347  0.00  0.00    +0.300 C 
ATOM      4  C   LIG    1        2.028  -4.629   0.858  0.00  0.00    +0.140 C 
ATOM      5  C   LIG    1        1.252  -4.254   2.124  0.00  0.00    +0.170 C 
ATOM      6  C   LIG    1        1.241  -2.729   2.271  0.00  0.00    +0.160 C 
ENDROOT
BRANCH   5   7
ATOM      7  O   LIG    1        1.884  -4.840   3.264  0.00  0.00    -0.540 OA
ATOM      8  H   LIG    1        1.931  -5.806   3.234  0.00  0.00    +0.380 HD
ENDBRANCH   5   7
BRANCH   4   9
ATOM      9  O   LIG    1        3.387  -4.207   0.987  0.00  0.00    -0.540 OA
ATOM     10  H   LIG    1        3.936  -4.410   0.217  0.00  0.00    +0.390 HD
ENDBRANCH   4   9
BRANCH   3  11
ATOM     11  O   LIG    1        2.140  -4.235  -1.525  0.00  0.00    -0.540 OA
ATOM     12  H   LIG    1        1.792  -3.826  -2.329  0.00  0.00    +0.400 HD
ENDBRANCH   3  11
BRANCH   6  13
ATOM     13  O   LIG    1        0.460  -2.364   3.410  0.00  0.00    -0.380 OA
ATOM     14  C   LIG    1        1.208  -2.280   4.625  0.00  0.00    +0.220 C 
ENDBRANCH   6  13
BRANCH   1  15
ATOM     15  C   LIG    1        0.673  -0.582   1.123  0.00  0.00    +0.210 C 
BRANCH  15  17
ATOM     16  C   LIG    1       -0.017   1.425   0.010  0.00  0.00    +0.200 C 
ATOM     17  O   LIG    1        0.002  -0.004   0.002  0.00  0.00    -0.390 OA
ENDBRANCH  15  17
ENDBRANCH   1  15
TORSDOF 6
ENDMDL
MODEL      988
REMARK  Name = ZINC000036110970
REMARK                            x       y       z     vdW  Elec       q    Type
REMARK                         _______ _______ _______ _____ _____    ______ ____
ROOT
ATOM      1  S   LIG    1        0.038  -4.452  -2.632  0.00  0.00    +2.620 S 
ATOM      2  O   LIG    1       -1.188  -4.971  -2.133  0.00  0.00    -0.940 OA
ATOM      3  O   LIG    1        1.286  -4.937  -2.156  0.00  0.00    -0.940 OA
ENDROOT
BRANCH   1   4
ATOM      4  N   LIG    1        0.028  -4.857  -4.238  0.00  0.00    -1.000 NA
ATOM      5  C   LIG    1       -1.238  -5.053  -4.962  0.00  0.00    +0.270 C 
ATOM      6  C   LIG    1       -1.195  -4.218  -6.247  0.00  0.00    +0.220 C 
ATOM      7  O   LIG    1        0.002  -4.523  -6.966  0.00  0.00    -0.370 OA
ATOM      8  C   LIG    1        1.205  -4.196  -6.266  0.00  0.00    +0.210 C 
ATOM      9  C   LIG    1        1.285  -5.025  -4.984  0.00  0.00    +0.270 C 
ENDBRANCH   1   4
BRANCH   1  10
ATOM     10  C   LIG    1        0.013  -2.639  -2.622  0.00  0.00    -0.370 C 
BRANCH  10  11
ATOM     11  C   LIG    1        0.020  -2.136  -1.177  0.00  0.00    +0.290 C 
BRANCH  11  14
ATOM     12  C   LIG    1       -0.018   1.503   0.010  0.00  0.00    +0.110 C 
ATOM     13  C   LIG    1        0.002  -0.004   0.002  0.00  0.00    +0.510 C 
ATOM     14  N   LIG    1        0.000  -0.672  -1.169  0.00  0.00    -0.730 N 
ATOM     15  H   LIG    1       -0.015  -0.182  -2.006  0.00  0.00    +0.400 HD
ATOM     16  O   LIG    1        0.020  -0.616   1.049  0.00  0.00    -0.540 OA
ENDBRANCH  11  14
ENDBRANCH  10  11
ENDBRANCH   1  10
TORSDOF 4
ENDMDL
MODEL      989
REMARK  Name = ZINC000005373497
REMARK                            x       y       z     vdW  Elec       q    Type
REMARK                         _______ _______ _______ _____ _____    ______ ____
ROOT
ATOM      1  C   LIG    1        2.454   1.494  -0.010  0.00  0.00    +0.430 C 
ENDROOT
BRANCH   1   7
ATOM      2  O   LIG    1        0.002  -0.004   0.002  0.00  0.00    -0.520 OA
ATOM      3  C   LIG    1       -0.014   1.209   0.009  0.00  0.00    +0.520 C 
ATOM      4  C   LIG    1       -1.266   2.058   0.032  0.00  0.00    +0.070 C 
ATOM      5  C   LIG    1       -0.765   3.459   0.452  0.00  0.00    +0.040 C 
ATOM      6  C   LIG    1        0.711   3.415   0.001  0.00  0.00    +0.270 C 
ATOM      7  N   LIG    1        1.077   1.993   0.003  0.00  0.00    -0.640 N 
ENDBRANCH   1   7
BRANCH   1   8
ATOM      8  O   LIG    1        3.361   2.598  -0.024  0.00  0.00    -0.540 OA
ATOM      9  H   LIG    1        3.277   3.186   0.740  0.00  0.00    +0.370 HD
ENDBRANCH   1   8
BRANCH   1  10
ATOM     10  C   LIG    1        2.701   0.647   1.240  0.00  0.00    +0.430 C 
BRANCH  10  11
ATOM     11  N   LIG    1        4.078   0.148   1.228  0.00  0.00    -0.640 N 
ATOM     12  C   LIG    1        5.072   0.435   2.268  0.00  0.00    +0.260 C 
ATOM     13  C   LIG    1        6.187  -0.618   2.075  0.00  0.00    +0.040 C 
ATOM     14  C   LIG    1        6.035  -0.965   0.576  0.00  0.00    +0.060 C 
ATOM     15  C   LIG    1        4.592  -0.636   0.264  0.00  0.00    +0.520 C 
ATOM     16  O   LIG    1        3.988  -1.019  -0.716  0.00  0.00    -0.520 OA
ENDBRANCH  10  11
BRANCH  10  17
ATOM     17  O   LIG    1        2.495   1.447   2.406  0.00  0.00    -0.540 OA
ATOM     18  H   LIG    1        3.078   2.217   2.463  0.00  0.00    +0.370 HD
ENDBRANCH  10  17
ENDBRANCH   1  10
TORSDOF 5
ENDMDL
MODEL      990
REMARK  Name = ZINC000005373478
REMARK                            x       y       z     vdW  Elec       q    Type
REMARK                         _______ _______ _______ _____ _____    ______ ____
ROOT
ATOM      1  C   LIG    1        2.454   1.494  -0.010  0.00  0.00    +0.420 C 
ENDROOT
BRANCH   1   7
ATOM      2  O   LIG    1        0.002  -0.004   0.002  0.00  0.00    -0.510 OA
ATOM      3  C   LIG    1       -0.014   1.209   0.009  0.00  0.00    +0.520 C 
ATOM      4  C   LIG    1       -1.266   2.058   0.032  0.00  0.00    +0.050 C 
ATOM      5  C   LIG    1       -0.765   3.459   0.452  0.00  0.00    +0.040 C 
ATOM      6  C   LIG    1        0.711   3.415   0.001  0.00  0.00    +0.260 C 
ATOM      7  N   LIG    1        1.077   1.993   0.003  0.00  0.00    -0.640 N 
ENDBRANCH   1   7
BRANCH   1   8
ATOM      8  O   LIG    1        2.627   0.601  -1.112  0.00  0.00    -0.540 OA
ATOM      9  H   LIG    1        2.044  -0.170  -1.088  0.00  0.00    +0.390 HD
ENDBRANCH   1   8
BRANCH   1  10
ATOM     10  C   LIG    1        2.740   0.752   1.297  0.00  0.00    +0.420 C 
BRANCH  10  11
ATOM     11  N   LIG    1        4.150   0.357   1.337  0.00  0.00    -0.640 N 
ATOM     12  C   LIG    1        5.126   0.867   2.307  0.00  0.00    +0.250 C 
ATOM     13  C   LIG    1        6.314  -0.120   2.253  0.00  0.00    +0.040 C 
ATOM     14  C   LIG    1        6.179  -0.698   0.825  0.00  0.00    +0.050 C 
ATOM     15  C   LIG    1        4.714  -0.524   0.492  0.00  0.00    +0.520 C 
ATOM     16  O   LIG    1        4.135  -1.091  -0.409  0.00  0.00    -0.510 OA
ENDBRANCH  10  11
BRANCH  10  17
ATOM     17  O   LIG    1        1.916  -0.413   1.374  0.00  0.00    -0.540 OA
ATOM     18  H   LIG    1        2.056  -1.042   0.652  0.00  0.00    +0.390 HD
ENDBRANCH  10  17
ENDBRANCH   1  10
TORSDOF 5
ENDMDL
MODEL      991
REMARK  Name = ZINC000001708207
REMARK                            x       y       z     vdW  Elec       q    Type
REMARK                         _______ _______ _______ _____ _____    ______ ____
ROOT
ATOM      1  CG  CYS A  1       -2.115  -0.576   1.344  0.00  0.00    +0.090 C 
ENDROOT
BRANCH   1   2
ATOM      2  CB  CYS A  1       -2.135   0.949   1.227  0.00  0.00    +0.100 C 
BRANCH   2   3
ATOM      3  CA  CYS A  1       -0.699   1.479   1.216  0.00  0.00    +0.100 C 
BRANCH   3   4
ATOM      4  N   CYS A  1       -0.012   1.005   0.008  0.00  0.00    -0.610 N 
ATOM      5  H1  CYS A  1       -0.500   1.339  -0.810  0.00  0.00    +0.430 HD
ATOM      6  H2  CYS A  1        0.935   1.354   0.000  0.00  0.00    +0.440 HD
ATOM      7  H3  CYS A  1        0.002  -0.004   0.002  0.00  0.00    +0.410 HD
ENDBRANCH   3   4
BRANCH   3   8
ATOM      8  C   CYS A  1       -0.720   2.985   1.224  0.00  0.00    +0.490 C 
ATOM      9  OXT CYS A  1       -1.079   3.585   2.223  0.00  0.00    -0.630 OA
ATOM     10  O   CYS A  1       -0.376   3.605   0.232  0.00  0.00    -0.670 OA
ENDBRANCH   3   8
ENDBRANCH   2   3
ENDBRANCH   1   2
BRANCH   1  11
ATOM     11  SG  CYS A  1       -3.816  -1.204   1.357  0.00  0.00    -0.260 S 
BRANCH  11  12
ATOM     12  CB  CYS A  1       -3.588  -2.998   1.500  0.00  0.00    +0.130 C 
BRANCH  12  13
ATOM     13  CA  CYS A  1       -4.955  -3.686   1.524  0.00  0.00    +0.110 C 
BRANCH  13  14
ATOM     14  N   CYS A  1       -5.728  -3.198   2.674  0.00  0.00    -0.610 N 
ATOM     15  H1  CYS A  1       -5.855  -2.200   2.595  0.00  0.00    +0.420 HD
ATOM     16  H2  CYS A  1       -5.231  -3.407   3.526  0.00  0.00    +0.430 HD
ATOM     17  H3  CYS A  1       -6.629  -3.651   2.690  0.00  0.00    +0.430 HD
ENDBRANCH  13  14
BRANCH  13  18
ATOM     18  C   CYS A  1       -4.766  -5.176   1.642  0.00  0.00    +0.490 C 
ATOM     19  OXT CYS A  1       -4.667  -5.860   0.637  0.00  0.00    -0.630 OA
ATOM     20  O   CYS A  1       -4.711  -5.698   2.743  0.00  0.00    -0.660 OA
ENDBRANCH  13  18
ENDBRANCH  12  13
ENDBRANCH  11  12
ENDBRANCH   1  11
TORSDOF 9
ENDMDL
MODEL      992
REMARK  Name = ZINC000100251355
REMARK                            x       y       z     vdW  Elec       q    Type
REMARK                         _______ _______ _______ _____ _____    ______ ____
ROOT
ATOM      1  C   LIG    1       -0.066   1.500  -0.053  0.00  0.00    +0.160 C 
ATOM      2  C   LIG    1        0.002  -0.004   0.002  0.00  0.00    +0.370 C 
ATOM      3  C   LIG    1       -0.123  -0.744  -1.159  0.00  0.00    -0.450 C 
ATOM      4  C   LIG    1       -0.218  -2.215  -1.127  0.00  0.00    +0.580 C 
ATOM      5  N   LIG    1       -0.339  -2.871  -2.299  0.00  0.00    -0.660 N 
ATOM      6  H   LIG    1       -0.402  -3.839  -2.296  0.00  0.00    +0.430 HD
ATOM      7  C   LIG    1       -0.371  -2.217  -3.469  0.00  0.00    +0.720 C 
ATOM      8  N   LIG    1       -0.290  -0.883  -3.572  0.00  0.00    -0.660 N 
ATOM      9  H   LIG    1       -0.320  -0.473  -4.451  0.00  0.00    +0.430 HD
ATOM     10  O   LIG    1       -0.481  -2.868  -4.489  0.00  0.00    -0.540 OA
ATOM     11  O   LIG    1       -0.190  -2.820  -0.072  0.00  0.00    -0.530 OA
ATOM     12  C   LIG    1       -0.172  -0.097  -2.482  0.00  0.00    +0.590 C 
ATOM     13  O   LIG    1       -0.099   1.113  -2.589  0.00  0.00    -0.510 OA
ENDROOT
BRANCH   2  14
ATOM     14  N   LIG    1        0.185  -0.628   1.183  0.00  0.00    -0.650 N 
ATOM     15  H   LIG    1        0.312  -1.589   1.209  0.00  0.00    +0.430 HD
BRANCH  14  16
ATOM     16  C   LIG    1        0.190   0.145   2.427  0.00  0.00    +0.280 C 
BRANCH  16  17
ATOM     17  C   LIG    1        0.414  -0.796   3.612  0.00  0.00    +0.190 C 
BRANCH  17  18
ATOM     18  O   LIG    1        1.718  -1.374   3.521  0.00  0.00    -0.570 OA
ATOM     19  H   LIG    1        1.929  -1.984   4.241  0.00  0.00    +0.390 HD
ENDBRANCH  17  18
ENDBRANCH  16  17
ENDBRANCH  14  16
ENDBRANCH   2  14
TORSDOF 4
ENDMDL
MODEL      993
REMARK  Name = ZINC000020421607
REMARK                            x       y       z     vdW  Elec       q    Type
REMARK                         _______ _______ _______ _____ _____    ______ ____
ROOT
ATOM      1  C   LIG    1        2.966   1.255   1.417  0.00  0.00    +0.220 C 
ENDROOT
BRANCH   1   2
ATOM      2  N   LIG    1        4.292   0.623   1.398  0.00  0.00    -0.550 NA
ATOM      3  C   LIG    1        5.261   1.458   0.685  0.00  0.00    +0.220 C 
ATOM      4  C   LIG    1        6.686   1.014   1.031  0.00  0.00    -0.320 C 
ATOM      5  S   LIG    1        6.916  -0.698   0.462  0.00  0.00    +2.410 S 
ATOM      6  C   LIG    1        5.484  -1.514   1.228  0.00  0.00    -0.320 C 
ATOM      7  O   LIG    1        8.105  -1.215   1.044  0.00  0.00    -0.940 OA
ATOM      8  O   LIG    1        6.760  -0.733  -0.950  0.00  0.00    -0.940 OA
ATOM      9  C   LIG    1        4.218  -0.736   0.856  0.00  0.00    +0.220 C 
ENDBRANCH   1   2
BRANCH   1  10
ATOM     10  C   LIG    1        2.477   1.457  -0.019  0.00  0.00    +0.280 C 
BRANCH  10  17
ATOM     11  O   LIG    1        0.008   0.021  -0.032  0.00  0.00    -0.580 OA
ATOM     12  C   LIG    1       -0.006   1.237  -0.010  0.00  0.00    +0.700 C 
ATOM     13  N   LIG    1       -1.137   1.954   0.013  0.00  0.00    -0.740 N 
ATOM     14  H   LIG    1       -2.035   1.588   0.014  0.00  0.00    +0.430 HD
ATOM     15  C   LIG    1       -0.800   3.386   0.036  0.00  0.00    +0.250 C 
ATOM     16  C   LIG    1        0.741   3.403   0.023  0.00  0.00    +0.250 C 
ATOM     17  N   LIG    1        1.109   1.980  -0.000  0.00  0.00    -0.630 N 
ENDBRANCH  10  17
ENDBRANCH   1  10
TORSDOF 3
ENDMDL
MODEL      994
REMARK  Name = ZINC000660778258
REMARK                            x       y       z     vdW  Elec       q    Type
REMARK                         _______ _______ _______ _____ _____    ______ ____
ROOT
ATOM      1  N   LIG    1        0.769  -0.296   3.736  0.00  0.00    -0.520 NA
ATOM      2  C   LIG    1        2.098   0.337   3.707  0.00  0.00    +0.190 C 
ATOM      3  C   LIG    1        2.699   0.282   5.113  0.00  0.00    +0.280 C 
ATOM      4  N   LIG    1        2.616  -1.077   5.640  0.00  0.00    -0.590 N 
ATOM      5  C   LIG    1        1.794  -2.003   5.136  0.00  0.00    +0.530 C 
ATOM      6  O   LIG    1        1.767  -3.100   5.655  0.00  0.00    -0.550 OA
ATOM      7  C   LIG    1        0.902  -1.743   3.956  0.00  0.00    +0.230 C 
ENDROOT
BRANCH   1   8
ATOM      8  C   LIG    1        0.026  -0.018   2.500  0.00  0.00    +0.150 C 
BRANCH   8   9
ATOM      9  C   LIG    1       -1.417  -0.502   2.653  0.00  0.00    +0.210 C 
BRANCH   9  11
ATOM     10  C   LIG    1       -1.531  -0.937   0.195  0.00  0.00    +0.030 C 
ATOM     11  C   LIG    1       -2.192  -0.208   1.367  0.00  0.00    -0.060 C 
ATOM     12  C   LIG    1       -3.636  -0.693   1.519  0.00  0.00    +0.020 C 
ENDBRANCH   9  11
BRANCH   9  13
ATOM     13  O   LIG    1       -2.035   0.178   3.747  0.00  0.00    -0.540 OA
ATOM     14  H   LIG    1       -2.066   1.140   3.645  0.00  0.00    +0.370 HD
ENDBRANCH   9  13
ENDBRANCH   8   9
ENDBRANCH   1   8
BRANCH   4  15
ATOM     15  C   LIG    1        3.473  -1.442   6.771  0.00  0.00    +0.320 C 
BRANCH  15  16
ATOM     16  C   LIG    1        2.750  -1.156   8.062  0.00  0.00    +0.500 C 
ATOM     17  O   LIG    1        1.629  -0.693   8.039  0.00  0.00    -0.530 OA
ATOM     18  N   LIG    1        3.348  -1.415   9.241  0.00  0.00    -0.860 N 
ATOM     19  H   LIG    1        2.883  -1.231  10.072  0.00  0.00    +0.400 HD
ATOM     20  H   LIG    1        4.245  -1.785   9.259  0.00  0.00    +0.400 HD
ENDBRANCH  15  16
ENDBRANCH   4  15
TORSDOF 6
ENDMDL
MODEL      995
REMARK  Name = ZINC000000967433
REMARK                            x       y       z     vdW  Elec       q    Type
REMARK                         _______ _______ _______ _____ _____    ______ ____
ROOT
ATOM      1  C   LIG    1       -1.156  -2.103   0.002  0.00  0.00    +0.160 A 
ATOM      2  C   LIG    1       -1.085  -2.908  -1.100  0.00  0.00    -0.070 A 
ATOM      3  N   LIG    1       -0.965  -4.183  -0.689  0.00  0.00    -0.170 NA
ATOM      4  N   LIG    1       -0.956  -4.223   0.598  0.00  0.00    -0.040 NA
ATOM      5  N   LIG    1       -1.071  -2.912   1.082  0.00  0.00    -0.300 N 
ENDROOT
BRANCH   2   6
ATOM      6  C   LIG    1       -1.132  -2.455  -2.503  0.00  0.00    +0.610 C 
ATOM      7  O   LIG    1       -1.243  -1.271  -2.756  0.00  0.00    -0.520 OA
ATOM      8  N   LIG    1       -1.052  -3.353  -3.504  0.00  0.00    -0.830 N 
ATOM      9  H   LIG    1       -1.083  -3.055  -4.427  0.00  0.00    +0.410 HD
ATOM     10  H   LIG    1       -0.964  -4.298  -3.302  0.00  0.00    +0.410 HD
ENDBRANCH   2   6
BRANCH   5  11
ATOM     11  C   LIG    1       -1.101  -2.517   2.424  0.00  0.00    +0.290 A 
ATOM     12  N   LIG    1       -1.214  -1.293   2.857  0.00  0.00    -0.250 NA
ATOM     13  O   LIG    1       -1.204  -1.330   4.273  0.00  0.00    +0.060 OA
ATOM     14  N   LIG    1       -1.075  -2.685   4.665  0.00  0.00    -0.330 NA
ATOM     15  C   LIG    1       -1.017  -3.411   3.583  0.00  0.00    +0.360 A 
BRANCH  15  16
ATOM     16  N   LIG    1       -0.891  -4.795   3.536  0.00  0.00    -0.800 N 
ATOM     17  H   LIG    1       -0.857  -5.250   2.680  0.00  0.00    +0.430 HD
ATOM     18  H   LIG    1       -0.836  -5.305   4.359  0.00  0.00    +0.420 HD
ENDBRANCH  15  16
ENDBRANCH   5  11
BRANCH   1  19
ATOM     19  C   LIG    1       -1.295  -0.603   0.011  0.00  0.00    +0.300 C 
BRANCH  19  21
ATOM     20  C   LIG    1       -0.017   1.425   0.010  0.00  0.00    +0.220 C 
ATOM     21  O   LIG    1        0.002  -0.004   0.002  0.00  0.00    -0.380 OA
ENDBRANCH  19  21
ENDBRANCH   1  19
TORSDOF 5
ENDMDL
MODEL      996
REMARK  Name = ZINC000101379188
REMARK                            x       y       z     vdW  Elec       q    Type
REMARK                         _______ _______ _______ _____ _____    ______ ____
ROOT
ATOM      1  C   LIG    1       -0.018   1.461   0.010  0.00  0.00    +0.390 C 
ATOM      2  N   LIG    1        0.002  -0.004   0.002  0.00  0.00    -0.500 N 
ATOM      3  C   LIG    1        0.006  -0.665  -1.169  0.00  0.00    +0.710 A 
ATOM      4  N   LIG    1        0.024  -2.001  -1.271  0.00  0.00    -0.650 N 
ATOM      5  H   LIG    1        0.025  -2.405  -2.153  0.00  0.00    +0.450 HD
ATOM      6  C   LIG    1        0.040  -2.804  -0.183  0.00  0.00    +0.600 A 
ATOM      7  C   LIG    1        0.037  -2.162   1.145  0.00  0.00    -0.040 A 
ATOM      8  N   LIG    1        0.051  -2.837   2.267  0.00  0.00    -0.070 NA
ATOM      9  N   LIG    1        0.048  -2.207   3.393  0.00  0.00    -0.400 N 
ATOM     10  H   LIG    1        0.058  -2.721   4.216  0.00  0.00    +0.470 HD
ATOM     11  C   LIG    1        0.029  -0.867   3.467  0.00  0.00    +0.420 A 
ATOM     12  N   LIG    1        0.014  -0.101   2.369  0.00  0.00    -0.460 NA
ATOM     13  S   LIG    1        0.026  -0.117   5.006  0.00  0.00    -0.420 S 
ATOM     14  O   LIG    1        0.056  -4.014  -0.296  0.00  0.00    -0.440 OA
ATOM     15  O   LIG    1       -0.008  -0.013  -2.194  0.00  0.00    -0.500 OA
ATOM     16  C   LIG    1        0.023  -0.692   1.190  0.00  0.00    +0.450 A 
ENDROOT
TORSDOF 0
ENDMDL
MODEL      997
REMARK  Name = ZINC000000192451
REMARK                            x       y       z     vdW  Elec       q    Type
REMARK                         _______ _______ _______ _____ _____    ______ ____
ROOT
ATOM      1  O   LIG    1        0.002  -0.004   0.002  0.00  0.00    -0.540 OA
ATOM      2  C   LIG    1       -0.014   1.209   0.009  0.00  0.00    +0.530 C 
ATOM      3  N   LIG    1        1.143   1.898   0.001  0.00  0.00    -0.710 N 
ATOM      4  H   LIG    1        1.130   2.868   0.007  0.00  0.00    +0.420 HD
ENDROOT
BRANCH   2   5
ATOM      5  C   LIG    1       -1.330   1.944   0.019  0.00  0.00    +0.000 C 
ATOM      6  C   LIG    1       -2.478   0.932   0.015  0.00  0.00    +0.060 C 
ATOM      7  C   LIG    1       -3.785   1.682   0.302  0.00  0.00    +0.030 C 
ATOM      8  C   LIG    1       -3.749   2.195   1.742  0.00  0.00    +0.250 C 
ATOM      9  N   LIG    1       -2.510   2.919   1.994  0.00  0.00    -0.710 N 
ATOM     10  H   LIG    1       -2.482   3.523   2.753  0.00  0.00    +0.410 HD
ATOM     11  C   LIG    1       -1.412   2.803   1.249  0.00  0.00    +0.530 C 
ATOM     12  O   LIG    1       -0.424   3.425   1.579  0.00  0.00    -0.550 OA
ENDBRANCH   2   5
BRANCH   3  13
ATOM     13  C   LIG    1        2.422   1.183  -0.015  0.00  0.00    +0.240 C 
BRANCH  13  14
ATOM     14  C   LIG    1        3.571   2.193  -0.020  0.00  0.00    +0.210 C 
BRANCH  14  15
ATOM     15  O   LIG    1        3.473   3.020  -1.182  0.00  0.00    -0.550 OA
ATOM     16  H   LIG    1        3.517   2.533  -2.016  0.00  0.00    +0.380 HD
ENDBRANCH  14  15
BRANCH  14  17
ATOM     17  C   LIG    1        4.907   1.446  -0.037  0.00  0.00    +0.160 C 
BRANCH  17  18
ATOM     18  O   LIG    1        5.979   2.384   0.075  0.00  0.00    -0.560 OA
ATOM     19  H   LIG    1        6.857   1.980   0.071  0.00  0.00    +0.380 HD
ENDBRANCH  17  18
ENDBRANCH  14  17
ENDBRANCH  13  14
ENDBRANCH   3  13
TORSDOF 6
ENDMDL
MODEL      998
REMARK  Name = ZINC000000192456
REMARK                            x       y       z     vdW  Elec       q    Type
REMARK                         _______ _______ _______ _____ _____    ______ ____
ROOT
ATOM      1  O   LIG    1        0.002  -0.004   0.002  0.00  0.00    -0.540 OA
ATOM      2  C   LIG    1       -0.014   1.209   0.009  0.00  0.00    +0.530 C 
ATOM      3  N   LIG    1        1.143   1.898   0.001  0.00  0.00    -0.710 N 
ATOM      4  H   LIG    1        1.130   2.868   0.007  0.00  0.00    +0.420 HD
ENDROOT
BRANCH   2   5
ATOM      5  C   LIG    1       -1.330   1.944   0.019  0.00  0.00    +0.000 C 
ATOM      6  C   LIG    1       -2.478   0.932   0.015  0.00  0.00    +0.060 C 
ATOM      7  C   LIG    1       -3.785   1.682   0.302  0.00  0.00    +0.030 C 
ATOM      8  C   LIG    1       -3.749   2.195   1.742  0.00  0.00    +0.250 C 
ATOM      9  N   LIG    1       -2.510   2.919   1.994  0.00  0.00    -0.710 N 
ATOM     10  H   LIG    1       -2.482   3.523   2.753  0.00  0.00    +0.410 HD
ATOM     11  C   LIG    1       -1.412   2.803   1.249  0.00  0.00    +0.530 C 
ATOM     12  O   LIG    1       -0.424   3.425   1.579  0.00  0.00    -0.540 OA
ENDBRANCH   2   5
BRANCH   3  13
ATOM     13  C   LIG    1        2.422   1.183  -0.015  0.00  0.00    +0.240 C 
BRANCH  13  14
ATOM     14  C   LIG    1        3.571   2.193  -0.020  0.00  0.00    +0.210 C 
BRANCH  14  15
ATOM     15  O   LIG    1        3.565   2.929   1.205  0.00  0.00    -0.540 OA
ATOM     16  H   LIG    1        3.671   2.380   1.994  0.00  0.00    +0.380 HD
ENDBRANCH  14  15
BRANCH  14  17
ATOM     17  C   LIG    1        4.902   1.451  -0.163  0.00  0.00    +0.160 C 
BRANCH  17  18
ATOM     18  O   LIG    1        5.965   2.398  -0.285  0.00  0.00    -0.560 OA
ATOM     19  H   LIG    1        6.840   1.997  -0.379  0.00  0.00    +0.380 HD
ENDBRANCH  17  18
ENDBRANCH  14  17
ENDBRANCH  13  14
ENDBRANCH   3  13
TORSDOF 6
ENDMDL
MODEL      999
REMARK  Name = ZINC000000315925
REMARK                            x       y       z     vdW  Elec       q    Type
REMARK                         _______ _______ _______ _____ _____    ______ ____
ROOT
ATOM      1  C   LIG    1       -2.075  -1.724  -2.203  0.00  0.00    +0.140 C 
ATOM      2  C   LIG    1       -1.088  -1.612  -1.070  0.00  0.00    +0.160 A 
ATOM      3  C   LIG    1       -1.286  -0.710  -0.081  0.00  0.00    +0.000 A 
ATOM      4  C   LIG    1       -0.340  -0.626   0.975  0.00  0.00    +0.540 A 
ATOM      5  N   LIG    1        0.732  -1.444   0.970  0.00  0.00    -0.660 N 
ATOM      6  H   LIG    1        1.382  -1.392   1.688  0.00  0.00    +0.430 HD
ATOM      7  C   LIG    1        0.904  -2.333  -0.025  0.00  0.00    +0.700 A 
ATOM      8  O   LIG    1        1.876  -3.063  -0.014  0.00  0.00    -0.540 OA
ATOM      9  O   LIG    1       -0.495   0.178   1.877  0.00  0.00    -0.500 OA
ATOM     10  N   LIG    1        0.015  -2.429  -1.031  0.00  0.00    -0.630 N 
ATOM     11  H   LIG    1        0.159  -3.077  -1.739  0.00  0.00    +0.440 HD
ENDROOT
BRANCH   3  12
ATOM     12  N   LIG    1       -2.413   0.133  -0.099  0.00  0.00    -0.610 N 
BRANCH  12  13
ATOM     13  C   LIG    1       -2.244   1.577  -0.278  0.00  0.00    +0.320 C 
BRANCH  13  14
ATOM     14  C   LIG    1       -2.159   1.899  -1.772  0.00  0.00    +0.140 C 
BRANCH  14  15
ATOM     15  O   LIG    1       -3.406   1.591  -2.397  0.00  0.00    -0.570 OA
ATOM     16  H   LIG    1       -3.424   1.771  -3.348  0.00  0.00    +0.370 HD
ENDBRANCH  14  15
ENDBRANCH  13  14
ENDBRANCH  12  13
BRANCH  12  17
ATOM     17  C   LIG    1       -3.754  -0.434   0.062  0.00  0.00    +0.310 C 
BRANCH  17  18
ATOM     18  C   LIG    1       -4.170  -0.350   1.532  0.00  0.00    +0.150 C 
BRANCH  18  19
ATOM     19  O   LIG    1       -4.290   1.021   1.916  0.00  0.00    -0.560 OA
ATOM     20  H   LIG    1       -4.551   1.149   2.838  0.00  0.00    +0.380 HD
ENDBRANCH  18  19
ENDBRANCH  17  18
ENDBRANCH  12  17
ENDBRANCH   3  12
TORSDOF 7
ENDMDL
MODEL     1000
REMARK  Name = ZINC000001389488
REMARK                            x       y       z     vdW  Elec       q    Type
REMARK                         _______ _______ _______ _____ _____    ______ ____
ROOT
ATOM      1  C   LIG    1       -0.018   1.461   0.010  0.00  0.00    +0.340 C 
ATOM      2  N   LIG    1        0.002  -0.004   0.002  0.00  0.00    -0.560 N 
ATOM      3  C   LIG    1       -1.159  -0.689   0.004  0.00  0.00    +0.570 A 
ATOM      4  C   LIG    1       -1.132  -2.094  -0.004  0.00  0.00    -0.310 A 
ATOM      5  C   LIG    1        0.069  -2.737  -0.013  0.00  0.00    +0.440 A 
ATOM      6  N   LIG    1        1.229  -2.001  -0.015  0.00  0.00    -0.540 N 
ATOM      7  C   LIG    1        2.525  -2.682  -0.026  0.00  0.00    +0.350 C 
ATOM      8  N   LIG    1        0.123  -4.112  -0.021  0.00  0.00    -0.660 N 
ATOM      9  H   LIG    1        0.941  -4.561   0.242  0.00  0.00    +0.420 HD
ATOM     10  C   LIG    1       -0.947  -4.841  -0.388  0.00  0.00    +0.530 C 
ATOM     11  C   LIG    1       -2.225  -4.166  -0.809  0.00  0.00    +0.090 C 
ATOM     12  O   LIG    1       -0.881  -6.052  -0.379  0.00  0.00    -0.500 OA
ATOM     13  C   LIG    1       -2.415  -2.880  -0.003  0.00  0.00    +0.150 C 
ATOM     14  O   LIG    1       -2.224  -0.095   0.012  0.00  0.00    -0.510 OA
ATOM     15  C   LIG    1        1.179  -0.656  -0.013  0.00  0.00    +0.710 A 
ATOM     16  O   LIG    1        2.215  -0.019  -0.014  0.00  0.00    -0.530 OA
ENDROOT
TORSDOF 0
ENDMDL
MODEL     1001
REMARK  Name = ZINC000253917094
REMARK                            x       y       z     vdW  Elec       q    Type
REMARK                         _______ _______ _______ _____ _____    ______ ____
ROOT
ATOM      1  N   LIG    1       -1.137  -0.683   0.009  0.00  0.00    -0.590 NA
ATOM      2  C   LIG    1       -1.119  -2.018   0.002  0.00  0.00    +0.360 A 
ATOM      3  S   LIG    1        0.265  -3.042  -0.009  0.00  0.00    +0.260 S 
ATOM      4  C   LIG    1       -0.663  -4.551  -0.013  0.00  0.00    -0.560 A 
ATOM      5  N   LIG    1       -1.906  -4.198  -0.006  0.00  0.00    -0.090 NA
ATOM      6  N   LIG    1       -2.179  -2.848   0.008  0.00  0.00    -0.380 N 
ATOM      7  C   LIG    1       -3.554  -2.340   0.017  0.00  0.00    +0.400 C 
ENDROOT
BRANCH   1   9
ATOM      8  C   LIG    1       -0.018   1.503   0.010  0.00  0.00    +0.130 C 
ATOM      9  C   LIG    1        0.002  -0.004   0.002  0.00  0.00    +0.480 C 
ATOM     10  O   LIG    1        1.064  -0.598  -0.011  0.00  0.00    -0.530 OA
ENDBRANCH   1   9
BRANCH   4  11
ATOM     11  S   LIG    1       -0.024  -6.193  -0.024  0.00  0.00    +2.740 S 
ATOM     12  O   LIG    1       -1.146  -7.061   0.061  0.00  0.00    -0.920 OA
ATOM     13  O   LIG    1        1.046  -6.213   0.911  0.00  0.00    -0.920 OA
BRANCH  11  14
ATOM     14  N   LIG    1        0.651  -6.447  -1.514  0.00  0.00    -1.240 NA
ATOM     15  H   LIG    1        0.296  -5.988  -2.292  0.00  0.00    +0.420 HD
ATOM     16  H   LIG    1        1.402  -7.054  -1.610  0.00  0.00    +0.430 HD
ENDBRANCH  11  14
ENDBRANCH   4  11
TORSDOF 3
ENDMDL
MODEL     1002
REMARK  Name = ZINC000000104934
REMARK                            x       y       z     vdW  Elec       q    Type
REMARK                         _______ _______ _______ _____ _____    ______ ____
ROOT
ATOM      1  C   LIG    1        0.518   1.143   0.088  0.00  0.00    +0.340 C 
ATOM      2  N   LIG    1        0.418  -0.312  -0.049  0.00  0.00    -0.560 N 
ATOM      3  C   LIG    1       -0.785  -0.910   0.055  0.00  0.00    +0.570 A 
ATOM      4  C   LIG    1       -0.879  -2.306  -0.080  0.00  0.00    -0.370 A 
ATOM      5  C   LIG    1        0.256  -3.024  -0.315  0.00  0.00    +0.490 A 
ATOM      6  N   LIG    1        1.463  -2.376  -0.410  0.00  0.00    -0.550 N 
ATOM      7  C   LIG    1        2.687  -3.144  -0.656  0.00  0.00    +0.340 C 
ATOM      8  N   LIG    1        0.198  -4.389  -0.459  0.00  0.00    -0.710 N 
ATOM      9  H   LIG    1        0.953  -4.883  -0.814  0.00  0.00    +0.410 HD
ATOM     10  C   LIG    1       -1.036  -5.084  -0.064  0.00  0.00    +0.450 C 
ATOM     11  N   LIG    1       -2.178  -4.310  -0.580  0.00  0.00    -0.540 NA
ATOM     12  C   LIG    1       -2.219  -2.979   0.038  0.00  0.00    +0.280 C 
ATOM     13  O   LIG    1       -1.785  -0.245   0.266  0.00  0.00    -0.530 OA
ATOM     14  C   LIG    1        1.526  -1.037  -0.282  0.00  0.00    +0.710 A 
ATOM     15  O   LIG    1        2.602  -0.477  -0.370  0.00  0.00    -0.540 OA
ENDROOT
BRANCH  11  16
ATOM     16  C   LIG    1       -3.441  -5.029  -0.367  0.00  0.00    +0.210 C 
BRANCH  16  17
ATOM     17  C   LIG    1       -4.534  -4.411  -1.241  0.00  0.00    +0.180 C 
BRANCH  17  18
ATOM     18  O   LIG    1       -4.207  -4.602  -2.619  0.00  0.00    -0.560 OA
ATOM     19  H   LIG    1       -4.858  -4.234  -3.232  0.00  0.00    +0.380 HD
ENDBRANCH  17  18
ENDBRANCH  16  17
ENDBRANCH  11  16
TORSDOF 3
ENDMDL
MODEL     1003
REMARK  Name = ZINC000000545532
REMARK                            x       y       z     vdW  Elec       q    Type
REMARK                         _______ _______ _______ _____ _____    ______ ____
ROOT
ATOM      1  C   LIG    1        1.269  -2.506  -2.470  0.00  0.00    +0.270 C 
ATOM      2  C   LIG    1        1.100  -3.989  -2.652  0.00  0.00    +0.520 C 
ATOM      3  N   LIG    1        2.095  -4.794  -3.028  0.00  0.00    -0.720 N 
ATOM      4  H   LIG    1        1.886  -5.728  -3.184  0.00  0.00    +0.410 HD
ATOM      5  C   LIG    1        3.475  -4.367  -3.220  0.00  0.00    +0.260 C 
ATOM      6  C   LIG    1        3.547  -2.860  -3.470  0.00  0.00    +0.290 C 
ATOM      7  O   LIG    1        0.008  -4.477  -2.448  0.00  0.00    -0.530 OA
ATOM      8  N   LIG    1        2.703  -2.184  -2.469  0.00  0.00    -0.610 N 
ATOM      9  C   LIG    1        3.226  -1.310  -1.586  0.00  0.00    +0.530 C 
ATOM     10  O   LIG    1        2.531  -0.848  -0.706  0.00  0.00    -0.530 OA
ATOM     11  C   LIG    1        4.675  -0.908  -1.691  0.00  0.00    +0.100 C 
ENDROOT
BRANCH   1  12
ATOM     12  C   LIG    1        0.647  -2.079  -1.139  0.00  0.00    +0.130 C 
BRANCH  12  13
ATOM     13  C   LIG    1        0.412  -0.590  -1.148  0.00  0.00    +0.510 C 
ATOM     14  O   LIG    1        0.623   0.048  -2.152  0.00  0.00    -0.530 OA
BRANCH  13  16
ATOM     15  C   LIG    1       -0.233   1.462  -0.123  0.00  0.00    +0.260 C 
ATOM     16  O   LIG    1       -0.030   0.027  -0.041  0.00  0.00    -0.360 OA
ENDBRANCH  13  16
ENDBRANCH  12  13
ENDBRANCH   1  12
TORSDOF 3
ENDMDL
MODEL     1004
REMARK  Name = ZINC000035343858
REMARK                            x       y       z     vdW  Elec       q    Type
REMARK                         _______ _______ _______ _____ _____    ______ ____
ROOT
ATOM      1  N   LIG    1        0.713  -0.491   1.192  0.00  0.00    -0.510 NA
ATOM      2  C   LIG    1        2.064   0.081   1.269  0.00  0.00    +0.180 C 
ATOM      3  C   LIG    1        2.702  -0.304   2.608  0.00  0.00    +0.300 C 
ATOM      4  N   LIG    1        2.636  -1.766   2.754  0.00  0.00    -1.000 NA
ATOM      5  C   LIG    1        1.337  -2.427   2.554  0.00  0.00    +0.300 C 
ATOM      6  C   LIG    1        0.752  -1.959   1.218  0.00  0.00    +0.180 C 
ENDROOT
BRANCH   4   7
ATOM      7  S   LIG    1        3.987  -2.645   3.133  0.00  0.00    +2.610 S 
ATOM      8  O   LIG    1        5.066  -1.855   2.650  0.00  0.00    -0.950 OA
ATOM      9  O   LIG    1        3.728  -3.936   2.598  0.00  0.00    -0.950 OA
ATOM     10  C   LIG    1        3.999  -2.698   4.946  0.00  0.00    -0.280 C 
ENDBRANCH   4   7
BRANCH   1  12
ATOM     11  C   LIG    1       -0.019   1.526   0.010  0.00  0.00    +0.070 C 
ATOM     12  C   LIG    1        0.002  -0.004   0.002  0.00  0.00    +0.170 C 
BRANCH  12  13
ATOM     13  C   LIG    1        0.707  -0.490  -1.238  0.00  0.00    +0.490 C 
ATOM     14  O   LIG    1        1.704  -1.174  -1.140  0.00  0.00    -0.540 OA
ATOM     15  N   LIG    1        0.231  -0.164  -2.456  0.00  0.00    -0.850 N 
ATOM     16  H   LIG    1        0.685  -0.477  -3.254  0.00  0.00    +0.400 HD
ATOM     17  H   LIG    1       -0.566   0.383  -2.534  0.00  0.00    +0.400 HD
ENDBRANCH  12  13
ENDBRANCH   1  12
TORSDOF 3
ENDMDL
MODEL     1005
REMARK  Name = ZINC000020728391
REMARK                            x       y       z     vdW  Elec       q    Type
REMARK                         _______ _______ _______ _____ _____    ______ ____
ROOT
ATOM      1  C   LIG    1        0.052  -3.284   1.406  0.00  0.00    +0.630 C 
ATOM      2  N   LIG    1       -0.036  -4.478   0.787  0.00  0.00    -0.600 N 
ATOM      3  C   LIG    1       -0.135  -5.732   1.552  0.00  0.00    +0.320 C 
ATOM      4  C   LIG    1       -1.465  -6.401   1.203  0.00  0.00    +0.270 C 
ATOM      5  N   LIG    1       -1.676  -6.412  -0.238  0.00  0.00    -0.720 N 
ATOM      6  H   LIG    1       -2.290  -7.070  -0.599  0.00  0.00    +0.410 HD
ATOM      7  C   LIG    1       -1.082  -5.581  -1.096  0.00  0.00    +0.520 C 
ATOM      8  O   LIG    1       -1.398  -5.635  -2.266  0.00  0.00    -0.530 OA
ATOM      9  C   LIG    1       -0.045  -4.580  -0.680  0.00  0.00    +0.330 C 
ATOM     10  O   LIG    1        0.120  -3.231   2.618  0.00  0.00    -0.470 OA
ENDROOT
BRANCH   1  15
ATOM     11  C   LIG    1        0.027   1.500  -0.001  0.00  0.00    +0.220 C 
ATOM     12  C   LIG    1        0.058  -0.007  -0.005  0.00  0.00    +0.180 A 
ATOM     13  N   LIG    1        0.127  -0.771  -1.056  0.00  0.00    -0.360 NA
ATOM     14  O   LIG    1        0.134  -1.939  -0.729  0.00  0.00    +0.090 OA
ATOM     15  C   LIG    1        0.068  -2.034   0.608  0.00  0.00    +0.130 A 
ATOM     16  N   LIG    1        0.025  -0.802   1.074  0.00  0.00    -0.410 NA
ENDBRANCH   1  15
TORSDOF 1
ENDMDL
MODEL     1006
REMARK  Name = ZINC000100365794
REMARK                            x       y       z     vdW  Elec       q    Type
REMARK                         _______ _______ _______ _____ _____    ______ ____
ROOT
ATOM      1  O   LIG    1        0.003  -0.004  -0.006  0.00  0.00    -0.420 OA
ATOM      2  C   LIG    1       -0.014   1.214   0.005  0.00  0.00    +0.410 A 
ATOM      3  C   LIG    1       -1.272   1.929  -0.200  0.00  0.00    -0.020 A 
ATOM      4  C   LIG    1       -1.313   3.276  -0.192  0.00  0.00    +0.140 A 
ATOM      5  C   LIG    1       -0.086   4.057   0.026  0.00  0.00    +0.150 A 
ATOM      6  C   LIG    1        1.190   3.357   0.235  0.00  0.00    -0.010 A 
ATOM      7  C   LIG    1        2.444   4.103   0.462  0.00  0.00    +0.170 A 
ATOM      8  N   LIG    1        2.599   5.341   0.068  0.00  0.00    -0.210 NA
ATOM      9  C   LIG    1        3.527   3.345   1.160  0.00  0.00    +0.140 A 
ATOM     10  N   LIG    1        4.361   3.931   1.983  0.00  0.00    -0.260 NA
ATOM     11  C   LIG    1        3.599   1.901   0.874  0.00  0.00    +0.040 A 
ATOM     12  C   LIG    1        2.494   1.261   0.432  0.00  0.00    +0.070 A 
ATOM     13  N   LIG    1       -0.129   5.367   0.033  0.00  0.00    -0.260 NA
ATOM     14  C   LIG    1        1.232   1.966   0.230  0.00  0.00    -0.080 A 
ENDROOT
BRANCH   8  15
ATOM     15  O   LIG    1        3.826   6.009   0.301  0.00  0.00    -0.370 OA
ATOM     16  H   LIG    1        3.846   6.919  -0.025  0.00  0.00    +0.410 HD
ENDBRANCH   8  15
BRANCH  10  17
ATOM     17  O   LIG    1        5.369   3.174   2.627  0.00  0.00    -0.390 OA
ATOM     18  H   LIG    1        5.935   3.692   3.215  0.00  0.00    +0.410 HD
ENDBRANCH  10  17
BRANCH  13  19
ATOM     19  O   LIG    1        0.861   6.104   0.727  0.00  0.00    -0.350 OA
ATOM     20  H   LIG    1        0.746   7.063   0.676  0.00  0.00    +0.400 HD
ENDBRANCH  13  19
TORSDOF 3
ENDMDL
MODEL     1007
REMARK  Name = ZINC000069377832
REMARK                            x       y       z     vdW  Elec       q    Type
REMARK                         _______ _______ _______ _____ _____    ______ ____
ROOT
ATOM      1  C   LIG    1        0.224   1.445  -0.003  0.00  0.00    +0.310 C 
ATOM      2  N   LIG    1        0.117  -0.016  -0.007  0.00  0.00    -0.590 N 
ATOM      3  C   LIG    1       -0.102  -0.673  -1.163  0.00  0.00    +0.570 C 
ATOM      4  O   LIG    1       -0.280  -1.875  -1.155  0.00  0.00    -0.520 OA
ENDROOT
BRANCH   3   5
ATOM      5  C   LIG    1       -0.124   0.072  -2.447  0.00  0.00    -0.010 A 
ATOM      6  C   LIG    1        1.056   0.441  -3.067  0.00  0.00    -0.050 A 
ATOM      7  C   LIG    1        0.997   1.147  -4.285  0.00  0.00    +0.510 A 
ATOM      8  N   LIG    1       -0.195   1.454  -4.830  0.00  0.00    -0.500 N 
ATOM      9  C   LIG    1       -1.355   1.093  -4.226  0.00  0.00    +0.310 A 
ATOM     10  C   LIG    1       -0.240   2.188  -6.097  0.00  0.00    +0.330 C 
ATOM     11  O   LIG    1        2.028   1.481  -4.846  0.00  0.00    -0.540 OA
ATOM     12  C   LIG    1       -1.351   0.410  -3.059  0.00  0.00    -0.060 A 
ENDBRANCH   3   5
BRANCH   2  13
ATOM     13  C   LIG    1        0.248  -0.763   1.246  0.00  0.00    +0.330 C 
BRANCH  13  14
ATOM     14  C   LIG    1       -1.109  -0.918   1.883  0.00  0.00    +0.500 C 
ATOM     15  O   LIG    1       -2.089  -0.450   1.343  0.00  0.00    -0.530 OA
ATOM     16  N   LIG    1       -1.234  -1.576   3.053  0.00  0.00    -0.850 N 
ATOM     17  H   LIG    1       -2.107  -1.675   3.463  0.00  0.00    +0.400 HD
ATOM     18  H   LIG    1       -0.450  -1.950   3.485  0.00  0.00    +0.400 HD
ENDBRANCH  13  14
ENDBRANCH   2  13
TORSDOF 3
ENDMDL
MODEL     1008
REMARK  Name = ZINC000000545533
REMARK                            x       y       z     vdW  Elec       q    Type
REMARK                         _______ _______ _______ _____ _____    ______ ____
ROOT
ATOM      1  C   LIG    1        1.236  -2.385  -2.273  0.00  0.00    +0.290 C 
ATOM      2  C   LIG    1        1.184  -3.883  -2.152  0.00  0.00    +0.520 C 
ATOM      3  N   LIG    1        0.343  -4.641  -2.857  0.00  0.00    -0.720 N 
ATOM      4  H   LIG    1        0.331  -5.593  -2.673  0.00  0.00    +0.410 HD
ATOM      5  C   LIG    1       -0.558  -4.138  -3.886  0.00  0.00    +0.250 C 
ATOM      6  C   LIG    1       -0.821  -2.644  -3.694  0.00  0.00    +0.280 C 
ATOM      7  O   LIG    1        1.942  -4.428  -1.377  0.00  0.00    -0.530 OA
ATOM      8  N   LIG    1        0.473  -1.974  -3.461  0.00  0.00    -0.620 N 
ATOM      9  C   LIG    1        0.934  -1.027  -4.301  0.00  0.00    +0.510 C 
ATOM     10  O   LIG    1        1.963  -0.438  -4.046  0.00  0.00    -0.490 OA
ATOM     11  C   LIG    1        0.171  -0.700  -5.559  0.00  0.00    +0.090 C 
ENDROOT
BRANCH   1  12
ATOM     12  C   LIG    1        0.622  -1.748  -1.024  0.00  0.00    +0.120 C 
BRANCH  12  13
ATOM     13  C   LIG    1        0.781  -0.251  -1.094  0.00  0.00    +0.450 C 
ATOM     14  O   LIG    1        1.328   0.255  -2.045  0.00  0.00    -0.470 OA
BRANCH  13  16
ATOM     15  C   LIG    1        0.501   1.954  -0.234  0.00  0.00    +0.260 C 
ATOM     16  O   LIG    1        0.314   0.520  -0.100  0.00  0.00    -0.360 OA
ENDBRANCH  13  16
ENDBRANCH  12  13
ENDBRANCH   1  12
TORSDOF 3
ENDMDL
MODEL     1009
REMARK  Name = ZINC000000203992
REMARK                            x       y       z     vdW  Elec       q    Type
REMARK                         _______ _______ _______ _____ _____    ______ ____
ROOT
ATOM      1  N   LIG    1        0.688  -0.476  -1.203  0.00  0.00    -0.620 N 
ATOM      2  C   LIG    1        0.142  -1.247  -2.153  0.00  0.00    +0.700 C 
ATOM      3  N   LIG    1        0.976  -1.544  -3.157  0.00  0.00    -0.740 N 
ATOM      4  H   LIG    1        0.754  -2.089  -3.928  0.00  0.00    +0.430 HD
ATOM      5  C   LIG    1        2.281  -0.916  -2.908  0.00  0.00    +0.470 C 
ATOM      6  N   LIG    1        2.505   0.162  -3.882  0.00  0.00    -0.740 N 
ATOM      7  H   LIG    1        2.668   0.036  -4.830  0.00  0.00    +0.430 HD
ATOM      8  C   LIG    1        2.447   1.344  -3.256  0.00  0.00    +0.710 C 
ATOM      9  N   LIG    1        2.208   1.252  -1.942  0.00  0.00    -0.740 N 
ATOM     10  H   LIG    1        2.134   2.002  -1.331  0.00  0.00    +0.430 HD
ATOM     11  O   LIG    1        2.598   2.405  -3.829  0.00  0.00    -0.570 OA
ATOM     12  O   LIG    1       -1.007  -1.641  -2.107  0.00  0.00    -0.570 OA
ATOM     13  C   LIG    1        2.080  -0.174  -1.563  0.00  0.00    +0.470 C 
ENDROOT
BRANCH   1  15
ATOM     14  C   LIG    1       -0.019   1.526   0.010  0.00  0.00    +0.040 C 
ATOM     15  C   LIG    1        0.002  -0.004   0.002  0.00  0.00    +0.200 C 
ATOM     16  C   LIG    1        0.742  -0.511   1.242  0.00  0.00    +0.050 C 
BRANCH  15  17
ATOM     17  C   LIG    1       -1.433  -0.534   0.013  0.00  0.00    +0.210 C 
BRANCH  17  18
ATOM     18  O   LIG    1       -2.102  -0.073   1.189  0.00  0.00    -0.580 OA
ATOM     19  H   LIG    1       -3.019  -0.371   1.262  0.00  0.00    +0.390 HD
ENDBRANCH  17  18
ENDBRANCH  15  17
ENDBRANCH   1  15
TORSDOF 3
ENDMDL
MODEL     1010
REMARK  Name = ZINC000036104504
REMARK                            x       y       z     vdW  Elec       q    Type
REMARK                         _______ _______ _______ _____ _____    ______ ____
ROOT
ATOM      1  N   LIG    1        1.927  -4.065  -0.396  0.00  0.00    -0.520 N 
ATOM      2  C   LIG    1        1.211  -4.909   0.409  0.00  0.00    +0.350 A 
ATOM      3  C   LIG    1        1.335  -6.245   0.256  0.00  0.00    -0.260 A 
ATOM      4  C   LIG    1        2.208  -6.745  -0.740  0.00  0.00    +0.550 A 
ATOM      5  N   LIG    1        2.895  -5.880  -1.513  0.00  0.00    -0.660 N 
ATOM      6  H   LIG    1        3.495  -6.216  -2.198  0.00  0.00    +0.430 HD
ATOM      7  O   LIG    1        2.336  -7.946  -0.898  0.00  0.00    -0.510 OA
ATOM      8  C   LIG    1        0.555  -7.190   1.133  0.00  0.00    +0.140 C 
ATOM      9  C   LIG    1        2.749  -4.553  -1.342  0.00  0.00    +0.710 A 
ATOM     10  O   LIG    1        3.375  -3.785  -2.047  0.00  0.00    -0.530 OA
ENDROOT
BRANCH   1  11
ATOM     11  C   LIG    1        1.792  -2.615  -0.229  0.00  0.00    +0.350 C 
BRANCH  11  12
ATOM     12  C   LIG    1        0.657  -2.104  -1.120  0.00  0.00    +0.200 C 
BRANCH  12  13
ATOM     13  N   LIG    1        0.902  -2.514  -2.509  0.00  0.00    -0.810 NA
ATOM     14  H   LIG    1        1.775  -2.138  -2.848  0.00  0.00    +0.370 HD
ATOM     15  H   LIG    1        0.136  -2.243  -3.106  0.00  0.00    +0.350 HD
ENDBRANCH  12  13
BRANCH  12  16
ATOM     16  C   LIG    1        0.598  -0.600  -1.043  0.00  0.00    +0.430 C 
ATOM     17  O   LIG    1        1.088   0.070  -1.921  0.00  0.00    -0.500 OA
BRANCH  16  19
ATOM     18  C   LIG    1       -0.018   1.448   0.010  0.00  0.00    +0.270 C 
ATOM     19  O   LIG    1        0.002  -0.004   0.002  0.00  0.00    -0.360 OA
ENDBRANCH  16  19
ENDBRANCH  12  16
ENDBRANCH  11  12
ENDBRANCH   1  11
TORSDOF 5
ENDMDL
MODEL     1011
REMARK  Name = ZINC000100417967
REMARK                            x       y       z     vdW  Elec       q    Type
REMARK                         _______ _______ _______ _____ _____    ______ ____
ROOT
ATOM      1  C   LIG    1        0.659  -2.065  -1.123  0.00  0.00    +0.030 C 
ATOM      2  C   LIG    1        1.170  -2.668  -2.225  0.00  0.00    +0.150 A 
ATOM      3  N   LIG    1        1.202  -4.023  -2.494  0.00  0.00    -0.600 N 
ATOM      4  H   LIG    1        0.859  -4.727  -1.921  0.00  0.00    +0.450 HD
ATOM      5  C   LIG    1        1.811  -4.198  -3.725  0.00  0.00    +0.410 A 
ATOM      6  N   LIG    1        2.182  -5.109  -4.596  0.00  0.00    -0.270 NA
ATOM      7  N   LIG    1        2.737  -4.548  -5.610  0.00  0.00    -0.250 NA
ATOM      8  C   LIG    1        2.757  -3.255  -5.453  0.00  0.00    +0.240 A 
ATOM      9  C   LIG    1        3.323  -2.244  -6.418  0.00  0.00    +0.230 C 
ATOM     10  N   LIG    1        2.167  -2.986  -4.243  0.00  0.00    -0.520 N 
ATOM     11  C   LIG    1        1.805  -2.007  -3.394  0.00  0.00    +0.550 A 
ATOM     12  O   LIG    1        1.964  -0.815  -3.553  0.00  0.00    -0.350 OA
ENDROOT
BRANCH   1  13
ATOM     13  C   LIG    1        0.829  -0.622  -0.931  0.00  0.00    +0.490 C 
ATOM     14  O   LIG    1        1.482   0.024  -1.728  0.00  0.00    -0.470 OA
BRANCH  13  16
ATOM     15  C   LIG    1        0.472   1.421   0.255  0.00  0.00    +0.290 C 
ATOM     16  O   LIG    1        0.262  -0.011   0.129  0.00  0.00    -0.350 OA
ENDBRANCH  13  16
ENDBRANCH   1  13
TORSDOF 2
ENDMDL
MODEL     1012
REMARK  Name = ZINC000077010922
REMARK                            x       y       z     vdW  Elec       q    Type
REMARK                         _______ _______ _______ _____ _____    ______ ____
ROOT
ATOM      1  O   LIG    1        0.002  -0.004   0.002  0.00  0.00    -0.520 OA
ATOM      2  C   LIG    1       -0.014   1.209   0.009  0.00  0.00    +0.530 C 
ATOM      3  N   LIG    1       -1.191   1.867   0.018  0.00  0.00    -0.620 N 
ATOM      4  C   LIG    1       -1.236   3.337   0.020  0.00  0.00    +0.250 C 
ATOM      5  C   LIG    1       -2.182   3.793  -1.096  0.00  0.00    +0.220 C 
ATOM      6  O   LIG    1       -3.435   3.120  -0.956  0.00  0.00    -0.380 OA
ATOM      7  C   LIG    1       -3.354   1.699  -1.091  0.00  0.00    +0.220 C 
ATOM      8  C   LIG    1       -2.468   1.135   0.020  0.00  0.00    +0.260 C 
ENDROOT
BRANCH   2   9
ATOM      9  C   LIG    1        1.280   1.980   0.001  0.00  0.00    +0.140 C 
ATOM     10  C   LIG    1        1.606   2.447   1.421  0.00  0.00    +0.200 C 
ATOM     11  O   LIG    1        2.872   3.113   1.421  0.00  0.00    -0.370 OA
ATOM     12  C   LIG    1        3.950   2.299   0.954  0.00  0.00    +0.190 C 
ATOM     13  C   LIG    1        3.648   1.830  -0.472  0.00  0.00    +0.210 C 
ATOM     14  N   LIG    1        2.364   1.114  -0.486  0.00  0.00    -0.670 NA
ATOM     15  H   LIG    1        2.418   0.264   0.054  0.00  0.00    +0.360 HD
ENDBRANCH   2   9
TORSDOF 1
ENDMDL
MODEL     1013
REMARK  Name = ZINC000082049768
REMARK                            x       y       z     vdW  Elec       q    Type
REMARK                         _______ _______ _______ _____ _____    ______ ____
ROOT
ATOM      1  C   LIG    1        0.055  -3.219   1.508  0.00  0.00    -0.040 A 
ATOM      2  C   LIG    1        0.077  -4.514   1.080  0.00  0.00    -0.460 A 
ATOM      3  N   LIG    1        0.092  -5.304   2.171  0.00  0.00    -0.300 N 
ATOM      4  N   LIG    1        0.080  -4.484   3.306  0.00  0.00    -0.250 NA
ATOM      5  C   LIG    1        0.119  -6.769   2.171  0.00  0.00    +0.390 C 
ATOM      6  C   LIG    1        0.062  -3.237   2.916  0.00  0.00    +0.270 A 
ENDROOT
BRANCH   1  11
ATOM      7  C   LIG    1       -0.018   1.461   0.010  0.00  0.00    +0.410 C 
ATOM      8  N   LIG    1        0.002  -0.004   0.002  0.00  0.00    -0.140 N 
ATOM      9  N   LIG    1        0.008  -0.743  -1.052  0.00  0.00    -0.060 NA
ATOM     10  N   LIG    1        0.027  -1.982  -0.695  0.00  0.00    -0.220 NA
ATOM     11  C   LIG    1        0.033  -2.010   0.645  0.00  0.00    +0.210 A 
ATOM     12  N   LIG    1        0.022  -0.755   1.049  0.00  0.00    -0.290 NA
ENDBRANCH   1  11
BRANCH   2  13
ATOM     13  S   LIG    1        0.085  -5.055  -0.597  0.00  0.00    +2.700 S 
ATOM     14  O   LIG    1        0.652  -6.358  -0.595  0.00  0.00    -0.950 OA
ATOM     15  O   LIG    1        0.610  -3.980  -1.364  0.00  0.00    -0.890 OA
BRANCH  13  16
ATOM     16  N   LIG    1       -1.494  -5.233  -1.062  0.00  0.00    -1.240 NA
ATOM     17  H   LIG    1       -2.168  -5.476  -0.408  0.00  0.00    +0.420 HD
ATOM     18  H   LIG    1       -1.746  -5.096  -1.989  0.00  0.00    +0.430 HD
ENDBRANCH  13  16
ENDBRANCH   2  13
TORSDOF 3
ENDMDL
MODEL     1014
REMARK  Name = ZINC000534586707
REMARK                            x       y       z     vdW  Elec       q    Type
REMARK                         _______ _______ _______ _____ _____    ______ ____
ROOT
ATOM      1  N   UNK A  1       -0.515  -2.565   1.245  0.00  0.00    -0.710 N 
ATOM      2  H   UNK A  1        0.057  -1.957   1.737  0.00  0.00    +0.410 HD
ATOM      3  C   UNK A  0       -0.724  -3.815   1.705  0.00  0.00    +0.490 C 
ATOM      4  O   UNK A  0       -1.440  -4.576   1.090  0.00  0.00    -0.530 OA
ENDROOT
BRANCH   1   5
ATOM      5  C   UNK A  1       -1.154  -2.126   0.002  0.00  0.00    +0.260 C 
BRANCH   5   6
ATOM      6  C   UNK A  1       -1.295  -0.603   0.011  0.00  0.00    +0.160 C 
BRANCH   6   8
ATOM      7  C   UNK A  1       -0.017   1.425   0.010  0.00  0.00    +0.200 C 
ATOM      8  O   UNK A  1        0.002  -0.004   0.002  0.00  0.00    -0.360 OA
ENDBRANCH   6   8
ENDBRANCH   5   6
BRANCH   5   9
ATOM      9  C   UNK A  1       -0.294  -2.551  -1.190  0.00  0.00    +0.170 C 
BRANCH   9  10
ATOM     10  O   UNK A  1        0.957  -1.863  -1.145  0.00  0.00    -0.540 OA
ATOM     11  H   UNK A  1        1.555  -2.084  -1.872  0.00  0.00    +0.370 HD
ENDBRANCH   9  10
ENDBRANCH   5   9
ENDBRANCH   1   5
BRANCH   3  12
ATOM     12  C   UNK A  0       -0.068  -4.266   2.984  0.00  0.00    +0.370 C 
BRANCH  12  13
ATOM     13  N   UNK A  0       -0.449  -5.652   3.266  0.00  0.00    -0.620 N 
ATOM     14  C   UNK A  0       -1.622  -6.071   4.049  0.00  0.00    +0.260 C 
ATOM     15  C   UNK A  0       -1.546  -7.610   4.032  0.00  0.00    +0.260 C 
ATOM     16  N   UNK A  0       -0.339  -7.895   3.243  0.00  0.00    -0.640 N 
ATOM     17  C   UNK A  0        0.176  -9.231   2.932  0.00  0.00    +0.330 C 
ATOM     18  C   UNK A  0        0.211  -6.740   2.848  0.00  0.00    +0.710 C 
ATOM     19  O   UNK A  0        1.224  -6.683   2.177  0.00  0.00    -0.580 OA
ENDBRANCH  12  13
ENDBRANCH   3  12
TORSDOF 7
ENDMDL
MODEL     1015
REMARK  Name = ZINC000096592547
REMARK                            x       y       z     vdW  Elec       q    Type
REMARK                         _______ _______ _______ _____ _____    ______ ____
ROOT
ATOM      1  C   LIG    1        0.679  -2.115   1.088  0.00  0.00    +0.290 C 
ATOM      2  C   LIG    1       -0.690  -2.651   1.566  0.00  0.00    -0.260 C 
ATOM      3  S   LIG    1       -0.187  -4.101   2.582  0.00  0.00    +2.390 S 
ATOM      4  C   LIG    1        1.377  -3.307   3.135  0.00  0.00    -0.060 C 
ATOM      5  O   LIG    1        0.102  -5.207   1.738  0.00  0.00    -0.900 OA
ATOM      6  O   LIG    1       -1.071  -4.251   3.684  0.00  0.00    -0.900 OA
ATOM      7  N   LIG    1        1.773  -2.507   1.964  0.00  0.00    -0.590 N 
ATOM      8  C   LIG    1        3.053  -2.164   1.719  0.00  0.00    +0.540 C 
ATOM      9  O   LIG    1        3.327  -1.503   0.739  0.00  0.00    -0.520 OA
ATOM     10  C   LIG    1        4.144  -2.601   2.662  0.00  0.00    +0.120 C 
ENDROOT
BRANCH   1  11
ATOM     11  C   LIG    1        0.618  -0.611   1.029  0.00  0.00    +0.460 C 
ATOM     12  O   LIG    1        1.124   0.049   1.905  0.00  0.00    -0.490 OA
BRANCH  11  14
ATOM     13  C   LIG    1       -0.018   1.448   0.010  0.00  0.00    +0.290 C 
ATOM     14  O   LIG    1        0.002  -0.004   0.002  0.00  0.00    -0.350 OA
ENDBRANCH  11  14
ENDBRANCH   1  11
TORSDOF 2
ENDMDL
MODEL     1016
REMARK  Name = ZINC000252561111
REMARK                            x       y       z     vdW  Elec       q    Type
REMARK                         _______ _______ _______ _____ _____    ______ ____
ROOT
ATOM      1  N   LIG    1        1.568  -4.068   2.238  0.00  0.00    -0.670 NA
ATOM      2  H   LIG    1        0.679  -4.509   2.054  0.00  0.00    +0.360 HD
ENDROOT
BRANCH   1   3
ATOM      3  C   LIG    1        2.201  -4.638   3.434  0.00  0.00    +0.150 C 
ATOM      4  C   LIG    1        1.857  -6.136   3.570  0.00  0.00    +0.100 C 
ATOM      5  C   LIG    1        3.204  -6.819   3.491  0.00  0.00    +0.540 C 
ATOM      6  N   LIG    1        4.159  -5.893   3.338  0.00  0.00    -0.680 N 
ATOM      7  H   LIG    1        5.100  -6.116   3.266  0.00  0.00    +0.420 HD
ATOM      8  O   LIG    1        3.390  -8.015   3.556  0.00  0.00    -0.480 OA
ATOM      9  C   LIG    1        3.708  -4.629   3.295  0.00  0.00    +0.540 C 
ATOM     10  O   LIG    1        4.398  -3.641   3.163  0.00  0.00    -0.470 OA
ENDBRANCH   1   3
BRANCH   1  11
ATOM     11  C   LIG    1        1.417  -2.612   2.365  0.00  0.00    +0.210 C 
BRANCH  11  17
ATOM     12  C   LIG    1       -0.018   1.465   0.010  0.00  0.00    +0.190 C 
ATOM     13  N   LIG    1        0.002  -0.004   0.002  0.00  0.00    -0.540 NA
ATOM     14  C   LIG    1       -1.361  -0.549  -0.075  0.00  0.00    +0.140 C 
ATOM     15  C   LIG    1       -1.291  -2.077  -0.141  0.00  0.00    +0.230 C 
ATOM     16  O   LIG    1       -0.576  -2.566   0.997  0.00  0.00    -0.390 OA
ATOM     17  C   LIG    1        0.756  -2.056   1.102  0.00  0.00    +0.170 C 
ATOM     18  C   LIG    1        0.707  -0.528   1.181  0.00  0.00    +0.150 C 
ENDBRANCH  11  17
ENDBRANCH   1  11
TORSDOF 3
ENDMDL
MODEL     1017
REMARK  Name = ZINC000003813010
REMARK                            x       y       z     vdW  Elec       q    Type
REMARK                         _______ _______ _______ _____ _____    ______ ____
ROOT
ATOM      1  O   LIG    1        0.002  -0.004   0.002  0.00  0.00    -0.490 OA
ATOM      2  C   LIG    1       -0.014   1.214   0.009  0.00  0.00    +0.540 A 
ATOM      3  N   LIG    1       -1.188   1.878   0.029  0.00  0.00    -0.650 N 
ATOM      4  H   LIG    1       -2.022   1.384   0.038  0.00  0.00    +0.440 HD
ATOM      5  C   LIG    1       -1.206   3.224   0.037  0.00  0.00    +0.700 A 
ATOM      6  N   LIG    1       -0.062   3.932   0.024  0.00  0.00    -0.520 N 
ATOM      7  C   LIG    1        1.153   3.295   0.004  0.00  0.00    +0.340 A 
ATOM      8  O   LIG    1       -2.272   3.808   0.055  0.00  0.00    -0.520 OA
ATOM      9  C   LIG    1        1.199   1.946   0.001  0.00  0.00    -0.070 A 
ATOM     10  F   LIG    1        2.387   1.302  -0.018  0.00  0.00    -0.100 F 
ENDROOT
BRANCH   6  11
ATOM     11  C1* LIG    1       -0.114   5.396   0.033  0.00  0.00    +0.440 C 
ATOM     12  C2* LIG    1        0.532   5.949   1.323  0.00  0.00    +0.010 C 
ATOM     13  C3* LIG    1        1.263   7.228   0.858  0.00  0.00    +0.170 C 
ATOM     14  C4* LIG    1        0.972   7.297  -0.658  0.00  0.00    +0.190 C 
ATOM     15  O4* LIG    1        0.685   5.934  -1.043  0.00  0.00    -0.360 OA
BRANCH  13  16
ATOM     16  O3* LIG    1        0.735   8.377   1.524  0.00  0.00    -0.550 OA
ATOM     17  H3* LIG    1        0.838   8.356   2.486  0.00  0.00    +0.390 HD
ENDBRANCH  13  16
BRANCH  14  18
ATOM     18  C5* LIG    1        2.195   7.821  -1.412  0.00  0.00    +0.220 C 
BRANCH  18  19
ATOM     19  O5* LIG    1        1.868   7.987  -2.793  0.00  0.00    -0.570 OA
ATOM     20  H5* LIG    1        2.599   8.317  -3.334  0.00  0.00    +0.390 HD
ENDBRANCH  18  19
ENDBRANCH  14  18
ENDBRANCH   6  11
TORSDOF 4
ENDMDL
MODEL     1018
REMARK  Name = ZINC000022011689
REMARK                            x       y       z     vdW  Elec       q    Type
REMARK                         _______ _______ _______ _____ _____    ______ ____
ROOT
ATOM      1  C   LIG    1       -1.471  -2.431   0.003  0.00  0.00    +0.170 C 
ATOM      2  O   LIG    1       -0.858  -2.826  -1.226  0.00  0.00    -0.340 OA
ATOM      3  C   LIG    1       -0.608  -4.229  -1.329  0.00  0.00    +0.180 C 
ATOM      4  C   LIG    1       -1.934  -4.990  -1.249  0.00  0.00    +0.170 C 
ATOM      5  C   LIG    1       -2.636  -4.638   0.066  0.00  0.00    +0.170 C 
ATOM      6  C   LIG    1       -2.832  -3.120   0.138  0.00  0.00    +0.150 C 
ENDROOT
BRANCH   5   7
ATOM      7  O   LIG    1       -3.908  -5.288   0.118  0.00  0.00    -0.560 OA
ATOM      8  H   LIG    1       -4.409  -5.109   0.925  0.00  0.00    +0.390 HD
ENDBRANCH   5   7
BRANCH   4   9
ATOM      9  O   LIG    1       -1.681  -6.396  -1.295  0.00  0.00    -0.550 OA
ATOM     10  H   LIG    1       -2.479  -6.940  -1.248  0.00  0.00    +0.390 HD
ENDBRANCH   4   9
BRANCH   6  11
ATOM     11  O   LIG    1       -3.422  -2.773   1.392  0.00  0.00    -0.550 OA
ATOM     12  H   LIG    1       -3.575  -1.825   1.506  0.00  0.00    +0.390 HD
ENDBRANCH   6  11
BRANCH   1  13
ATOM     13  S   LIG    1       -1.700  -0.632   0.015  0.00  0.00    -0.210 S 
BRANCH  13  15
ATOM     14  C   LIG    1       -0.019   1.526   0.010  0.00  0.00    +0.070 C 
ATOM     15  C   LIG    1        0.002  -0.004   0.002  0.00  0.00    +0.080 C 
ENDBRANCH  13  15
ENDBRANCH   1  13
BRANCH   3  16
ATOM     16  C   LIG    1        0.072  -4.529  -2.667  0.00  0.00    +0.230 C 
BRANCH  16  17
ATOM     17  O   LIG    1        1.361  -3.912  -2.695  0.00  0.00    -0.570 OA
ATOM     18  H   LIG    1        1.850  -4.061  -3.515  0.00  0.00    +0.380 HD
ENDBRANCH  16  17
ENDBRANCH   3  16
TORSDOF 7
ENDMDL
MODEL     1019
REMARK  Name = ZINC000100713968
REMARK                            x       y       z     vdW  Elec       q    Type
REMARK                         _______ _______ _______ _____ _____    ______ ____
ROOT
ATOM      1  C   LIG    1       -0.018   1.461   0.010  0.00  0.00    +0.360 C 
ATOM      2  N   LIG    1        0.002  -0.004   0.002  0.00  0.00    -0.550 N 
ATOM      3  C   LIG    1        0.005  -0.663  -1.177  0.00  0.00    +0.580 A 
ATOM      4  C   LIG    1        0.026  -2.139  -1.151  0.00  0.00    -0.120 A 
ATOM      5  C   LIG    1        0.041  -2.777   0.104  0.00  0.00    +0.460 A 
ATOM      6  N   LIG    1        0.036  -2.013   1.235  0.00  0.00    -0.530 N 
ATOM      7  C   LIG    1        0.052  -2.667   2.546  0.00  0.00    +0.370 C 
ATOM      8  N   LIG    1        0.060  -4.132   0.183  0.00  0.00    -0.600 N 
ATOM      9  H   LIG    1        0.071  -4.573   1.047  0.00  0.00    +0.430 HD
ATOM     10  C   LIG    1        0.064  -4.859  -0.956  0.00  0.00    +0.530 A 
ATOM     11  CA  LIG    1        0.048  -4.160  -2.249  0.00  0.00    -0.070 A 
ATOM     12  O   LIG    1        0.081  -6.075  -0.912  0.00  0.00    -0.480 OA
ATOM     13  N   LIG    1        0.031  -2.837  -2.277  0.00  0.00    -0.250 NA
ATOM     14  O   LIG    1       -0.008  -0.057  -2.231  0.00  0.00    -0.450 OA
ATOM     15  C   LIG    1        0.022  -0.672   1.167  0.00  0.00    +0.710 A 
ATOM     16  O   LIG    1        0.018  -0.036   2.202  0.00  0.00    -0.510 OA
ENDROOT
BRANCH  11  17
ATOM     17  C   LIG    1        0.052  -4.925  -3.500  0.00  0.00    +0.550 C 
ATOM     18  O   LIG    1        0.038  -4.344  -4.565  0.00  0.00    -0.430 OA
ENDBRANCH  11  17
TORSDOF 1
ENDMDL
MODEL     1020
REMARK  Name = ZINC000013759050
REMARK                            x       y       z     vdW  Elec       q    Type
REMARK                         _______ _______ _______ _____ _____    ______ ____
ROOT
ATOM      1  C   LIG    1       -3.667   1.899   0.030  0.00  0.00    +0.230 C 
ENDROOT
BRANCH   1   2
ATOM      2  O   LIG    1       -3.752   2.644  -1.187  0.00  0.00    -0.540 OA
ATOM      3  H   LIG    1       -3.783   2.095  -1.983  0.00  0.00    +0.390 HD
ENDBRANCH   1   2
BRANCH   1   4
ATOM      4  C   LIG    1       -2.395   1.050   0.019  0.00  0.00    +0.210 C 
BRANCH   4   5
ATOM      5  O   LIG    1       -1.250   1.905   0.018  0.00  0.00    -0.210 OA
BRANCH   5   7
ATOM      6  O   LIG    1        0.002  -0.004   0.002  0.00  0.00    -0.130 OA
ATOM      7  N   LIG    1       -0.014   1.214   0.009  0.00  0.00    +0.120 N 
ATOM      8  O   LIG    1        1.032   1.837   0.002  0.00  0.00    -0.070 OA
ENDBRANCH   5   7
ENDBRANCH   4   5
ENDBRANCH   1   4
BRANCH   1   9
ATOM      9  C   LIG    1       -4.889   0.987   0.156  0.00  0.00    +0.230 C 
BRANCH   9  10
ATOM     10  O   LIG    1       -4.803   0.243   1.373  0.00  0.00    -0.540 OA
ATOM     11  H   LIG    1       -4.773   0.791   2.169  0.00  0.00    +0.390 HD
ENDBRANCH   9  10
BRANCH   9  12
ATOM     12  C   LIG    1       -6.161   1.837   0.167  0.00  0.00    +0.210 C 
BRANCH  12  13
ATOM     13  O   LIG    1       -7.305   0.982   0.168  0.00  0.00    -0.210 OA
BRANCH  13  14
ATOM     14  N   LIG    1       -8.541   1.673   0.177  0.00  0.00    +0.120 N 
ATOM     15  O   LIG    1       -9.588   1.050   0.179  0.00  0.00    -0.070 OA
ATOM     16  O   LIG    1       -8.558   2.891   0.184  0.00  0.00    -0.130 OA
ENDBRANCH  13  14
ENDBRANCH  12  13
ENDBRANCH   9  12
ENDBRANCH   1   9
TORSDOF 9
ENDMDL
MODEL     1021
REMARK  Name = ZINC000070817950
REMARK                            x       y       z     vdW  Elec       q    Type
REMARK                         _______ _______ _______ _____ _____    ______ ____
ROOT
ATOM      1  C   LIG    1       -1.188  -0.578   2.483  0.00  0.00    +0.000 C 
ATOM      2  C   LIG    1       -1.360   0.880   2.947  0.00  0.00    +0.330 C 
ATOM      3  N   LIG    1       -1.556   0.321   4.299  0.00  0.00    -1.040 NA
ATOM      4  C   LIG    1       -2.002  -0.966   3.730  0.00  0.00    +0.340 C 
ENDROOT
BRANCH   1   6
ATOM      5  N   LIG    1       -1.284  -0.598   0.011  0.00  0.00    -0.480 N 
ATOM      6  C   LIG    1       -1.884  -0.886   1.183  0.00  0.00    +0.530 C 
ATOM      7  O   LIG    1       -2.985  -1.395   1.190  0.00  0.00    -0.520 OA
ATOM      8  C   LIG    1       -1.961  -0.898  -1.253  0.00  0.00    +0.320 C 
BRANCH   5  10
ATOM      9  C   LIG    1       -0.017   1.425   0.010  0.00  0.00    +0.220 C 
ATOM     10  O   LIG    1        0.002  -0.004   0.002  0.00  0.00    -0.140 OA
ENDBRANCH   5  10
ENDBRANCH   1   6
BRANCH   3  11
ATOM     11  S   LIG    1       -1.356   0.903   5.836  0.00  0.00    +2.630 S 
ATOM     12  O   LIG    1       -0.364   1.912   5.702  0.00  0.00    -0.950 OA
ATOM     13  O   LIG    1       -1.120  -0.257   6.622  0.00  0.00    -0.950 OA
ATOM     14  C   LIG    1       -2.961   1.639   6.254  0.00  0.00    -0.290 C 
ENDBRANCH   3  11
TORSDOF 3
ENDMDL
MODEL     1022
REMARK  Name = ZINC000009212369
REMARK                            x       y       z     vdW  Elec       q    Type
REMARK                         _______ _______ _______ _____ _____    ______ ____
ROOT
ATOM      1  C   LIG    1       -0.019   1.526   0.010  0.00  0.00    +0.060 C 
ATOM      2  C   LIG    1        0.002  -0.004   0.002  0.00  0.00    +0.130 C 
ATOM      3  O   LIG    1       -1.342  -0.511   0.052  0.00  0.00    -0.310 OA
ATOM      4  C   LIG    1       -1.302  -1.734   0.819  0.00  0.00    +0.440 C 
ATOM      5  C   LIG    1       -0.315  -1.409   1.968  0.00  0.00    +0.170 C 
ATOM      6  C   LIG    1        0.739  -0.525   1.251  0.00  0.00    +0.140 C 
ENDROOT
BRANCH   4   7
ATOM      7  N   LIG    1       -2.630  -2.054   1.350  0.00  0.00    -0.520 N 
ATOM      8  C   LIG    1       -2.797  -3.162   2.138  0.00  0.00    +0.350 A 
ATOM      9  C   LIG    1       -4.022  -3.456   2.627  0.00  0.00    -0.070 A 
ATOM     10  C   LIG    1       -5.111  -2.606   2.312  0.00  0.00    +0.540 A 
ATOM     11  N   LIG    1       -4.904  -1.525   1.533  0.00  0.00    -0.650 N 
ATOM     12  H   LIG    1       -5.645  -0.939   1.313  0.00  0.00    +0.440 HD
ATOM     13  O   LIG    1       -6.225  -2.849   2.742  0.00  0.00    -0.490 OA
ATOM     14  F   LIG    1       -4.205  -4.544   3.406  0.00  0.00    -0.100 F 
ATOM     15  C   LIG    1       -3.673  -1.253   1.063  0.00  0.00    +0.690 A 
ATOM     16  O   LIG    1       -3.502  -0.274   0.362  0.00  0.00    -0.490 OA
ENDBRANCH   4   7
BRANCH   5  17
ATOM     17  O   LIG    1        0.284  -2.602   2.479  0.00  0.00    -0.550 OA
ATOM     18  H   LIG    1        0.909  -2.450   3.201  0.00  0.00    +0.400 HD
ENDBRANCH   5  17
BRANCH   6  19
ATOM     19  O   LIG    1        1.135   0.562   2.090  0.00  0.00    -0.550 OA
ATOM     20  H   LIG    1        1.793   1.147   1.692  0.00  0.00    +0.390 HD
ENDBRANCH   6  19
TORSDOF 3
ENDMDL
MODEL     1023
REMARK  Name = ZINC000048523325
REMARK                            x       y       z     vdW  Elec       q    Type
REMARK                         _______ _______ _______ _____ _____    ______ ____
ROOT
ATOM      1  C   LIG    1       -0.087   1.350   0.084  0.00  0.00    +0.360 C 
ATOM      2  N   LIG    1       -0.055  -0.112   0.008  0.00  0.00    -0.560 N 
ATOM      3  C   LIG    1        0.074  -0.712  -1.194  0.00  0.00    +0.580 A 
ATOM      4  C   LIG    1        0.104  -2.190  -1.242  0.00  0.00    -0.280 A 
ATOM      5  C   LIG    1       -0.007  -2.892  -0.008  0.00  0.00    +0.550 A 
ATOM      6  N   LIG    1       -0.133  -2.176   1.142  0.00  0.00    -0.530 N 
ATOM      7  C   LIG    1       -0.247  -2.886   2.419  0.00  0.00    +0.360 C 
ATOM      8  O   LIG    1        0.165  -0.053  -2.212  0.00  0.00    -0.480 OA
ATOM      9  C   LIG    1       -0.149  -0.835   1.135  0.00  0.00    +0.700 A 
ATOM     10  O   LIG    1       -0.264  -0.249   2.193  0.00  0.00    -0.520 OA
ENDROOT
BRANCH   5  11
ATOM     11  N   LIG    1        0.014  -4.240   0.020  0.00  0.00    -0.710 N 
ATOM     12  H   LIG    1       -0.661  -4.746  -0.460  0.00  0.00    +0.440 HD
BRANCH  11  13
ATOM     13  C   LIG    1        1.054  -4.942   0.777  0.00  0.00    +0.270 C 
BRANCH  13  14
ATOM     14  C   LIG    1        0.934  -6.447   0.533  0.00  0.00    +0.200 C 
BRANCH  14  15
ATOM     15  O   LIG    1        1.210  -6.731  -0.840  0.00  0.00    -0.550 OA
ATOM     16  H   LIG    1        1.152  -7.669  -1.067  0.00  0.00    +0.390 HD
ENDBRANCH  14  15
ENDBRANCH  13  14
ENDBRANCH  11  13
ENDBRANCH   5  11
BRANCH   4  17
ATOM     17  N   LIG    1        0.229  -2.834  -2.387  0.00  0.00    -0.270 NA
ATOM     18  O   LIG    1        0.348  -4.046  -2.393  0.00  0.00    +0.050 OA
ENDBRANCH   4  17
TORSDOF 5
ENDMDL
MODEL     1024
REMARK  Name = ZINC000005183665
REMARK                            x       y       z     vdW  Elec       q    Type
REMARK                         _______ _______ _______ _____ _____    ______ ____
ROOT
ATOM      1  C   LIG    1        0.065   1.364   0.164  0.00  0.00    +0.100 C 
ATOM      2  C   LIG    1        0.079  -0.133  -0.008  0.00  0.00    +0.520 C 
ATOM      3  N   LIG    1       -1.079  -0.823  -0.001  0.00  0.00    -0.620 N 
ATOM      4  C   LIG    1       -2.363  -0.128   0.168  0.00  0.00    +0.280 C 
ATOM      5  C   LIG    1       -3.275  -0.489  -1.010  0.00  0.00    +0.300 C 
ATOM      6  N   LIG    1       -3.276  -1.950  -1.172  0.00  0.00    -0.600 N 
ATOM      7  C   LIG    1       -1.993  -2.645  -1.341  0.00  0.00    +0.280 C 
ATOM      8  C   LIG    1       -1.081  -2.283  -0.168  0.00  0.00    +0.280 C 
ATOM      9  O   LIG    1        1.132  -0.717  -0.154  0.00  0.00    -0.530 OA
ENDROOT
BRANCH   6  10
ATOM     10  C   LIG    1       -4.453  -2.651  -1.165  0.00  0.00    +0.480 A 
ATOM     11  C   LIG    1       -5.623  -2.084  -1.662  0.00  0.00    +0.030 A 
ATOM     12  N   LIG    1       -6.744  -2.782  -1.644  0.00  0.00    -0.070 NA
ATOM     13  N   LIG    1       -6.780  -3.979  -1.177  0.00  0.00    -0.330 NA
ATOM     14  C   LIG    1       -5.688  -4.575  -0.686  0.00  0.00    +0.590 A 
ATOM     15  O   LIG    1       -5.761  -5.712  -0.251  0.00  0.00    -0.520 OA
ATOM     16  N   LIG    1       -4.505  -3.925  -0.676  0.00  0.00    -0.620 N 
ATOM     17  H   LIG    1       -3.710  -4.352  -0.322  0.00  0.00    +0.420 HD
ENDBRANCH   6  10
TORSDOF 1
ENDMDL
MODEL     1025
REMARK  Name = ZINC000239438979
REMARK                            x       y       z     vdW  Elec       q    Type
REMARK                         _______ _______ _______ _____ _____    ______ ____
ROOT
ATOM      1  C   LIG    1        1.277  -2.753   2.085  0.00  0.00    +0.400 C 
ATOM      2  O   LIG    1        2.617  -3.073   1.706  0.00  0.00    -0.370 OA
ATOM      3  C   LIG    1        3.358  -3.767   2.711  0.00  0.00    +0.200 C 
ATOM      4  C   LIG    1        2.671  -5.099   3.021  0.00  0.00    +0.180 C 
ATOM      5  C   LIG    1        1.231  -4.830   3.467  0.00  0.00    +0.170 C 
ATOM      6  C   LIG    1        0.506  -4.044   2.370  0.00  0.00    +0.120 C 
ENDROOT
BRANCH   1  11
ATOM      7  C   LIG    1       -0.018   1.461   0.010  0.00  0.00    +0.300 C 
ATOM      8  N   LIG    1        0.002  -0.004   0.002  0.00  0.00    -0.750 N 
ATOM      9  H   LIG    1       -0.418  -0.491  -0.724  0.00  0.00    +0.400 HD
ATOM     10  C   LIG    1        0.604  -0.675   1.004  0.00  0.00    +0.710 C 
ATOM     11  N   LIG    1        0.623  -2.023   0.996  0.00  0.00    -0.730 N 
ATOM     12  H   LIG    1        0.202  -2.510   0.270  0.00  0.00    +0.400 HD
ATOM     13  O   LIG    1        1.131  -0.065   1.914  0.00  0.00    -0.580 OA
ENDBRANCH   1  11
BRANCH   5  14
ATOM     14  O   LIG    1        0.560  -6.072   3.690  0.00  0.00    -0.560 OA
ATOM     15  H   LIG    1       -0.359  -5.977   3.975  0.00  0.00    +0.390 HD
ENDBRANCH   5  14
BRANCH   4  16
ATOM     16  O   LIG    1        2.665  -5.917   1.849  0.00  0.00    -0.550 OA
ATOM     17  H   LIG    1        2.244  -6.779   1.974  0.00  0.00    +0.390 HD
ENDBRANCH   4  16
BRANCH   6  18
ATOM     18  O   LIG    1       -0.817  -3.726   2.804  0.00  0.00    -0.560 OA
ATOM     19  H   LIG    1       -1.334  -3.227   2.158  0.00  0.00    +0.390 HD
ENDBRANCH   6  18
BRANCH   3  20
ATOM     20  C   LIG    1        4.779  -4.030   2.208  0.00  0.00    +0.220 C 
BRANCH  20  21
ATOM     21  O   LIG    1        5.459  -2.786   2.029  0.00  0.00    -0.570 OA
ATOM     22  H   LIG    1        6.367  -2.877   1.710  0.00  0.00    +0.380 HD
ENDBRANCH  20  21
ENDBRANCH   3  20
TORSDOF 6
ENDMDL
MODEL     1026
REMARK  Name = ZINC000239438978
REMARK                            x       y       z     vdW  Elec       q    Type
REMARK                         _______ _______ _______ _____ _____    ______ ____
ROOT
ATOM      1  C   LIG    1        1.277  -2.753   2.085  0.00  0.00    +0.400 C 
ATOM      2  O   LIG    1        2.617  -3.073   1.706  0.00  0.00    -0.360 OA
ATOM      3  C   LIG    1        3.358  -3.767   2.711  0.00  0.00    +0.190 C 
ATOM      4  C   LIG    1        2.671  -5.099   3.021  0.00  0.00    +0.160 C 
ATOM      5  C   LIG    1        1.231  -4.830   3.467  0.00  0.00    +0.160 C 
ATOM      6  C   LIG    1        0.506  -4.044   2.370  0.00  0.00    +0.120 C 
ENDROOT
BRANCH   1  11
ATOM      7  C   LIG    1       -0.018   1.461   0.010  0.00  0.00    +0.300 C 
ATOM      8  N   LIG    1        0.002  -0.004   0.002  0.00  0.00    -0.750 N 
ATOM      9  H   LIG    1       -0.418  -0.491  -0.724  0.00  0.00    +0.400 HD
ATOM     10  C   LIG    1        0.604  -0.675   1.004  0.00  0.00    +0.710 C 
ATOM     11  N   LIG    1        0.623  -2.023   0.996  0.00  0.00    -0.730 N 
ATOM     12  H   LIG    1        0.202  -2.510   0.270  0.00  0.00    +0.400 HD
ATOM     13  O   LIG    1        1.131  -0.065   1.914  0.00  0.00    -0.580 OA
ENDBRANCH   1  11
BRANCH   5  14
ATOM     14  O   LIG    1        0.560  -6.072   3.690  0.00  0.00    -0.550 OA
ATOM     15  H   LIG    1       -0.359  -5.977   3.975  0.00  0.00    +0.390 HD
ENDBRANCH   5  14
BRANCH   4  16
ATOM     16  O   LIG    1        2.665  -5.917   1.849  0.00  0.00    -0.530 OA
ATOM     17  H   LIG    1        2.244  -6.779   1.974  0.00  0.00    +0.380 HD
ENDBRANCH   4  16
BRANCH   6  18
ATOM     18  O   LIG    1        0.440  -4.834   1.181  0.00  0.00    -0.520 OA
ATOM     19  H   LIG    1       -0.007  -4.397   0.443  0.00  0.00    +0.370 HD
ENDBRANCH   6  18
BRANCH   3  20
ATOM     20  C   LIG    1        4.779  -4.030   2.208  0.00  0.00    +0.220 C 
BRANCH  20  21
ATOM     21  O   LIG    1        5.459  -2.786   2.029  0.00  0.00    -0.570 OA
ATOM     22  H   LIG    1        6.367  -2.877   1.710  0.00  0.00    +0.380 HD
ENDBRANCH  20  21
ENDBRANCH   3  20
TORSDOF 6
ENDMDL
MODEL     1027
REMARK  Name = ZINC000239438977
REMARK                            x       y       z     vdW  Elec       q    Type
REMARK                         _______ _______ _______ _____ _____    ______ ____
ROOT
ATOM      1  C   LIG    1        1.277  -2.753   2.085  0.00  0.00    +0.400 C 
ATOM      2  O   LIG    1        2.617  -3.073   1.706  0.00  0.00    -0.370 OA
ATOM      3  C   LIG    1        3.358  -3.767   2.711  0.00  0.00    +0.200 C 
ATOM      4  C   LIG    1        2.671  -5.099   3.021  0.00  0.00    +0.170 C 
ATOM      5  C   LIG    1        1.231  -4.830   3.467  0.00  0.00    +0.170 C 
ATOM      6  C   LIG    1        0.506  -4.044   2.370  0.00  0.00    +0.120 C 
ENDROOT
BRANCH   1  11
ATOM      7  C   LIG    1       -0.018   1.461   0.010  0.00  0.00    +0.300 C 
ATOM      8  N   LIG    1        0.002  -0.004   0.002  0.00  0.00    -0.750 N 
ATOM      9  H   LIG    1       -0.418  -0.491  -0.724  0.00  0.00    +0.400 HD
ATOM     10  C   LIG    1        0.604  -0.675   1.004  0.00  0.00    +0.710 C 
ATOM     11  N   LIG    1        0.623  -2.023   0.996  0.00  0.00    -0.730 N 
ATOM     12  H   LIG    1        0.202  -2.510   0.270  0.00  0.00    +0.400 HD
ATOM     13  O   LIG    1        1.131  -0.065   1.914  0.00  0.00    -0.580 OA
ENDBRANCH   1  11
BRANCH   5  14
ATOM     14  O   LIG    1        1.239  -4.069   4.676  0.00  0.00    -0.550 OA
ATOM     15  H   LIG    1        0.357  -3.862   5.017  0.00  0.00    +0.390 HD
ENDBRANCH   5  14
BRANCH   4  16
ATOM     16  O   LIG    1        2.665  -5.917   1.849  0.00  0.00    -0.540 OA
ATOM     17  H   LIG    1        2.244  -6.779   1.974  0.00  0.00    +0.380 HD
ENDBRANCH   4  16
BRANCH   6  18
ATOM     18  O   LIG    1       -0.817  -3.726   2.804  0.00  0.00    -0.550 OA
ATOM     19  H   LIG    1       -1.334  -3.227   2.158  0.00  0.00    +0.390 HD
ENDBRANCH   6  18
BRANCH   3  20
ATOM     20  C   LIG    1        4.779  -4.030   2.208  0.00  0.00    +0.210 C 
BRANCH  20  21
ATOM     21  O   LIG    1        5.459  -2.786   2.029  0.00  0.00    -0.570 OA
ATOM     22  H   LIG    1        6.367  -2.877   1.710  0.00  0.00    +0.380 HD
ENDBRANCH  20  21
ENDBRANCH   3  20
TORSDOF 6
ENDMDL
MODEL     1028
REMARK  Name = ZINC000239438976
REMARK                            x       y       z     vdW  Elec       q    Type
REMARK                         _______ _______ _______ _____ _____    ______ ____
ROOT
ATOM      1  C   LIG    1        1.277  -2.753   2.085  0.00  0.00    +0.400 C 
ATOM      2  O   LIG    1        2.617  -3.073   1.706  0.00  0.00    -0.370 OA
ATOM      3  C   LIG    1        3.358  -3.767   2.711  0.00  0.00    +0.210 C 
ATOM      4  C   LIG    1        2.671  -5.099   3.021  0.00  0.00    +0.170 C 
ATOM      5  C   LIG    1        1.231  -4.830   3.467  0.00  0.00    +0.160 C 
ATOM      6  C   LIG    1        0.506  -4.044   2.370  0.00  0.00    +0.120 C 
ENDROOT
BRANCH   1  11
ATOM      7  C   LIG    1       -0.018   1.461   0.010  0.00  0.00    +0.300 C 
ATOM      8  N   LIG    1        0.002  -0.004   0.002  0.00  0.00    -0.750 N 
ATOM      9  H   LIG    1       -0.418  -0.491  -0.724  0.00  0.00    +0.400 HD
ATOM     10  C   LIG    1        0.604  -0.675   1.004  0.00  0.00    +0.710 C 
ATOM     11  N   LIG    1        0.623  -2.023   0.996  0.00  0.00    -0.730 N 
ATOM     12  H   LIG    1        0.202  -2.510   0.270  0.00  0.00    +0.390 HD
ATOM     13  O   LIG    1        1.131  -0.065   1.914  0.00  0.00    -0.580 OA
ENDBRANCH   1  11
BRANCH   5  14
ATOM     14  O   LIG    1        1.239  -4.069   4.676  0.00  0.00    -0.550 OA
ATOM     15  H   LIG    1        0.357  -3.862   5.017  0.00  0.00    +0.390 HD
ENDBRANCH   5  14
BRANCH   4  16
ATOM     16  O   LIG    1        2.665  -5.917   1.849  0.00  0.00    -0.530 OA
ATOM     17  H   LIG    1        2.244  -6.779   1.974  0.00  0.00    +0.380 HD
ENDBRANCH   4  16
BRANCH   6  18
ATOM     18  O   LIG    1        0.440  -4.834   1.181  0.00  0.00    -0.530 OA
ATOM     19  H   LIG    1       -0.007  -4.397   0.443  0.00  0.00    +0.370 HD
ENDBRANCH   6  18
BRANCH   3  20
ATOM     20  C   LIG    1        4.779  -4.030   2.208  0.00  0.00    +0.210 C 
BRANCH  20  21
ATOM     21  O   LIG    1        5.459  -2.786   2.029  0.00  0.00    -0.570 OA
ATOM     22  H   LIG    1        6.367  -2.877   1.710  0.00  0.00    +0.380 HD
ENDBRANCH  20  21
ENDBRANCH   3  20
TORSDOF 6
ENDMDL
MODEL     1029
REMARK  Name = ZINC000070817945
REMARK                            x       y       z     vdW  Elec       q    Type
REMARK                         _______ _______ _______ _____ _____    ______ ____
ROOT
ATOM      1  C   LIG    1        1.419  -2.501  -2.460  0.00  0.00    -0.010 C 
ATOM      2  C   LIG    1        2.950  -2.583  -2.323  0.00  0.00    +0.330 C 
ATOM      3  N   LIG    1        2.831  -3.924  -2.929  0.00  0.00    -1.040 NA
ATOM      4  C   LIG    1        1.436  -4.040  -2.462  0.00  0.00    +0.350 C 
ENDROOT
BRANCH   1   7
ATOM      5  N   LIG    1        0.646  -0.565  -1.127  0.00  0.00    -0.600 N 
ATOM      6  H   LIG    1        1.024   0.014  -1.808  0.00  0.00    +0.410 HD
ATOM      7  C   LIG    1        0.733  -1.904  -1.258  0.00  0.00    +0.530 C 
ATOM      8  O   LIG    1        0.261  -2.628  -0.407  0.00  0.00    -0.510 OA
BRANCH   5  10
ATOM      9  C   LIG    1       -0.017   1.425   0.010  0.00  0.00    +0.230 C 
ATOM     10  O   LIG    1        0.002  -0.004   0.002  0.00  0.00    -0.150 OA
ENDBRANCH   5  10
ENDBRANCH   1   7
BRANCH   3  11
ATOM     11  S   LIG    1        3.853  -4.904  -3.788  0.00  0.00    +2.630 S 
ATOM     12  O   LIG    1        4.765  -4.005  -4.404  0.00  0.00    -0.950 OA
ATOM     13  O   LIG    1        2.986  -5.716  -4.567  0.00  0.00    -0.950 OA
ATOM     14  C   LIG    1        4.694  -5.898  -2.526  0.00  0.00    -0.290 C 
ENDBRANCH   3  11
TORSDOF 3
ENDMDL
MODEL     1030
REMARK  Name = ZINC000021302830
REMARK                            x       y       z     vdW  Elec       q    Type
REMARK                         _______ _______ _______ _____ _____    ______ ____
ROOT
ATOM      1  N   LIG    1        2.244  -2.276  -1.634  0.00  0.00    -0.520 N 
ATOM      2  C   LIG    1        2.154  -3.433  -2.351  0.00  0.00    +0.370 A 
ATOM      3  C   LIG    1        3.205  -3.823  -3.113  0.00  0.00    -0.080 A 
ATOM      4  C   LIG    1        4.364  -3.018  -3.141  0.00  0.00    +0.500 A 
ATOM      5  N   LIG    1        4.404  -1.901  -2.427  0.00  0.00    -0.590 NA
ATOM      6  F   LIG    1        3.144  -4.964  -3.833  0.00  0.00    -0.120 F 
ATOM      7  C   LIG    1        3.361  -1.528  -1.687  0.00  0.00    +0.660 A 
ATOM      8  O   LIG    1        3.424  -0.496  -1.040  0.00  0.00    -0.520 OA
ENDROOT
BRANCH   1  12
ATOM      9  C   LIG    1       -0.019   1.526   0.010  0.00  0.00    +0.070 C 
ATOM     10  C   LIG    1        0.002  -0.004   0.002  0.00  0.00    +0.140 C 
ATOM     11  O   LIG    1        0.734  -0.491  -1.144  0.00  0.00    -0.350 OA
ATOM     12  C   LIG    1        1.116  -1.842  -0.806  0.00  0.00    +0.420 C 
ATOM     13  C   LIG    1        1.531  -1.775   0.681  0.00  0.00    +0.170 C 
ATOM     14  C   LIG    1        0.779  -0.538   1.226  0.00  0.00    +0.140 C 
BRANCH  13  15
ATOM     15  O   LIG    1        1.118  -2.957   1.370  0.00  0.00    -0.540 OA
ATOM     16  H   LIG    1        1.353  -2.968   2.308  0.00  0.00    +0.390 HD
ENDBRANCH  13  15
BRANCH  14  17
ATOM     17  O   LIG    1       -0.120  -0.918   2.270  0.00  0.00    -0.550 OA
ATOM     18  H   LIG    1       -0.618  -0.181   2.648  0.00  0.00    +0.390 HD
ENDBRANCH  14  17
ENDBRANCH   1  12
BRANCH   4  19
ATOM     19  N   LIG    1        5.446  -3.390  -3.906  0.00  0.00    -0.800 N 
ATOM     20  H   LIG    1        6.241  -2.834  -3.924  0.00  0.00    +0.420 HD
ATOM     21  H   LIG    1        5.413  -4.207  -4.428  0.00  0.00    +0.420 HD
ENDBRANCH   4  19
TORSDOF 4
ENDMDL
MODEL     1031
REMARK  Name = ZINC000088357951
REMARK                            x       y       z     vdW  Elec       q    Type
REMARK                         _______ _______ _______ _____ _____    ______ ____
ROOT
ATOM      1  O   LIG    1        0.002  -0.004   0.002  0.00  0.00    -0.530 OA
ATOM      2  C   LIG    1       -0.014   1.209   0.009  0.00  0.00    +0.530 C 
ATOM      3  N   LIG    1       -1.191   1.867   0.018  0.00  0.00    -0.610 N 
ATOM      4  C   LIG    1       -1.233   3.337   0.020  0.00  0.00    +0.280 C 
ATOM      5  C   LIG    1       -2.166   3.798  -1.105  0.00  0.00    +0.170 C 
ATOM      6  N   LIG    1       -3.470   3.139  -0.957  0.00  0.00    -0.530 NA
ATOM      7  C   LIG    1       -3.350   1.682  -1.099  0.00  0.00    +0.170 C 
ATOM      8  C   LIG    1       -2.466   1.133   0.020  0.00  0.00    +0.300 C 
ENDROOT
BRANCH   2   9
ATOM      9  C   LIG    1        1.280   1.980   0.001  0.00  0.00    +0.140 C 
ATOM     10  C   LIG    1        1.606   2.447   1.421  0.00  0.00    +0.200 C 
ATOM     11  O   LIG    1        2.872   3.113   1.421  0.00  0.00    -0.370 OA
ATOM     12  C   LIG    1        3.950   2.299   0.954  0.00  0.00    +0.190 C 
ATOM     13  C   LIG    1        3.648   1.830  -0.472  0.00  0.00    +0.210 C 
ATOM     14  N   LIG    1        2.364   1.114  -0.486  0.00  0.00    -0.670 NA
ATOM     15  H   LIG    1        2.418   0.264   0.054  0.00  0.00    +0.350 HD
ENDBRANCH   2   9
BRANCH   6  16
ATOM     16  C   LIG    1       -4.446   3.682  -1.911  0.00  0.00    +0.190 C 
BRANCH  16  17
ATOM     17  C   LIG    1       -5.842   3.159  -1.567  0.00  0.00    +0.180 C 
BRANCH  17  18
ATOM     18  O   LIG    1       -6.239   3.665  -0.291  0.00  0.00    -0.560 OA
ATOM     19  H   LIG    1       -7.116   3.373  -0.008  0.00  0.00    +0.380 HD
ENDBRANCH  17  18
ENDBRANCH  16  17
ENDBRANCH   6  16
TORSDOF 4
ENDMDL
MODEL     1032
REMARK  Name = ZINC000088357952
REMARK                            x       y       z     vdW  Elec       q    Type
REMARK                         _______ _______ _______ _____ _____    ______ ____
ROOT
ATOM      1  O   LIG    1        0.002  -0.004   0.002  0.00  0.00    -0.510 OA
ATOM      2  C   LIG    1       -0.014   1.209   0.009  0.00  0.00    +0.520 C 
ATOM      3  N   LIG    1       -1.191   1.867   0.018  0.00  0.00    -0.610 N 
ATOM      4  C   LIG    1       -1.233   3.337   0.020  0.00  0.00    +0.280 C 
ATOM      5  C   LIG    1       -2.166   3.798  -1.105  0.00  0.00    +0.170 C 
ATOM      6  N   LIG    1       -3.470   3.139  -0.957  0.00  0.00    -0.530 NA
ATOM      7  C   LIG    1       -3.350   1.682  -1.099  0.00  0.00    +0.170 C 
ATOM      8  C   LIG    1       -2.466   1.133   0.020  0.00  0.00    +0.300 C 
ENDROOT
BRANCH   2   9
ATOM      9  C   LIG    1        1.280   1.980   0.001  0.00  0.00    +0.110 C 
ATOM     10  C   LIG    1        1.579   2.462  -1.421  0.00  0.00    +0.250 C 
ATOM     11  O   LIG    1        2.844   3.128  -1.438  0.00  0.00    -0.380 OA
ATOM     12  C   LIG    1        3.932   2.309  -1.000  0.00  0.00    +0.220 C 
ATOM     13  C   LIG    1        3.657   1.825   0.426  0.00  0.00    +0.150 C 
ATOM     14  N   LIG    1        2.373   1.109   0.457  0.00  0.00    -0.670 NA
ATOM     15  H   LIG    1        2.185   0.744   1.379  0.00  0.00    +0.350 HD
ENDBRANCH   2   9
BRANCH   6  16
ATOM     16  C   LIG    1       -4.446   3.682  -1.911  0.00  0.00    +0.190 C 
BRANCH  16  17
ATOM     17  C   LIG    1       -5.842   3.159  -1.567  0.00  0.00    +0.180 C 
BRANCH  17  18
ATOM     18  O   LIG    1       -6.239   3.665  -0.291  0.00  0.00    -0.560 OA
ATOM     19  H   LIG    1       -7.116   3.373  -0.008  0.00  0.00    +0.380 HD
ENDBRANCH  17  18
ENDBRANCH  16  17
ENDBRANCH   6  16
TORSDOF 4
ENDMDL
MODEL     1033
REMARK  Name = ZINC000025626234
REMARK                            x       y       z     vdW  Elec       q    Type
REMARK                         _______ _______ _______ _____ _____    ______ ____
ROOT
ATOM      1  C   LIG    1       -0.019   1.526   0.010  0.00  0.00    +0.050 C 
ATOM      2  C   LIG    1        0.002  -0.004   0.002  0.00  0.00    +0.250 C 
ATOM      3  O   LIG    1        0.671  -0.465  -1.174  0.00  0.00    -0.370 OA
ATOM      4  C   LIG    1        1.832  -1.196  -0.769  0.00  0.00    +0.350 C 
ATOM      5  O   LIG    1        1.649  -2.598  -0.927  0.00  0.00    -0.330 OA
ATOM      6  C   LIG    1        1.637  -3.254   0.343  0.00  0.00    +0.170 C 
ATOM      7  C   LIG    1        2.616  -4.448   0.310  0.00  0.00    +0.180 C 
ATOM      8  C   LIG    1        3.968  -3.825   0.699  0.00  0.00    +0.310 C 
ATOM      9  O   LIG    1        3.716  -2.549   1.288  0.00  0.00    -0.380 OA
ATOM     10  C   LIG    1        2.298  -2.281   1.352  0.00  0.00    +0.190 C 
ATOM     11  C   LIG    1        2.010  -0.881   0.734  0.00  0.00    +0.160 C 
ATOM     12  C   LIG    1       -1.433  -0.534   0.012  0.00  0.00    +0.070 C 
ATOM     13  O   LIG    1        0.694  -0.478   1.160  0.00  0.00    -0.360 OA
ENDROOT
BRANCH   8  14
ATOM     14  O   LIG    1        4.779  -3.667  -0.467  0.00  0.00    -0.540 OA
ATOM     15  H   LIG    1        5.647  -3.279  -0.291  0.00  0.00    +0.390 HD
ENDBRANCH   8  14
BRANCH   7  16
ATOM     16  O   LIG    1        2.678  -5.010  -1.002  0.00  0.00    -0.520 OA
ATOM     17  H   LIG    1        3.279  -5.764  -1.079  0.00  0.00    +0.380 HD
ENDBRANCH   7  16
TORSDOF 2
ENDMDL
MODEL     1034
REMARK  Name = ZINC000000265753
REMARK                            x       y       z     vdW  Elec       q    Type
REMARK                         _______ _______ _______ _____ _____    ______ ____
ROOT
ATOM      1  N   LIG    1        1.354  -2.503  -2.345  0.00  0.00    -0.410 N 
ATOM      2  C   LIG    1        0.784  -2.816  -3.525  0.00  0.00    +0.520 A 
ATOM      3  N   LIG    1        1.712  -3.124  -4.395  0.00  0.00    -0.490 NA
ATOM      4  C   LIG    1        2.916  -3.026  -3.827  0.00  0.00    +0.330 A 
ATOM      5  N   LIG    1        4.210  -3.231  -4.277  0.00  0.00    -0.510 N 
ATOM      6  C   LIG    1        4.445  -3.656  -5.659  0.00  0.00    +0.340 C 
ATOM      7  C   LIG    1        5.252  -3.049  -3.443  0.00  0.00    +0.710 A 
ATOM      8  O   LIG    1        6.380  -3.238  -3.855  0.00  0.00    -0.530 OA
ATOM      9  N   LIG    1        5.076  -2.660  -2.169  0.00  0.00    -0.650 N 
ATOM     10  H   LIG    1        5.849  -2.535  -1.596  0.00  0.00    +0.440 HD
ATOM     11  C   LIG    1        3.840  -2.440  -1.674  0.00  0.00    +0.600 A 
ATOM     12  O   LIG    1        3.693  -2.088  -0.517  0.00  0.00    -0.510 OA
ATOM     13  C   LIG    1        2.719  -2.623  -2.512  0.00  0.00    -0.150 A 
ENDROOT
BRANCH   1  14
ATOM     14  C   LIG    1        0.657  -2.104  -1.120  0.00  0.00    +0.420 C 
BRANCH  14  15
ATOM     15  C   LIG    1        0.598  -0.600  -1.043  0.00  0.00    +0.450 C 
ATOM     16  O   LIG    1        1.088   0.070  -1.921  0.00  0.00    -0.490 OA
BRANCH  15  18
ATOM     17  C   LIG    1       -0.018   1.448   0.010  0.00  0.00    +0.290 C 
ATOM     18  O   LIG    1        0.002  -0.004   0.002  0.00  0.00    -0.350 OA
ENDBRANCH  15  18
ENDBRANCH  14  15
ENDBRANCH   1  14
TORSDOF 3
ENDMDL
MODEL     1035
REMARK  Name = ZINC000000001457
REMARK                            x       y       z     vdW  Elec       q    Type
REMARK                         _______ _______ _______ _____ _____    ______ ____
ROOT
ATOM      1  O   LIG    1        0.002  -0.004   0.002  0.00  0.00    -0.490 OA
ATOM      2  C   LIG    1       -0.014   1.214   0.009  0.00  0.00    +0.540 A 
ATOM      3  N   LIG    1       -1.188   1.878   0.029  0.00  0.00    -0.650 N 
ATOM      4  H   LIG    1       -2.022   1.384   0.038  0.00  0.00    +0.440 HD
ATOM      5  C   LIG    1       -1.206   3.224   0.037  0.00  0.00    +0.680 A 
ATOM      6  N   LIG    1       -0.062   3.932   0.024  0.00  0.00    -0.530 N 
ATOM      7  C   LIG    1        1.153   3.295   0.004  0.00  0.00    +0.340 A 
ATOM      8  O   LIG    1       -2.272   3.808   0.055  0.00  0.00    -0.480 OA
ATOM      9  C   LIG    1        1.199   1.946   0.001  0.00  0.00    -0.070 A 
ATOM     10  F   LIG    1        2.387   1.302  -0.018  0.00  0.00    -0.100 F 
ENDROOT
BRANCH   6  11
ATOM     11  C1* LIG    1       -0.114   5.396   0.033  0.00  0.00    +0.410 C 
ATOM     12  C2* LIG    1        0.562   5.958   1.310  0.00  0.00    +0.000 C 
ATOM     13  C3* LIG    1       -0.125   7.337   1.460  0.00  0.00    +0.170 C 
ATOM     14  C4* LIG    1       -1.428   7.200   0.648  0.00  0.00    +0.180 C 
ATOM     15  O4* LIG    1       -1.478   5.855   0.140  0.00  0.00    -0.310 OA
BRANCH  13  16
ATOM     16  O3* LIG    1        0.700   8.369   0.915  0.00  0.00    -0.550 OA
ATOM     17  H3* LIG    1        1.558   8.459   1.353  0.00  0.00    +0.390 HD
ENDBRANCH  13  16
BRANCH  14  18
ATOM     18  C5* LIG    1       -2.634   7.465   1.552  0.00  0.00    +0.200 C 
BRANCH  18  19
ATOM     19  O5* LIG    1       -3.829   7.451   0.768  0.00  0.00    -0.560 OA
ATOM     20  H5* LIG    1       -4.635   7.612   1.277  0.00  0.00    +0.380 HD
ENDBRANCH  18  19
ENDBRANCH  14  18
ENDBRANCH   6  11
TORSDOF 4
ENDMDL
MODEL     1036
REMARK  Name = ZINC000000039884
REMARK                            x       y       z     vdW  Elec       q    Type
REMARK                         _______ _______ _______ _____ _____    ______ ____
ROOT
ATOM      1  C   LIG    1       -0.018   1.461   0.010  0.00  0.00    +0.350 C 
ATOM      2  N   LIG    1        0.002  -0.004   0.002  0.00  0.00    -0.510 N 
ATOM      3  C   LIG    1       -1.189  -0.712   0.004  0.00  0.00    +0.320 A 
ATOM      4  C   LIG    1       -1.144  -2.100  -0.004  0.00  0.00    -0.140 A 
ATOM      5  N   LIG    1       -2.456  -2.530   0.000  0.00  0.00    -0.400 N 
ATOM      6  C   LIG    1       -3.231  -1.427   0.010  0.00  0.00    +0.510 A 
ATOM      7  C   LIG    1        0.111  -2.748  -0.013  0.00  0.00    +0.600 A 
ATOM      8  N   LIG    1        1.236  -2.003  -0.015  0.00  0.00    -0.550 N 
ATOM      9  C   LIG    1        2.541  -2.668  -0.025  0.00  0.00    +0.350 C 
ATOM     10  O   LIG    1        0.176  -3.964  -0.021  0.00  0.00    -0.520 OA
ATOM     11  N   LIG    1       -2.477  -0.358   0.012  0.00  0.00    -0.490 NA
ATOM     12  C   LIG    1        1.178  -0.660  -0.013  0.00  0.00    +0.710 A 
ATOM     13  O   LIG    1        2.213  -0.022  -0.014  0.00  0.00    -0.530 OA
ENDROOT
BRANCH   5  14
ATOM     14  C   LIG    1       -2.918  -3.920  -0.005  0.00  0.00    +0.360 C 
BRANCH  14  15
ATOM     15  C   LIG    1       -2.952  -4.442   1.409  0.00  0.00    +0.510 C 
ATOM     16  O   LIG    1       -2.623  -3.724   2.329  0.00  0.00    -0.520 OA
ATOM     17  N   LIG    1       -3.349  -5.708   1.649  0.00  0.00    -0.850 N 
ATOM     18  H   LIG    1       -3.371  -6.044   2.559  0.00  0.00    +0.410 HD
ATOM     19  H   LIG    1       -3.612  -6.282   0.913  0.00  0.00    +0.410 HD
ENDBRANCH  14  15
ENDBRANCH   5  14
TORSDOF 2
ENDMDL
MODEL     1037
REMARK  Name = ZINC000000061493
REMARK                            x       y       z     vdW  Elec       q    Type
REMARK                         _______ _______ _______ _____ _____    ______ ____
ROOT
ATOM      1  O   LIG    1        0.002  -0.004   0.002  0.00  0.00    -0.440 OA
ATOM      2  C   LIG    1       -0.014   1.210   0.009  0.00  0.00    +0.580 A 
ATOM      3  N   LIG    1       -1.117   1.980   0.029  0.00  0.00    -0.670 N 
ATOM      4  H   LIG    1       -2.025   1.639   0.041  0.00  0.00    +0.440 HD
ATOM      5  C   LIG    1       -0.795   3.286   0.032  0.00  0.00    +0.580 A 
ATOM      6  C   LIG    1        0.680   3.409   0.011  0.00  0.00    -0.110 A 
ATOM      7  C   LIG    1        1.557   4.486   0.006  0.00  0.00    +0.190 A 
ATOM      8  C   LIG    1        2.926   4.254  -0.015  0.00  0.00    -0.110 A 
ATOM      9  C   LIG    1        3.422   2.936  -0.030  0.00  0.00    -0.110 A 
ATOM     10  C   LIG    1        4.897   3.058  -0.051  0.00  0.00    +0.580 A 
ATOM     11  N   LIG    1        5.218   4.364  -0.048  0.00  0.00    -0.670 N 
ATOM     12  H   LIG    1        6.126   4.706  -0.058  0.00  0.00    +0.440 HD
ATOM     13  O   LIG    1        5.685   2.134  -0.068  0.00  0.00    -0.440 OA
ATOM     14  C   LIG    1        2.545   1.859  -0.023  0.00  0.00    +0.190 A 
ATOM     15  C   LIG    1        4.116   5.134  -0.027  0.00  0.00    +0.580 A 
ATOM     16  O   LIG    1        4.099   6.348  -0.020  0.00  0.00    -0.440 OA
ATOM     17  O   LIG    1       -1.583   4.210   0.049  0.00  0.00    -0.440 OA
ATOM     18  C   LIG    1        1.176   2.090   0.002  0.00  0.00    -0.110 A 
ENDROOT
TORSDOF 0
ENDMDL
MODEL     1038
REMARK  Name = ZINC000000082885
REMARK                            x       y       z     vdW  Elec       q    Type
REMARK                         _______ _______ _______ _____ _____    ______ ____
ROOT
ATOM      1  N   LIG    1        1.354  -2.503  -2.345  0.00  0.00    -0.200 N 
ATOM      2  N   LIG    1        0.816  -2.716  -3.498  0.00  0.00    +0.030 NA
ATOM      3  N   LIG    1        1.725  -3.050  -4.343  0.00  0.00    -0.320 NA
ATOM      4  C   LIG    1        2.918  -3.064  -3.746  0.00  0.00    +0.380 A 
ATOM      5  N   LIG    1        2.734  -2.720  -2.488  0.00  0.00    -0.300 NA
ENDROOT
BRANCH   4   6
ATOM      6  N   LIG    1        4.138  -3.379  -4.346  0.00  0.00    -0.430 N 
ATOM      7  C   LIG    1        5.104  -2.282  -4.184  0.00  0.00    +0.180 C 
ATOM      8  C   LIG    1        6.443  -2.692  -4.803  0.00  0.00    +0.250 C 
ATOM      9  O   LIG    1        6.242  -3.038  -6.176  0.00  0.00    -0.380 OA
ATOM     10  C   LIG    1        5.307  -4.103  -6.371  0.00  0.00    +0.240 C 
ATOM     11  C   LIG    1        3.957  -3.707  -5.768  0.00  0.00    +0.190 C 
ENDBRANCH   4   6
BRANCH   1  12
ATOM     12  C   LIG    1        0.657  -2.104  -1.120  0.00  0.00    +0.470 C 
BRANCH  12  13
ATOM     13  C   LIG    1        0.598  -0.600  -1.043  0.00  0.00    +0.450 C 
ATOM     14  O   LIG    1        1.088   0.070  -1.921  0.00  0.00    -0.490 OA
BRANCH  13  16
ATOM     15  C   LIG    1       -0.018   1.448   0.010  0.00  0.00    +0.290 C 
ATOM     16  O   LIG    1        0.002  -0.004   0.002  0.00  0.00    -0.350 OA
ENDBRANCH  13  16
ENDBRANCH  12  13
ENDBRANCH   1  12
TORSDOF 4
ENDMDL
MODEL     1039
REMARK  Name = ZINC000000087590
REMARK                            x       y       z     vdW  Elec       q    Type
REMARK                         _______ _______ _______ _____ _____    ______ ____
ROOT
ATOM      1  C   LIG    1       -0.018   1.461   0.010  0.00  0.00    +0.340 C 
ATOM      2  N   LIG    1        0.002  -0.004   0.002  0.00  0.00    -0.580 N 
ATOM      3  C   LIG    1        0.008  -0.759  -1.111  0.00  0.00    +0.580 A 
ATOM      4  C   LIG    1        0.029  -2.185  -0.714  0.00  0.00    -0.110 A 
ATOM      5  C   LIG    1        0.042  -3.381  -1.420  0.00  0.00    +0.180 A 
ATOM      6  C   LIG    1        0.062  -4.585  -0.727  0.00  0.00    -0.110 A 
ATOM      7  C   LIG    1        0.068  -4.592   0.681  0.00  0.00    -0.110 A 
ATOM      8  C   LIG    1        0.090  -6.018   1.078  0.00  0.00    +0.580 A 
ATOM      9  N   LIG    1        0.095  -6.773  -0.035  0.00  0.00    -0.580 N 
ATOM     10  C   LIG    1        0.116  -8.238  -0.043  0.00  0.00    +0.340 C 
ATOM     11  O   LIG    1        0.100  -6.436   2.218  0.00  0.00    -0.440 OA
ATOM     12  C   LIG    1        0.055  -3.396   1.387  0.00  0.00    +0.180 A 
ATOM     13  C   LIG    1        0.080  -6.006  -1.140  0.00  0.00    +0.580 A 
ATOM     14  O   LIG    1        0.080  -6.412  -2.285  0.00  0.00    -0.440 OA
ATOM     15  C   LIG    1        0.035  -2.192   0.694  0.00  0.00    -0.110 A 
ATOM     16  O   LIG    1       -0.003  -0.341  -2.251  0.00  0.00    -0.440 OA
ATOM     17  C   LIG    1        0.023  -0.771   1.107  0.00  0.00    +0.580 A 
ATOM     18  O   LIG    1        0.030  -0.365   2.251  0.00  0.00    -0.440 OA
ENDROOT
TORSDOF 0
ENDMDL
MODEL     1040
REMARK  Name = ZINC000308455710
REMARK                            x       y       z     vdW  Elec       q    Type
REMARK                         _______ _______ _______ _____ _____    ______ ____
ROOT
ATOM      1  C   LIG    1        0.842  -3.882  -0.024  0.00  0.00    +0.300 C 
ENDROOT
BRANCH   1   5
ATOM      2  C   LIG    1        0.002  -0.004   0.002  0.00  0.00    +0.300 A 
ATOM      3  N   LIG    1       -1.039  -0.787   0.002  0.00  0.00    -0.340 NA
ATOM      4  N   LIG    1       -0.835  -2.031  -0.006  0.00  0.00    -0.210 NA
ATOM      5  C   LIG    1        0.391  -2.445  -0.014  0.00  0.00    -0.030 A 
ATOM      6  S   LIG    1        1.441  -1.026  -0.017  0.00  0.00    +0.060 S 
BRANCH   2   7
ATOM      7  N   LIG    1       -0.017   1.383   0.010  0.00  0.00    -0.800 N 
ATOM      8  H   LIG    1       -0.863   1.856   0.016  0.00  0.00    +0.420 HD
ATOM      9  H   LIG    1        0.817   1.879   0.004  0.00  0.00    +0.420 HD
ENDBRANCH   2   7
ENDBRANCH   1   5
BRANCH   1  10
ATOM     10  O   LIG    1        0.071  -4.617  -0.978  0.00  0.00    -0.520 OA
ATOM     11  H   LIG    1       -0.879  -4.617  -0.799  0.00  0.00    +0.380 HD
ENDBRANCH   1  10
BRANCH   1  12
ATOM     12  C   LIG    1        0.645  -4.489   1.366  0.00  0.00    +0.160 C 
BRANCH  12  13
ATOM     13  O   LIG    1        1.416  -3.755   2.320  0.00  0.00    -0.540 OA
ATOM     14  H   LIG    1        2.366  -3.755   2.141  0.00  0.00    +0.380 HD
ENDBRANCH  12  13
BRANCH  12  15
ATOM     15  C   LIG    1        1.103  -5.949   1.355  0.00  0.00    +0.200 C 
BRANCH  15  16
ATOM     16  O   LIG    1        0.332  -6.683   0.402  0.00  0.00    -0.530 OA
ATOM     17  H   LIG    1       -0.618  -6.683   0.581  0.00  0.00    +0.370 HD
ENDBRANCH  15  16
BRANCH  15  18
ATOM     18  C   LIG    1        0.906  -6.556   2.746  0.00  0.00    +0.160 C 
BRANCH  18  19
ATOM     19  O   LIG    1        1.440  -7.881   2.768  0.00  0.00    -0.560 OA
ATOM     20  H   LIG    1        1.350  -8.327   3.621  0.00  0.00    +0.380 HD
ENDBRANCH  18  19
ENDBRANCH  15  18
ENDBRANCH  12  15
ENDBRANCH   1  12
TORSDOF 9
ENDMDL
MODEL     1041
REMARK  Name = ZINC000308455711
REMARK                            x       y       z     vdW  Elec       q    Type
REMARK                         _______ _______ _______ _____ _____    ______ ____
ROOT
ATOM      1  C   LIG    1        0.842  -3.882  -0.024  0.00  0.00    +0.310 C 
ENDROOT
BRANCH   1   5
ATOM      2  C   LIG    1        0.002  -0.004   0.002  0.00  0.00    +0.310 A 
ATOM      3  N   LIG    1       -1.039  -0.787   0.002  0.00  0.00    -0.340 NA
ATOM      4  N   LIG    1       -0.835  -2.031  -0.006  0.00  0.00    -0.200 NA
ATOM      5  C   LIG    1        0.391  -2.445  -0.014  0.00  0.00    -0.030 A 
ATOM      6  S   LIG    1        1.441  -1.026  -0.017  0.00  0.00    +0.040 S 
BRANCH   2   7
ATOM      7  N   LIG    1       -0.017   1.383   0.010  0.00  0.00    -0.800 N 
ATOM      8  H   LIG    1       -0.863   1.856   0.016  0.00  0.00    +0.420 HD
ATOM      9  H   LIG    1        0.817   1.879   0.004  0.00  0.00    +0.420 HD
ENDBRANCH   2   7
ENDBRANCH   1   5
BRANCH   1  10
ATOM     10  O   LIG    1        0.071  -4.617  -0.978  0.00  0.00    -0.520 OA
ATOM     11  H   LIG    1       -0.879  -4.617  -0.799  0.00  0.00    +0.380 HD
ENDBRANCH   1  10
BRANCH   1  12
ATOM     12  C   LIG    1        0.645  -4.489   1.366  0.00  0.00    +0.170 C 
BRANCH  12  13
ATOM     13  O   LIG    1       -0.716  -4.322   1.771  0.00  0.00    -0.540 OA
ATOM     14  H   LIG    1       -1.356  -4.744   1.182  0.00  0.00    +0.370 HD
ENDBRANCH  12  13
BRANCH  12  15
ATOM     15  C   LIG    1        0.985  -5.980   1.325  0.00  0.00    +0.200 C 
BRANCH  15  16
ATOM     16  O   LIG    1        0.207  -6.618   0.310  0.00  0.00    -0.530 OA
ATOM     17  H   LIG    1       -0.748  -6.547   0.443  0.00  0.00    +0.370 HD
ENDBRANCH  15  16
BRANCH  15  18
ATOM     18  C   LIG    1        0.669  -6.613   2.682  0.00  0.00    +0.160 C 
BRANCH  18  19
ATOM     19  O   LIG    1        1.094  -7.977   2.682  0.00  0.00    -0.570 OA
ATOM     20  H   LIG    1        0.925  -8.442   3.513  0.00  0.00    +0.380 HD
ENDBRANCH  18  19
ENDBRANCH  15  18
ENDBRANCH  12  15
ENDBRANCH   1  12
TORSDOF 9
ENDMDL
MODEL     1042
REMARK  Name = ZINC000308455712
REMARK                            x       y       z     vdW  Elec       q    Type
REMARK                         _______ _______ _______ _____ _____    ______ ____
ROOT
ATOM      1  C   LIG    1        0.842  -3.882  -0.024  0.00  0.00    +0.310 C 
ENDROOT
BRANCH   1   5
ATOM      2  C   LIG    1        0.002  -0.004   0.002  0.00  0.00    +0.300 A 
ATOM      3  N   LIG    1       -1.039  -0.787   0.002  0.00  0.00    -0.340 NA
ATOM      4  N   LIG    1       -0.835  -2.031  -0.006  0.00  0.00    -0.210 NA
ATOM      5  C   LIG    1        0.391  -2.445  -0.014  0.00  0.00    -0.030 A 
ATOM      6  S   LIG    1        1.441  -1.026  -0.017  0.00  0.00    +0.060 S 
BRANCH   2   7
ATOM      7  N   LIG    1       -0.017   1.383   0.010  0.00  0.00    -0.800 N 
ATOM      8  H   LIG    1       -0.863   1.856   0.016  0.00  0.00    +0.420 HD
ATOM      9  H   LIG    1        0.817   1.879   0.004  0.00  0.00    +0.420 HD
ENDBRANCH   2   7
ENDBRANCH   1   5
BRANCH   1  10
ATOM     10  O   LIG    1        0.071  -4.617  -0.978  0.00  0.00    -0.530 OA
ATOM     11  H   LIG    1       -0.879  -4.617  -0.799  0.00  0.00    +0.390 HD
ENDBRANCH   1  10
BRANCH   1  12
ATOM     12  C   LIG    1        0.645  -4.489   1.366  0.00  0.00    +0.170 C 
BRANCH  12  13
ATOM     13  O   LIG    1        1.416  -3.755   2.320  0.00  0.00    -0.540 OA
ATOM     14  H   LIG    1        2.366  -3.755   2.141  0.00  0.00    +0.370 HD
ENDBRANCH  12  13
BRANCH  12  15
ATOM     15  C   LIG    1        1.103  -5.949   1.355  0.00  0.00    +0.200 C 
BRANCH  15  16
ATOM     16  O   LIG    1        2.451  -6.022   0.888  0.00  0.00    -0.540 OA
ATOM     17  H   LIG    1        3.083  -5.529   1.430  0.00  0.00    +0.370 HD
ENDBRANCH  15  16
BRANCH  15  18
ATOM     18  C   LIG    1        1.023  -6.519   2.773  0.00  0.00    +0.170 C 
BRANCH  18  19
ATOM     19  O   LIG    1        1.339  -7.912   2.745  0.00  0.00    -0.570 OA
ATOM     20  H   LIG    1        1.308  -8.341   3.611  0.00  0.00    +0.380 HD
ENDBRANCH  18  19
ENDBRANCH  15  18
ENDBRANCH  12  15
ENDBRANCH   1  12
TORSDOF 9
ENDMDL
MODEL     1043
REMARK  Name = ZINC000000161548
REMARK                            x       y       z     vdW  Elec       q    Type
REMARK                         _______ _______ _______ _____ _____    ______ ____
ROOT
ATOM      1  C   LIG    1       -0.086   1.234  -0.145  0.00  0.00    +0.350 C 
ATOM      2  N   LIG    1       -0.076  -0.228  -0.084  0.00  0.00    -0.560 N 
ATOM      3  C   LIG    1       -1.238  -0.914  -0.163  0.00  0.00    +0.580 A 
ATOM      4  C   LIG    1       -1.208  -2.351   0.122  0.00  0.00    -0.330 A 
ATOM      5  C   LIG    1        0.028  -2.976   0.368  0.00  0.00    +0.520 A 
ATOM      6  N   LIG    1        1.144  -2.243   0.080  0.00  0.00    -0.540 N 
ATOM      7  C   LIG    1        2.451  -2.825  -0.228  0.00  0.00    +0.350 C 
ATOM      8  N   LIG    1        0.015  -4.250   0.821  0.00  0.00    -0.520 N 
ATOM      9  C   LIG    1       -1.083  -5.028   0.668  0.00  0.00    +0.550 A 
ATOM     10  C   LIG    1       -2.319  -4.473   0.337  0.00  0.00    -0.230 A 
ATOM     11  O   LIG    1       -0.987  -6.229   0.854  0.00  0.00    -0.520 OA
ATOM     12  C   LIG    1        1.130  -4.870   1.541  0.00  0.00    +0.340 C 
ATOM     13  C   LIG    1       -2.399  -3.114   0.099  0.00  0.00    +0.310 A 
ATOM     14  O   LIG    1       -2.275  -0.344  -0.443  0.00  0.00    -0.470 OA
ATOM     15  C   LIG    1        1.080  -0.891   0.031  0.00  0.00    +0.710 A 
ATOM     16  O   LIG    1        2.120  -0.266   0.094  0.00  0.00    -0.520 OA
ENDROOT
BRANCH  13  17
ATOM     17  O   LIG    1       -3.597  -2.534  -0.150  0.00  0.00    -0.430 OA
ATOM     18  H   LIG    1       -4.342  -3.151  -0.141  0.00  0.00    +0.410 HD
ENDBRANCH  13  17
TORSDOF 1
ENDMDL
MODEL     1044
REMARK  Name = ZINC000000299248
REMARK                            x       y       z     vdW  Elec       q    Type
REMARK                         _______ _______ _______ _____ _____    ______ ____
ROOT
ATOM      1  C   LIG    1       -0.018   1.461   0.010  0.00  0.00    +0.340 C 
ATOM      2  N   LIG    1        0.002  -0.004   0.002  0.00  0.00    -0.520 N 
ATOM      3  C   LIG    1       -1.185  -0.700   0.004  0.00  0.00    +0.280 A 
ATOM      4  C   LIG    1       -1.156  -2.089  -0.004  0.00  0.00    -0.090 A 
ATOM      5  C   LIG    1        0.147  -2.756  -0.014  0.00  0.00    +0.600 A 
ATOM      6  N   LIG    1        1.262  -1.993  -0.015  0.00  0.00    -0.550 N 
ATOM      7  C   LIG    1        2.578  -2.637  -0.025  0.00  0.00    +0.350 C 
ATOM      8  O   LIG    1        0.225  -3.971  -0.021  0.00  0.00    -0.480 OA
ATOM      9  N   LIG    1       -2.440  -2.521   0.001  0.00  0.00    -0.400 NA
ATOM     10  C   LIG    1       -3.235  -1.491   0.010  0.00  0.00    +0.450 A 
ATOM     11  N   LIG    1       -2.497  -0.344   0.013  0.00  0.00    -0.440 N 
ATOM     12  C   LIG    1        1.180  -0.652  -0.013  0.00  0.00    +0.720 A 
ATOM     13  O   LIG    1        2.208  -0.002  -0.014  0.00  0.00    -0.530 OA
ENDROOT
BRANCH  11  14
ATOM     14  C   LIG    1       -3.022   1.024   0.023  0.00  0.00    +0.340 C 
BRANCH  14  15
ATOM     15  C   LIG    1       -3.094   1.545  -1.389  0.00  0.00    +0.490 C 
ATOM     16  O   LIG    1       -2.741   0.844  -2.313  0.00  0.00    -0.520 OA
ATOM     17  N   LIG    1       -3.550   2.791  -1.625  0.00  0.00    -0.850 N 
ATOM     18  H   LIG    1       -3.596   3.127  -2.534  0.00  0.00    +0.410 HD
ATOM     19  H   LIG    1       -3.832   3.352  -0.885  0.00  0.00    +0.410 HD
ENDBRANCH  14  15
ENDBRANCH  11  14
TORSDOF 2
ENDMDL
MODEL     1045
REMARK  Name = ZINC000253566174
REMARK                            x       y       z     vdW  Elec       q    Type
REMARK                         _______ _______ _______ _____ _____    ______ ____
ROOT
ATOM      1  C   LIG    1       -3.477  -0.967   0.030  0.00  0.00    +0.300 C 
ATOM      2  O   LIG    1       -3.856  -1.264  -1.315  0.00  0.00    -0.350 OA
ATOM      3  C   LIG    1       -4.935  -2.195  -1.425  0.00  0.00    +0.210 C 
ATOM      4  C   LIG    1       -6.179  -1.614  -0.748  0.00  0.00    +0.120 C 
ATOM      5  C   LIG    1       -5.854  -1.298   0.715  0.00  0.00    +0.210 C 
ATOM      6  C   LIG    1       -4.662  -0.337   0.766  0.00  0.00    +0.190 C 
ENDROOT
BRANCH   1   7
ATOM      7  N   LIG    1       -2.348  -0.027   0.024  0.00  0.00    -0.460 NA
ATOM      8  H   LIG    1       -2.399   0.605   0.810  0.00  0.00    +0.350 HD
BRANCH   7   9
ATOM      9  N   LIG    1       -1.156  -0.694   0.009  0.00  0.00    -0.520 N 
ATOM     10  H   LIG    1       -1.143  -1.664   0.004  0.00  0.00    +0.430 HD
BRANCH   9  11
ATOM     11  C   LIG    1        0.002  -0.004   0.002  0.00  0.00    +0.590 C 
ATOM     12  S   LIG    1        1.496  -0.840  -0.017  0.00  0.00    -0.620 S 
BRANCH  11  13
ATOM     13  N   LIG    1       -0.016   1.344   0.009  0.00  0.00    -0.790 N 
ATOM     14  H   LIG    1       -0.863   1.817   0.016  0.00  0.00    +0.400 HD
ATOM     15  H   LIG    1        0.817   1.840   0.004  0.00  0.00    +0.430 HD
ENDBRANCH  11  13
ENDBRANCH   9  11
ENDBRANCH   7   9
ENDBRANCH   1   7
BRANCH   5  16
ATOM     16  O   LIG    1       -5.525  -2.506   1.404  0.00  0.00    -0.550 OA
ATOM     17  H   LIG    1       -6.235  -3.163   1.405  0.00  0.00    +0.390 HD
ENDBRANCH   5  16
BRANCH   4  18
ATOM     18  O   LIG    1       -6.574  -0.416  -1.420  0.00  0.00    -0.550 OA
ATOM     19  H   LIG    1       -6.790  -0.542  -2.354  0.00  0.00    +0.390 HD
ENDBRANCH   4  18
BRANCH   6  20
ATOM     20  O   LIG    1       -4.305  -0.090   2.127  0.00  0.00    -0.540 OA
ATOM     21  H   LIG    1       -3.555   0.511   2.235  0.00  0.00    +0.370 HD
ENDBRANCH   6  20
TORSDOF 7
ENDMDL
MODEL     1046
REMARK  Name = ZINC000217173358
REMARK                            x       y       z     vdW  Elec       q    Type
REMARK                         _______ _______ _______ _____ _____    ______ ____
ROOT
ATOM      1  N   LIG    1       -2.433   0.981   0.019  0.00  0.00    -0.370 N 
ATOM      2  C   LIG    1       -3.711   1.696  -0.096  0.00  0.00    +0.260 C 
ATOM      3  C   LIG    1       -4.838   0.701  -0.400  0.00  0.00    +0.350 C 
ATOM      4  N   LIG    1       -4.755  -0.391   0.576  0.00  0.00    -0.380 N 
ATOM      5  N   LIG    1       -5.716  -1.347   0.896  0.00  0.00    -0.250 NA
ATOM      6  C   LIG    1       -5.220  -2.127   1.827  0.00  0.00    +0.040 A 
ATOM      7  C   LIG    1       -3.923  -1.687   2.123  0.00  0.00    -0.030 A 
ATOM      8  C   LIG    1       -3.661  -0.624   1.342  0.00  0.00    +0.040 A 
ATOM      9  C   LIG    1       -2.405   0.207   1.272  0.00  0.00    +0.390 C 
ATOM     10  H   LIG    1       -2.328   0.354  -0.765  0.00  0.00    +0.430 HD
ENDROOT
BRANCH   1  11
ATOM     11  C   LIG    1       -1.330   1.951   0.019  0.00  0.00    +0.180 C 
BRANCH  11  13
ATOM     12  O   LIG    1        0.002  -0.004   0.002  0.00  0.00    -0.670 OA
ATOM     13  C   LIG    1       -0.015   1.215   0.009  0.00  0.00    +0.490 C 
ATOM     14  O   LIG    1        1.033   1.839   0.002  0.00  0.00    -0.630 OA
ENDBRANCH  11  13
ENDBRANCH   1  11
BRANCH   6  15
ATOM     15  C   LIG    1       -5.924  -3.295   2.467  0.00  0.00    +0.320 C 
BRANCH  15  16
ATOM     16  O   LIG    1       -5.110  -3.826   3.515  0.00  0.00    -0.530 OA
ATOM     17  H   LIG    1       -4.911  -3.192   4.218  0.00  0.00    +0.380 HD
ENDBRANCH  15  16
BRANCH  15  18
ATOM     18  C   LIG    1       -7.261  -2.830   3.047  0.00  0.00    +0.160 C 
BRANCH  18  19
ATOM     19  O   LIG    1       -7.980  -3.957   3.550  0.00  0.00    -0.560 OA
ATOM     20  H   LIG    1       -8.840  -3.736   3.934  0.00  0.00    +0.380 HD
ENDBRANCH  18  19
ENDBRANCH  15  18
ENDBRANCH   6  15
TORSDOF 6
ENDMDL
MODEL     1047
REMARK  Name = ZINC000217173362
REMARK                            x       y       z     vdW  Elec       q    Type
REMARK                         _______ _______ _______ _____ _____    ______ ____
ROOT
ATOM      1  N   LIG    1       -2.433   0.981   0.019  0.00  0.00    -0.370 N 
ATOM      2  C   LIG    1       -3.711   1.696  -0.096  0.00  0.00    +0.270 C 
ATOM      3  C   LIG    1       -4.838   0.701  -0.400  0.00  0.00    +0.350 C 
ATOM      4  N   LIG    1       -4.755  -0.391   0.576  0.00  0.00    -0.380 N 
ATOM      5  N   LIG    1       -5.716  -1.347   0.896  0.00  0.00    -0.250 NA
ATOM      6  C   LIG    1       -5.220  -2.127   1.827  0.00  0.00    +0.050 A 
ATOM      7  C   LIG    1       -3.923  -1.687   2.123  0.00  0.00    -0.030 A 
ATOM      8  C   LIG    1       -3.661  -0.624   1.342  0.00  0.00    +0.040 A 
ATOM      9  C   LIG    1       -2.405   0.207   1.272  0.00  0.00    +0.390 C 
ATOM     10  H   LIG    1       -2.328   0.354  -0.765  0.00  0.00    +0.430 HD
ENDROOT
BRANCH   1  11
ATOM     11  C   LIG    1       -1.330   1.951   0.019  0.00  0.00    +0.180 C 
BRANCH  11  13
ATOM     12  O   LIG    1        0.002  -0.004   0.002  0.00  0.00    -0.670 OA
ATOM     13  C   LIG    1       -0.015   1.215   0.009  0.00  0.00    +0.490 C 
ATOM     14  O   LIG    1        1.033   1.839   0.002  0.00  0.00    -0.630 OA
ENDBRANCH  11  13
ENDBRANCH   1  11
BRANCH   6  15
ATOM     15  C   LIG    1       -5.924  -3.295   2.467  0.00  0.00    +0.320 C 
BRANCH  15  16
ATOM     16  O   LIG    1       -6.157  -4.307   1.486  0.00  0.00    -0.540 OA
ATOM     17  H   LIG    1       -6.704  -4.017   0.743  0.00  0.00    +0.380 HD
ENDBRANCH  15  16
BRANCH  15  18
ATOM     18  C   LIG    1       -7.261  -2.830   3.047  0.00  0.00    +0.170 C 
BRANCH  18  19
ATOM     19  O   LIG    1       -7.875  -3.909   3.755  0.00  0.00    -0.560 OA
ATOM     20  H   LIG    1       -8.729  -3.685   4.150  0.00  0.00    +0.380 HD
ENDBRANCH  18  19
ENDBRANCH  15  18
ENDBRANCH   6  15
TORSDOF 6
ENDMDL
MODEL     1048
REMARK  Name = ZINC000048546543
REMARK                            x       y       z     vdW  Elec       q    Type
REMARK                         _______ _______ _______ _____ _____    ______ ____
ROOT
ATOM      1  C   LIG    1       -0.018   1.461   0.010  0.00  0.00    +0.330 C 
ATOM      2  N   LIG    1        0.002  -0.004   0.002  0.00  0.00    -0.520 N 
ATOM      3  C   LIG    1       -1.185  -0.700   0.004  0.00  0.00    +0.270 A 
ATOM      4  C   LIG    1       -1.156  -2.089  -0.004  0.00  0.00    -0.100 A 
ATOM      5  C   LIG    1        0.147  -2.756  -0.014  0.00  0.00    +0.600 A 
ATOM      6  N   LIG    1        1.262  -1.993  -0.015  0.00  0.00    -0.550 N 
ATOM      7  C   LIG    1        2.578  -2.637  -0.025  0.00  0.00    +0.350 C 
ATOM      8  O   LIG    1        0.225  -3.971  -0.021  0.00  0.00    -0.480 OA
ATOM      9  N   LIG    1       -2.440  -2.521   0.001  0.00  0.00    -0.410 NA
ATOM     10  C   LIG    1       -3.235  -1.491   0.010  0.00  0.00    +0.440 A 
ATOM     11  N   LIG    1       -2.497  -0.344   0.013  0.00  0.00    -0.450 N 
ATOM     12  C   LIG    1        1.180  -0.652  -0.013  0.00  0.00    +0.720 A 
ATOM     13  O   LIG    1        2.208  -0.002  -0.014  0.00  0.00    -0.530 OA
ENDROOT
BRANCH  11  14
ATOM     14  C   LIG    1       -3.022   1.024   0.023  0.00  0.00    +0.310 C 
BRANCH  14  15
ATOM     15  C   LIG    1       -3.095   1.553  -1.410  0.00  0.00    +0.030 C 
BRANCH  15  16
ATOM     16  C   LIG    1       -3.643   2.981  -1.399  0.00  0.00    +0.180 C 
BRANCH  16  17
ATOM     17  O   LIG    1       -3.711   3.476  -2.738  0.00  0.00    -0.570 OA
ATOM     18  H   LIG    1       -4.051   4.379  -2.808  0.00  0.00    +0.390 HD
ENDBRANCH  16  17
ENDBRANCH  15  16
ENDBRANCH  14  15
ENDBRANCH  11  14
TORSDOF 4
ENDMDL
MODEL     1049
REMARK  Name = ZINC000000392595
REMARK                            x       y       z     vdW  Elec       q    Type
REMARK                         _______ _______ _______ _____ _____    ______ ____
ROOT
ATOM      1  C   LIG    1       -0.018   1.461   0.010  0.00  0.00    +0.360 C 
ATOM      2  N   LIG    1        0.002  -0.004   0.002  0.00  0.00    -0.490 N 
ATOM      3  C   LIG    1        0.008  -0.794  -1.091  0.00  0.00    +0.670 A 
ATOM      4  N   LIG    1        0.028  -2.082  -0.698  0.00  0.00    -0.510 N 
ATOM      5  C   LIG    1        0.034  -2.127   0.673  0.00  0.00    +0.350 A 
ATOM      6  N   LIG    1        0.053  -3.160   1.582  0.00  0.00    -0.520 N 
ATOM      7  C   LIG    1        0.063  -4.546   1.110  0.00  0.00    +0.340 C 
ATOM      8  C   LIG    1        0.051  -2.901   2.903  0.00  0.00    +0.710 A 
ATOM      9  O   LIG    1        0.063  -3.827   3.692  0.00  0.00    -0.520 OA
ATOM     10  N   LIG    1        0.042  -1.639   3.367  0.00  0.00    -0.550 N 
ATOM     11  C   LIG    1        0.046  -1.397   4.812  0.00  0.00    +0.360 C 
ATOM     12  C   LIG    1        0.028  -0.593   2.515  0.00  0.00    +0.590 A 
ATOM     13  O   LIG    1        0.018   0.549   2.940  0.00  0.00    -0.500 OA
ATOM     14  C   LIG    1        0.040  -3.245  -1.589  0.00  0.00    +0.350 C 
ATOM     15  O   LIG    1       -0.001  -0.406  -2.244  0.00  0.00    -0.540 OA
ATOM     16  C   LIG    1        0.024  -0.836   1.126  0.00  0.00    -0.100 A 
ENDROOT
TORSDOF 0
ENDMDL
MODEL     1050
REMARK  Name = ZINC000000392530
REMARK                            x       y       z     vdW  Elec       q    Type
REMARK                         _______ _______ _______ _____ _____    ______ ____
ROOT
ATOM      1  O   LIG    1        0.002  -0.004   0.002  0.00  0.00    -0.370 OA
ATOM      2  C   LIG    1       -0.014   1.203   0.009  0.00  0.00    +0.390 C 
ATOM      3  C   LIG    1       -1.246   2.084   0.032  0.00  0.00    -0.130 C 
ATOM      4  C   LIG    1       -0.751   3.545   0.024  0.00  0.00    +0.060 C 
ATOM      5  C   LIG    1        0.667   3.451  -0.594  0.00  0.00    +0.060 C 
ATOM      6  C   LIG    1        1.196   2.120   0.002  0.00  0.00    -0.130 C 
ENDROOT
BRANCH   3   7
ATOM      7  C   LIG    1       -2.059   1.813   1.300  0.00  0.00    +0.190 C 
BRANCH   7   8
ATOM      8  O   LIG    1       -2.489   0.451   1.308  0.00  0.00    -0.540 OA
ATOM      9  H   LIG    1       -3.011   0.208   2.085  0.00  0.00    +0.370 HD
ENDBRANCH   7   8
ENDBRANCH   3   7
BRANCH   3  10
ATOM     10  C   LIG    1       -2.104   1.816  -1.206  0.00  0.00    +0.190 C 
BRANCH  10  11
ATOM     11  O   LIG    1       -2.535   0.453  -1.201  0.00  0.00    -0.540 OA
ATOM     12  H   LIG    1       -3.085   0.211  -1.959  0.00  0.00    +0.370 HD
ENDBRANCH  10  11
ENDBRANCH   3  10
BRANCH   6  13
ATOM     13  C   LIG    1        2.297   1.536  -0.887  0.00  0.00    +0.190 C 
BRANCH  13  14
ATOM     14  O   LIG    1        2.769   0.313  -0.320  0.00  0.00    -0.540 OA
ATOM     15  H   LIG    1        3.469  -0.114  -0.832  0.00  0.00    +0.370 HD
ENDBRANCH  13  14
ENDBRANCH   6  13
BRANCH   6  16
ATOM     16  C   LIG    1        1.717   2.341   1.424  0.00  0.00    +0.190 C 
BRANCH  16  17
ATOM     17  O   LIG    1        2.199   1.103   1.952  0.00  0.00    -0.540 OA
ATOM     18  H   LIG    1        2.545   1.169   2.853  0.00  0.00    +0.370 HD
ENDBRANCH  16  17
ENDBRANCH   6  16
TORSDOF 8
ENDMDL
MODEL     1051
REMARK  Name = ZINC000000480582
REMARK                            x       y       z     vdW  Elec       q    Type
REMARK                         _______ _______ _______ _____ _____    ______ ____
ROOT
ATOM      1  C   LIG    1       -0.018   1.503   0.010  0.00  0.00    +0.160 C 
ATOM      2  C   LIG    1        0.002  -0.004   0.002  0.00  0.00    +0.210 A 
ATOM      3  C   LIG    1       -1.172  -0.701   0.004  0.00  0.00    -0.140 A 
ATOM      4  C   LIG    1       -1.127  -2.104  -0.005  0.00  0.00    +0.550 A 
ATOM      5  N   LIG    1        0.077  -2.718  -0.014  0.00  0.00    -0.380 N 
ATOM      6  N   LIG    1        0.136  -4.117  -0.023  0.00  0.00    -0.180 NA
ATOM      7  C   LIG    1        1.285  -4.726  -0.032  0.00  0.00    +0.110 A 
ATOM      8  C   LIG    1        2.522  -3.933  -0.033  0.00  0.00    +0.500 A 
ATOM      9  N   LIG    1        2.444  -2.587  -0.025  0.00  0.00    -0.360 N 
ATOM     10  O   LIG    1        3.606  -4.486  -0.042  0.00  0.00    -0.470 OA
ATOM     11  C   LIG    1        1.348  -6.231  -0.042  0.00  0.00    +0.220 C 
ATOM     12  C   LIG    1        1.219  -1.971  -0.016  0.00  0.00    +0.580 A 
ATOM     13  O   LIG    1       -2.156  -2.759  -0.004  0.00  0.00    -0.490 OA
ATOM     14  N   LIG    1        1.163  -0.651  -0.013  0.00  0.00    -0.530 NA
ENDROOT
BRANCH   9  15
ATOM     15  N   LIG    1        3.586  -1.837  -0.026  0.00  0.00    -0.570 N 
ATOM     16  H   LIG    1        3.595  -1.194  -0.804  0.00  0.00    +0.370 HD
ATOM     17  H   LIG    1        4.405  -2.426  -0.034  0.00  0.00    +0.390 HD
ENDBRANCH   9  15
TORSDOF 1
ENDMDL
MODEL     1052
REMARK  Name = ZINC000000895248
REMARK                            x       y       z     vdW  Elec       q    Type
REMARK                         _______ _______ _______ _____ _____    ______ ____
ROOT
ATOM      1  C1*   C A  1        0.001  -4.173  -0.023  0.00  0.00    +0.420 C 
ATOM      2  O4*   C A  1        1.345  -4.699   0.038  0.00  0.00    -0.350 OA
ATOM      3  C4*   C A  1        1.201  -6.054   0.516  0.00  0.00    +0.150 C 
ATOM      4  C3*   C A  1        0.118  -5.973   1.615  0.00  0.00    +0.120 C 
ATOM      5  C2*   C A  1       -0.692  -4.706   1.251  0.00  0.00    +0.170 C 
ENDROOT
BRANCH   1   9
ATOM      6  C4    C A  1        0.002  -0.004   0.002  0.00  0.00    +0.500 A 
ATOM      7  N3    C A  1       -1.135  -0.687   0.004  0.00  0.00    -0.610 NA
ATOM      8  C2    C A  1       -1.129  -2.018  -0.004  0.00  0.00    +0.650 A 
ATOM      9  N1    C A  1        0.026  -2.708  -0.014  0.00  0.00    -0.540 N 
ATOM     10  C6    C A  1        1.220  -2.050  -0.016  0.00  0.00    +0.390 A 
ATOM     11  O2    C A  1       -2.189  -2.623  -0.003  0.00  0.00    -0.510 OA
ATOM     12  C5    C A  1        1.230  -0.697  -0.013  0.00  0.00    -0.150 A 
BRANCH   6  13
ATOM     13  N4    C A  1       -0.017   1.371   0.010  0.00  0.00    -0.820 N 
ATOM     14  H41   C A  1       -0.863   1.845   0.016  0.00  0.00    +0.410 HD
ATOM     15  H42   C A  1        0.817   1.868   0.004  0.00  0.00    +0.420 HD
ENDBRANCH   6  13
ENDBRANCH   1   9
BRANCH   4  16
ATOM     16  O3*   C A  1       -0.718  -7.130   1.580  0.00  0.00    -0.540 OA
ATOM     17  H3*   C A  1       -0.249  -7.960   1.742  0.00  0.00    +0.390 HD
ENDBRANCH   4  16
BRANCH   5  18
ATOM     18  O2*   C A  1       -2.055  -5.043   0.983  0.00  0.00    -0.510 OA
ATOM     19  H2*   C A  1       -2.517  -5.438   1.735  0.00  0.00    +0.390 HD
ENDBRANCH   5  18
BRANCH   3  20
ATOM     20  C5*   C A  1        2.523  -6.554   1.103  0.00  0.00    +0.210 C 
BRANCH  20  21
ATOM     21  O5*   C A  1        3.495  -6.664   0.062  0.00  0.00    -0.560 OA
ATOM     22  H5*   C A  1        4.360  -6.976   0.363  0.00  0.00    +0.390 HD
ENDBRANCH  20  21
ENDBRANCH   3  20
TORSDOF 6
ENDMDL
MODEL     1053
REMARK  Name = ZINC000000901459
REMARK                            x       y       z     vdW  Elec       q    Type
REMARK                         _______ _______ _______ _____ _____    ______ ____
ROOT
ATOM      1  C   LIG    1       -1.136  -2.159   0.001  0.00  0.00    +0.260 C 
ATOM      2  C   LIG    1       -0.993  -2.676   1.435  0.00  0.00    +0.320 C 
ATOM      3  O   LIG    1       -1.032  -4.105   1.430  0.00  0.00    -0.390 OA
ATOM      4  C   LIG    1       -2.252  -4.653   0.927  0.00  0.00    +0.150 C 
ATOM      5  C   LIG    1       -2.446  -4.215  -0.526  0.00  0.00    +0.130 C 
ATOM      6  C   LIG    1       -2.444  -2.685  -0.596  0.00  0.00    +0.200 C 
ENDROOT
BRANCH   1   9
ATOM      7  C   LIG    1       -0.018   1.503   0.010  0.00  0.00    +0.100 C 
ATOM      8  C   LIG    1        0.002  -0.004   0.002  0.00  0.00    +0.510 C 
ATOM      9  N   LIG    1       -1.156  -0.694   0.009  0.00  0.00    -0.720 N 
ATOM     10  H   LIG    1       -2.002  -0.220   0.020  0.00  0.00    +0.410 HD
ATOM     11  O   LIG    1        1.060  -0.596  -0.011  0.00  0.00    -0.520 OA
ENDBRANCH   1   9
BRANCH   5  12
ATOM     12  O   LIG    1       -1.379  -4.731  -1.327  0.00  0.00    -0.550 OA
ATOM     13  H   LIG    1       -1.318  -5.696  -1.326  0.00  0.00    +0.380 HD
ENDBRANCH   5  12
BRANCH   2  14
ATOM     14  O   LIG    1        0.253  -2.235   1.979  0.00  0.00    -0.520 OA
ATOM     15  H   LIG    1        0.411  -2.527   2.887  0.00  0.00    +0.380 HD
ENDBRANCH   2  14
BRANCH   6  16
ATOM     16  O   LIG    1       -3.551  -2.172   0.148  0.00  0.00    -0.550 OA
ATOM     17  H   LIG    1       -4.413  -2.471  -0.171  0.00  0.00    +0.390 HD
ENDBRANCH   6  16
BRANCH   4  18
ATOM     18  C   LIG    1       -2.191  -6.181   0.997  0.00  0.00    +0.200 C 
BRANCH  18  19
ATOM     19  O   LIG    1       -2.126  -6.593   2.363  0.00  0.00    -0.560 OA
ATOM     20  H   LIG    1       -2.085  -7.552   2.483  0.00  0.00    +0.380 HD
ENDBRANCH  18  19
ENDBRANCH   4  18
TORSDOF 6
ENDMDL
MODEL     1054
REMARK  Name = ZINC000000967238
REMARK                            x       y       z     vdW  Elec       q    Type
REMARK                         _______ _______ _______ _____ _____    ______ ____
ROOT
ATOM      1  C   LIG    1       -0.022   1.470  -0.007  0.00  0.00    +0.330 C 
ATOM      2  N   LIG    1        0.003   0.005  -0.009  0.00  0.00    -0.560 N 
ATOM      3  C   LIG    1        0.003  -0.659  -1.181  0.00  0.00    +0.560 A 
ATOM      4  C   LIG    1        0.028  -2.066  -1.182  0.00  0.00    -0.140 A 
ATOM      5  C   LIG    1        0.051  -2.732   0.026  0.00  0.00    +0.470 A 
ATOM      6  N   LIG    1        0.049  -2.006   1.194  0.00  0.00    -0.540 N 
ATOM      7  C   LIG    1        0.074  -2.700   2.484  0.00  0.00    +0.350 C 
ATOM      8  O   LIG    1       -0.017  -0.045  -2.235  0.00  0.00    -0.500 OA
ATOM      9  C   LIG    1        0.031  -0.661   1.159  0.00  0.00    +0.710 A 
ATOM     10  O   LIG    1        0.031  -0.036   2.202  0.00  0.00    -0.530 OA
ENDROOT
BRANCH   4  11
ATOM     11  N   LIG    1        0.029  -2.783  -2.397  0.00  0.00    -0.640 N 
ATOM     12  H   LIG    1        0.762  -3.384  -2.605  0.00  0.00    +0.400 HD
ATOM     13  C   LIG    1       -0.989  -2.634  -3.270  0.00  0.00    +0.510 C 
ATOM     14  O   LIG    1       -1.862  -1.820  -3.050  0.00  0.00    -0.490 OA
BRANCH  13  15
ATOM     15  C   LIG    1       -1.042  -3.477  -4.518  0.00  0.00    +0.230 C 
BRANCH  15  16
ATOM     16  O   LIG    1       -2.205  -3.136  -5.274  0.00  0.00    -0.550 OA
ATOM     17  H   LIG    1       -2.304  -3.641  -6.093  0.00  0.00    +0.390 HD
ENDBRANCH  15  16
ENDBRANCH  13  15
ENDBRANCH   4  11
BRANCH   5  18
ATOM     18  N   LIG    1        0.075  -4.106   0.062  0.00  0.00    -0.830 N 
ATOM     19  H   LIG    1        0.091  -4.569   0.915  0.00  0.00    +0.410 HD
ATOM     20  H   LIG    1        0.076  -4.613  -0.765  0.00  0.00    +0.420 HD
ENDBRANCH   5  18
TORSDOF 4
ENDMDL
MODEL     1055
REMARK  Name = ZINC000000967434
REMARK                            x       y       z     vdW  Elec       q    Type
REMARK                         _______ _______ _______ _____ _____    ______ ____
ROOT
ATOM      1  C   LIG    1       -0.018   1.503   0.010  0.00  0.00    +0.210 C 
ATOM      2  C   LIG    1        0.002  -0.004   0.002  0.00  0.00    +0.170 A 
ATOM      3  C   LIG    1        0.009  -0.812  -1.099  0.00  0.00    -0.100 A 
ATOM      4  N   LIG    1        0.028  -2.092  -0.688  0.00  0.00    -0.160 NA
ATOM      5  N   LIG    1        0.034  -2.132   0.599  0.00  0.00    -0.050 NA
ATOM      6  N   LIG    1        0.023  -0.816   1.082  0.00  0.00    -0.310 N 
ENDROOT
BRANCH   3   7
ATOM      7  C   LIG    1       -0.003  -0.358  -2.502  0.00  0.00    +0.610 C 
ATOM      8  O   LIG    1       -0.020   0.831  -2.756  0.00  0.00    -0.530 OA
ATOM      9  N   LIG    1        0.005  -1.261  -3.503  0.00  0.00    -0.830 N 
ATOM     10  H   LIG    1       -0.003  -0.962  -4.426  0.00  0.00    +0.410 HD
ATOM     11  H   LIG    1        0.019  -2.209  -3.300  0.00  0.00    +0.410 HD
ENDBRANCH   3   7
BRANCH   6  12
ATOM     12  C   LIG    1        0.025  -0.419   2.425  0.00  0.00    +0.300 A 
ATOM     13  N   LIG    1        0.010   0.810   2.856  0.00  0.00    -0.260 NA
ATOM     14  O   LIG    1        0.018   0.774   4.272  0.00  0.00    +0.060 OA
ATOM     15  N   LIG    1        0.039  -0.587   4.666  0.00  0.00    -0.330 NA
ATOM     16  C   LIG    1        0.039  -1.315   3.584  0.00  0.00    +0.360 A 
BRANCH  16  17
ATOM     17  N   LIG    1        0.056  -2.705   3.538  0.00  0.00    -0.800 N 
ATOM     18  H   LIG    1        0.053  -3.162   2.683  0.00  0.00    +0.430 HD
ATOM     19  H   LIG    1        0.070  -3.217   4.362  0.00  0.00    +0.420 HD
ENDBRANCH  16  17
ENDBRANCH   6  12
TORSDOF 3
ENDMDL
MODEL     1056
REMARK  Name = ZINC000126359020
REMARK                            x       y       z     vdW  Elec       q    Type
REMARK                         _______ _______ _______ _____ _____    ______ ____
ROOT
ATOM      1  N   LIG    1        1.590  -0.473  -0.016  0.00  0.00    -1.000 NA
ATOM      2  C   LIG    1        2.304  -0.674  -1.286  0.00  0.00    +0.310 C 
ATOM      3  C   LIG    1        3.614   0.120  -1.239  0.00  0.00    +0.170 C 
ATOM      4  N   LIG    1        4.369  -0.258  -0.036  0.00  0.00    -0.500 NA
ATOM      5  C   LIG    1        3.634   0.095   1.186  0.00  0.00    +0.170 C 
ATOM      6  C   LIG    1        2.326  -0.693   1.238  0.00  0.00    +0.300 C 
ENDROOT
BRANCH   1   7
ATOM      7  S   LIG    1        0.002  -0.004   0.002  0.00  0.00    +2.800 S 
ATOM      8  O   LIG    1       -0.549  -0.406  -1.245  0.00  0.00    -0.980 OA
ATOM      9  O   LIG    1       -0.525  -0.419   1.255  0.00  0.00    -0.980 OA
BRANCH   7  10
ATOM     10  N   LIG    1       -0.020   1.652   0.011  0.00  0.00    -1.260 NA
ATOM     11  H   LIG    1       -0.867   2.125   0.018  0.00  0.00    +0.420 HD
ATOM     12  H   LIG    1        0.813   2.148   0.006  0.00  0.00    +0.410 HD
ENDBRANCH   7  10
ENDBRANCH   1   7
BRANCH   4  13
ATOM     13  C   LIG    1        5.706   0.351  -0.041  0.00  0.00    +0.140 C 
ATOM     14  C   LIG    1        6.071   1.264   1.131  0.00  0.00    -0.020 C 
ATOM     15  C   LIG    1        6.702  -0.125   1.018  0.00  0.00    +0.030 C 
ENDBRANCH   4  13
TORSDOF 3
ENDMDL
MODEL     1057
REMARK  Name = ZINC000001042045
REMARK                            x       y       z     vdW  Elec       q    Type
REMARK                         _______ _______ _______ _____ _____    ______ ____
ROOT
ATOM      1  C   LIG    1       -1.136  -2.159   0.001  0.00  0.00    +0.250 C 
ATOM      2  C   LIG    1       -0.868  -2.674   1.418  0.00  0.00    +0.370 C 
ATOM      3  O   LIG    1       -1.929  -2.262   2.282  0.00  0.00    -0.370 OA
ATOM      4  C   LIG    1       -3.213  -2.764   1.910  0.00  0.00    +0.140 C 
ATOM      5  C   LIG    1       -3.576  -2.252   0.514  0.00  0.00    +0.120 C 
ATOM      6  C   LIG    1       -2.491  -2.686  -0.479  0.00  0.00    +0.180 C 
ENDROOT
BRANCH   1   9
ATOM      7  C   LIG    1       -0.825   1.498  -1.089  0.00  0.00    +0.090 C 
ATOM      8  C   LIG    1       -0.804  -0.009  -1.097  0.00  0.00    +0.520 C 
ATOM      9  N   LIG    1       -1.156  -0.694   0.009  0.00  0.00    -0.700 N 
ATOM     10  H   LIG    1       -1.422  -0.217   0.811  0.00  0.00    +0.410 HD
ATOM     11  O   LIG    1       -0.472  -0.605  -2.099  0.00  0.00    -0.540 OA
ENDBRANCH   1   9
BRANCH   5  12
ATOM     12  O   LIG    1       -3.661  -0.826   0.535  0.00  0.00    -0.540 OA
ATOM     13  H   LIG    1       -4.326  -0.481   1.147  0.00  0.00    +0.370 HD
ENDBRANCH   5  12
BRANCH   2  14
ATOM     14  O   LIG    1       -0.796  -4.101   1.399  0.00  0.00    -0.570 OA
ATOM     15  H   LIG    1       -0.628  -4.498   2.265  0.00  0.00    +0.390 HD
ENDBRANCH   2  14
BRANCH   6  16
ATOM     16  O   LIG    1       -2.785  -2.152  -1.772  0.00  0.00    -0.530 OA
ATOM     17  H   LIG    1       -3.634  -2.441  -2.133  0.00  0.00    +0.370 HD
ENDBRANCH   6  16
BRANCH   4  18
ATOM     18  C   LIG    1       -4.260  -2.284   2.917  0.00  0.00    +0.200 C 
BRANCH  18  19
ATOM     19  O   LIG    1       -3.987  -2.856   4.198  0.00  0.00    -0.560 OA
ATOM     20  H   LIG    1       -4.612  -2.595   4.887  0.00  0.00    +0.380 HD
ENDBRANCH  18  19
ENDBRANCH   4  18
TORSDOF 6
ENDMDL
MODEL     1058
REMARK  Name = ZINC000052114786
REMARK                            x       y       z     vdW  Elec       q    Type
REMARK                         _______ _______ _______ _____ _____    ______ ____
ROOT
ATOM      1  N   LIG    1        0.828  -2.255   1.338  0.00  0.00    -1.000 NA
ATOM      2  C   LIG    1       -0.285  -3.025   1.913  0.00  0.00    +0.310 C 
ATOM      3  C   LIG    1       -0.844  -3.955   0.831  0.00  0.00    +0.180 C 
ATOM      4  N   LIG    1        0.248  -4.764   0.274  0.00  0.00    -0.510 NA
ATOM      5  C   LIG    1        1.250  -3.921  -0.391  0.00  0.00    +0.170 C 
ATOM      6  C   LIG    1        1.892  -2.989   0.635  0.00  0.00    +0.310 C 
ENDROOT
BRANCH   1   7
ATOM      7  S   LIG    1        0.879  -0.605   1.472  0.00  0.00    +2.610 S 
ATOM      8  O   LIG    1        0.132  -0.325   2.647  0.00  0.00    -0.950 OA
ATOM      9  O   LIG    1        2.263  -0.290   1.390  0.00  0.00    -0.950 OA
BRANCH   7  11
ATOM     10  C   LIG    1       -0.019   1.526   0.010  0.00  0.00    +0.070 C 
ATOM     11  C   LIG    1        0.002  -0.004   0.002  0.00  0.00    -0.370 C 
ENDBRANCH   7  11
ENDBRANCH   1   7
BRANCH   4  12
ATOM     12  C   LIG    1       -0.271  -5.788  -0.643  0.00  0.00    +0.130 C 
ATOM     13  C   LIG    1        0.894  -6.609  -1.202  0.00  0.00    +0.060 C 
BRANCH  12  14
ATOM     14  C   LIG    1       -1.214  -6.697   0.101  0.00  0.00    +0.520 C 
ATOM     15  O   LIG    1       -1.434  -6.510   1.279  0.00  0.00    -0.520 OA
ATOM     16  N   LIG    1       -1.815  -7.718  -0.543  0.00  0.00    -0.850 N 
ATOM     17  H   LIG    1       -2.422  -8.303  -0.064  0.00  0.00    +0.400 HD
ATOM     18  H   LIG    1       -1.640  -7.867  -1.485  0.00  0.00    +0.400 HD
ENDBRANCH  12  14
ENDBRANCH   4  12
TORSDOF 4
ENDMDL
MODEL     1059
REMARK  Name = ZINC000001208869
REMARK                            x       y       z     vdW  Elec       q    Type
REMARK                         _______ _______ _______ _____ _____    ______ ____
ROOT
ATOM      1  C   LIG    1       -0.018   1.461   0.010  0.00  0.00    +0.340 C 
ATOM      2  N   LIG    1        0.002  -0.004   0.002  0.00  0.00    -0.620 N 
ATOM      3  C   LIG    1        0.009  -0.843  -1.088  0.00  0.00    +0.720 C 
ATOM      4  N   LIG    1        0.387  -2.113  -0.753  0.00  0.00    -0.630 N 
ATOM      5  C   LIG    1        0.969  -2.017   0.580  0.00  0.00    +0.430 C 
ATOM      6  N   LIG    1        0.672  -3.000   1.612  0.00  0.00    -0.630 N 
ATOM      7  C   LIG    1        0.459  -2.252   2.760  0.00  0.00    +0.730 C 
ATOM      8  O   LIG    1        0.459  -2.721   3.881  0.00  0.00    -0.510 OA
ATOM      9  N   LIG    1        0.248  -0.924   2.485  0.00  0.00    -0.600 N 
ATOM     10  C   LIG    1        0.238  -3.322  -1.567  0.00  0.00    +0.340 C 
ATOM     11  O   LIG    1       -0.285  -0.496  -2.216  0.00  0.00    -0.530 OA
ATOM     12  C   LIG    1        0.024  -0.872   1.104  0.00  0.00    +0.380 C 
ENDROOT
BRANCH   6  13
ATOM     13  C   LIG    1        0.608  -4.458   1.484  0.00  0.00    +0.500 C 
BRANCH  13  14
ATOM     14  O   LIG    1       -0.759  -4.876   1.493  0.00  0.00    -0.590 OA
ATOM     15  H   LIG    1       -0.878  -5.833   1.411  0.00  0.00    +0.400 HD
ENDBRANCH  13  14
ENDBRANCH   6  13
BRANCH   9  16
ATOM     16  C   LIG    1        0.254   0.195   3.430  0.00  0.00    +0.480 C 
BRANCH  16  17
ATOM     17  O   LIG    1       -0.951   0.175   4.199  0.00  0.00    -0.580 OA
ATOM     18  H   LIG    1       -1.016   0.890   4.847  0.00  0.00    +0.400 HD
ENDBRANCH  16  17
ENDBRANCH   9  16
TORSDOF 4
ENDMDL
MODEL     1060
REMARK  Name = ZINC000001230311
REMARK                            x       y       z     vdW  Elec       q    Type
REMARK                         _______ _______ _______ _____ _____    ______ ____
ROOT
ATOM      1  C   LIG    1        1.280   1.980   0.001  0.00  0.00    +0.330 C 
ENDROOT
BRANCH   1   3
ATOM      2  O   LIG    1        0.002  -0.004   0.002  0.00  0.00    -0.530 OA
ATOM      3  C   LIG    1       -0.014   1.209   0.009  0.00  0.00    +0.510 C 
ATOM      4  N   LIG    1       -1.191   1.867   0.018  0.00  0.00    -0.610 N 
ATOM      5  C   LIG    1       -1.236   3.337   0.020  0.00  0.00    +0.250 C 
ATOM      6  C   LIG    1       -2.182   3.793  -1.096  0.00  0.00    +0.220 C 
ATOM      7  O   LIG    1       -3.435   3.120  -0.956  0.00  0.00    -0.380 OA
ATOM      8  C   LIG    1       -3.354   1.699  -1.091  0.00  0.00    +0.220 C 
ATOM      9  C   LIG    1       -2.468   1.135   0.020  0.00  0.00    +0.260 C 
ENDBRANCH   1   3
BRANCH   1  10
ATOM     10  N   LIG    1        2.407   1.043  -0.015  0.00  0.00    -0.550 N 
ATOM     11  C   LIG    1        2.924   0.609   1.149  0.00  0.00    +0.500 C 
ATOM     12  C   LIG    1        4.071  -0.369   1.156  0.00  0.00    +0.300 C 
ATOM     13  O   LIG    1        4.836  -0.203  -0.042  0.00  0.00    -0.350 OA
ATOM     14  C   LIG    1        4.055  -0.347  -1.233  0.00  0.00    +0.300 C 
ATOM     15  O   LIG    1        2.464   1.006   2.198  0.00  0.00    -0.480 OA
ATOM     16  C   LIG    1        2.905   0.626  -1.194  0.00  0.00    +0.500 C 
ATOM     17  O   LIG    1        2.431   1.041  -2.229  0.00  0.00    -0.480 OA
ENDBRANCH   1  10
TORSDOF 2
ENDMDL
MODEL     1061
REMARK  Name = ZINC000052114788
REMARK                            x       y       z     vdW  Elec       q    Type
REMARK                         _______ _______ _______ _____ _____    ______ ____
ROOT
ATOM      1  N   LIG    1        1.397  -2.547   1.437  0.00  0.00    -1.000 NA
ATOM      2  C   LIG    1        0.257  -3.230   2.068  0.00  0.00    +0.310 C 
ATOM      3  C   LIG    1       -0.498  -4.014   0.989  0.00  0.00    +0.180 C 
ATOM      4  N   LIG    1        0.441  -4.895   0.281  0.00  0.00    -0.510 NA
ATOM      5  C   LIG    1        1.471  -4.120  -0.423  0.00  0.00    +0.170 C 
ATOM      6  C   LIG    1        2.303  -3.340   0.593  0.00  0.00    +0.310 C 
ENDROOT
BRANCH   1   7
ATOM      7  S   LIG    1        1.650  -0.926   1.667  0.00  0.00    +2.610 S 
ATOM      8  O   LIG    1        1.046  -0.652   2.924  0.00  0.00    -0.950 OA
ATOM      9  O   LIG    1        3.047  -0.759   1.474  0.00  0.00    -0.950 OA
BRANCH   7  11
ATOM     10  C   LIG    1        0.878   1.389   0.432  0.00  0.00    +0.070 C 
ATOM     11  C   LIG    1        0.722  -0.130   0.327  0.00  0.00    -0.370 C 
ENDBRANCH   7  11
ENDBRANCH   1   7
BRANCH   4  12
ATOM     12  C   LIG    1       -0.271  -5.788  -0.643  0.00  0.00    +0.170 C 
ATOM     13  C   LIG    1       -1.264  -4.974  -1.475  0.00  0.00    +0.030 C 
BRANCH  12  14
ATOM     14  C   LIG    1       -1.014  -6.836   0.143  0.00  0.00    +0.520 C 
ATOM     15  O   LIG    1       -1.182  -6.694   1.336  0.00  0.00    -0.520 OA
ATOM     16  N   LIG    1       -1.493  -7.932  -0.479  0.00  0.00    -0.860 N 
ATOM     17  H   LIG    1       -1.972  -8.607   0.028  0.00  0.00    +0.400 HD
ATOM     18  H   LIG    1       -1.359  -8.046  -1.433  0.00  0.00    +0.400 HD
ENDBRANCH  12  14
ENDBRANCH   4  12
TORSDOF 4
ENDMDL
MODEL     1062
REMARK  Name = ZINC000001298528
REMARK                            x       y       z     vdW  Elec       q    Type
REMARK                         _______ _______ _______ _____ _____    ______ ____
ROOT
ATOM      1  C   LIG    1        1.280   1.980   0.001  0.00  0.00    +0.080 C 
ENDROOT
BRANCH   1   2
ATOM      2  C   LIG    1        2.457   1.002  -0.016  0.00  0.00    +0.250 C 
ATOM      3  N   LIG    1        2.545   0.275   1.263  0.00  0.00    -0.710 N 
ATOM      4  H   LIG    1        1.873  -0.313   1.642  0.00  0.00    +0.450 HD
ATOM      5  C   LIG    1        3.737   0.587   1.801  0.00  0.00    +0.700 C 
ATOM      6  N   LIG    1        4.441   1.427   1.033  0.00  0.00    -0.680 N 
ATOM      7  H   LIG    1        5.322   1.763   1.259  0.00  0.00    +0.440 HD
ATOM      8  O   LIG    1        4.132   0.154   2.866  0.00  0.00    -0.540 OA
ATOM      9  C   LIG    1        3.772   1.750  -0.096  0.00  0.00    +0.530 C 
ATOM     10  O   LIG    1        4.147   2.486  -0.983  0.00  0.00    -0.460 OA
ENDBRANCH   1   2
BRANCH   1  12
ATOM     11  O   LIG    1        0.002  -0.004   0.002  0.00  0.00    -0.530 OA
ATOM     12  C   LIG    1       -0.014   1.209   0.009  0.00  0.00    +0.520 C 
ATOM     13  N   LIG    1       -1.191   1.867   0.018  0.00  0.00    -0.610 N 
ATOM     14  C   LIG    1       -1.236   3.337   0.020  0.00  0.00    +0.250 C 
ATOM     15  C   LIG    1       -2.182   3.793  -1.096  0.00  0.00    +0.220 C 
ATOM     16  O   LIG    1       -3.435   3.120  -0.956  0.00  0.00    -0.380 OA
ATOM     17  C   LIG    1       -3.354   1.699  -1.091  0.00  0.00    +0.220 C 
ATOM     18  C   LIG    1       -2.468   1.135   0.020  0.00  0.00    +0.270 C 
ENDBRANCH   1  12
TORSDOF 2
ENDMDL
MODEL     1063
REMARK  Name = ZINC000001298530
REMARK                            x       y       z     vdW  Elec       q    Type
REMARK                         _______ _______ _______ _____ _____    ______ ____
ROOT
ATOM      1  C   LIG    1        1.280   1.980   0.001  0.00  0.00    +0.090 C 
ENDROOT
BRANCH   1   2
ATOM      2  C   LIG    1        2.457   1.002  -0.016  0.00  0.00    +0.250 C 
ATOM      3  N   LIG    1        2.520   0.289  -1.304  0.00  0.00    -0.710 N 
ATOM      4  H   LIG    1        1.842  -0.296  -1.677  0.00  0.00    +0.450 HD
ATOM      5  C   LIG    1        3.702   0.607  -1.861  0.00  0.00    +0.700 C 
ATOM      6  N   LIG    1        4.420   1.439  -1.098  0.00  0.00    -0.680 N 
ATOM      7  H   LIG    1        5.298   1.776  -1.337  0.00  0.00    +0.440 HD
ATOM      8  O   LIG    1        4.076   0.185  -2.938  0.00  0.00    -0.540 OA
ATOM      9  C   LIG    1        3.773   1.750   0.046  0.00  0.00    +0.530 C 
ATOM     10  O   LIG    1        4.165   2.477   0.934  0.00  0.00    -0.460 OA
ENDBRANCH   1   2
BRANCH   1  12
ATOM     11  O   LIG    1        0.002  -0.004   0.002  0.00  0.00    -0.530 OA
ATOM     12  C   LIG    1       -0.014   1.209   0.009  0.00  0.00    +0.520 C 
ATOM     13  N   LIG    1       -1.191   1.867   0.018  0.00  0.00    -0.610 N 
ATOM     14  C   LIG    1       -1.236   3.337   0.020  0.00  0.00    +0.260 C 
ATOM     15  C   LIG    1       -2.182   3.793  -1.096  0.00  0.00    +0.220 C 
ATOM     16  O   LIG    1       -3.435   3.120  -0.956  0.00  0.00    -0.380 OA
ATOM     17  C   LIG    1       -3.354   1.699  -1.091  0.00  0.00    +0.220 C 
ATOM     18  C   LIG    1       -2.468   1.135   0.020  0.00  0.00    +0.270 C 
ENDBRANCH   1  12
TORSDOF 2
ENDMDL
MODEL     1064
REMARK  Name = ZINC000001303441
REMARK                            x       y       z     vdW  Elec       q    Type
REMARK                         _______ _______ _______ _____ _____    ______ ____
ROOT
ATOM      1  C   LIG    1       -0.018   1.503   0.010  0.00  0.00    +0.110 C 
ATOM      2  C   LIG    1        0.002  -0.004   0.002  0.00  0.00    -0.270 A 
ATOM      3  C   LIG    1       -1.155  -0.707   0.004  0.00  0.00    +0.360 A 
ATOM      4  N   LIG    1       -1.107  -2.069  -0.004  0.00  0.00    -0.530 N 
ATOM      5  C   LIG    1        0.077  -2.708  -0.014  0.00  0.00    +0.660 A 
ATOM      6  N   LIG    1        1.224  -2.030  -0.016  0.00  0.00    -0.620 NA
ATOM      7  O   LIG    1        0.101  -3.927  -0.021  0.00  0.00    -0.520 OA
ATOM      8  C   LIG    1        1.226  -0.703  -0.013  0.00  0.00    +0.510 A 
ENDROOT
BRANCH   4   9
ATOM      9  C1* LIG    1       -2.352  -2.842  -0.003  0.00  0.00    +0.400 C 
ATOM     10  C2* LIG    1       -2.473  -3.668  -1.303  0.00  0.00    +0.010 C 
ATOM     11  C3* LIG    1       -3.120  -4.995  -0.846  0.00  0.00    +0.170 C 
ATOM     12  C4* LIG    1       -3.314  -4.813   0.676  0.00  0.00    +0.180 C 
ATOM     13  O4* LIG    1       -2.335  -3.821   1.058  0.00  0.00    -0.340 OA
BRANCH  11  14
ATOM     14  O3* LIG    1       -4.379  -5.187  -1.494  0.00  0.00    -0.560 OA
ATOM     15  H3* LIG    1       -4.321  -5.247  -2.457  0.00  0.00    +0.390 HD
ENDBRANCH  11  14
BRANCH  12  16
ATOM     16  C5* LIG    1       -3.054  -6.132   1.407  0.00  0.00    +0.210 C 
BRANCH  16  17
ATOM     17  O5* LIG    1       -3.350  -5.973   2.796  0.00  0.00    -0.570 OA
ATOM     18  H5* LIG    1       -3.208  -6.771   3.322  0.00  0.00    +0.380 HD
ENDBRANCH  16  17
ENDBRANCH  12  16
ENDBRANCH   4   9
BRANCH   8  19
ATOM     19  N   LIG    1        2.417  -0.014  -0.015  0.00  0.00    -0.810 N 
ATOM     20  H   LIG    1        2.416   0.956  -0.013  0.00  0.00    +0.410 HD
ATOM     21  H   LIG    1        3.257  -0.498  -0.018  0.00  0.00    +0.410 HD
ENDBRANCH   8  19
TORSDOF 5
ENDMDL
MODEL     1065
REMARK  Name = ZINC000001400450
REMARK                            x       y       z     vdW  Elec       q    Type
REMARK                         _______ _______ _______ _____ _____    ______ ____
ROOT
ATOM      1  C   LIG    1        0.657  -2.104  -1.120  0.00  0.00    +0.030 C 
ATOM      2  C   LIG    1        1.417  -2.650   0.091  0.00  0.00    +0.110 C 
ATOM      3  C   LIG    1        1.694  -4.116  -0.083  0.00  0.00    +0.530 C 
ATOM      4  N   LIG    1        1.692  -4.712  -1.284  0.00  0.00    -0.500 N 
ATOM      5  H   LIG    1        1.899  -5.657  -1.347  0.00  0.00    +0.430 HD
ATOM      6  N   LIG    1        1.397  -3.994  -2.452  0.00  0.00    -0.810 NA
ATOM      7  O   LIG    1        1.927  -4.786   0.900  0.00  0.00    -0.530 OA
ATOM      8  C   LIG    1        1.393  -2.525  -2.399  0.00  0.00    +0.340 C 
ENDROOT
BRANCH   6   9
ATOM      9  S   LIG    1        1.058  -4.786  -3.866  0.00  0.00    +2.610 S 
ATOM     10  O   LIG    1        0.347  -3.830  -4.641  0.00  0.00    -0.930 OA
ATOM     11  O   LIG    1        0.441  -5.997  -3.450  0.00  0.00    -0.930 OA
ATOM     12  C   LIG    1        2.683  -5.120  -4.600  0.00  0.00    -0.260 C 
ENDBRANCH   6   9
BRANCH   1  13
ATOM     13  C   LIG    1        0.598  -0.600  -1.043  0.00  0.00    +0.470 C 
ATOM     14  O   LIG    1        1.088   0.070  -1.921  0.00  0.00    -0.500 OA
BRANCH  13  16
ATOM     15  C   LIG    1       -0.018   1.448   0.010  0.00  0.00    +0.280 C 
ATOM     16  O   LIG    1        0.002  -0.004   0.002  0.00  0.00    -0.350 OA
ENDBRANCH  13  16
ENDBRANCH   1  13
TORSDOF 3
ENDMDL
MODEL     1066
REMARK  Name = ZINC000001425231
REMARK                            x       y       z     vdW  Elec       q    Type
REMARK                         _______ _______ _______ _____ _____    ______ ____
ROOT
ATOM      1  C   LIG    1       -0.451   1.421  -0.074  0.00  0.00    +0.360 C 
ATOM      2  N   LIG    1       -0.208  -0.023  -0.039  0.00  0.00    -0.550 N 
ATOM      3  C   LIG    1        0.042  -0.689  -1.185  0.00  0.00    +0.550 A 
ATOM      4  C   LIG    1        0.282  -2.136  -1.125  0.00  0.00    -0.060 A 
ATOM      5  C   LIG    1        0.242  -2.748   0.086  0.00  0.00    +0.160 A 
ATOM      6  N   LIG    1       -0.020  -2.000   1.214  0.00  0.00    -0.520 N 
ATOM      7  C   LIG    1       -0.063  -2.660   2.521  0.00  0.00    +0.350 C 
ATOM      8  O   LIG    1        0.069  -0.100  -2.250  0.00  0.00    -0.500 OA
ATOM      9  C   LIG    1       -0.231  -0.676   1.137  0.00  0.00    +0.700 A 
ATOM     10  O   LIG    1       -0.459  -0.053   2.155  0.00  0.00    -0.530 OA
ENDROOT
BRANCH   5  11
ATOM     11  C   LIG    1        0.479  -4.208   0.195  0.00  0.00    +0.570 C 
ATOM     12  N   LIG    1        0.604  -4.955  -0.919  0.00  0.00    -0.680 N 
ATOM     13  H   LIG    1        0.539  -4.538  -1.793  0.00  0.00    +0.410 HD
ATOM     14  O   LIG    1        0.560  -4.730   1.289  0.00  0.00    -0.510 OA
BRANCH  12  15
ATOM     15  C   LIG    1        0.838  -6.398  -0.812  0.00  0.00    +0.220 C 
ATOM     16  C   LIG    1        0.041  -7.314  -1.743  0.00  0.00    +0.020 C 
ATOM     17  C   LIG    1        1.535  -7.090  -1.985  0.00  0.00    +0.030 C 
ENDBRANCH  12  15
ENDBRANCH   5  11
TORSDOF 2
ENDMDL
MODEL     1067
REMARK  Name = ZINC000011693099
REMARK                            x       y       z     vdW  Elec       q    Type
REMARK                         _______ _______ _______ _____ _____    ______ ____
ROOT
ATOM      1  C   LIG    1       -0.018   1.461   0.010  0.00  0.00    +0.350 C 
ATOM      2  N   LIG    1        0.002  -0.004   0.002  0.00  0.00    -0.510 N 
ATOM      3  C   LIG    1       -1.189  -0.713   0.004  0.00  0.00    +0.360 A 
ATOM      4  C   LIG    1       -1.140  -2.102  -0.004  0.00  0.00    -0.160 A 
ATOM      5  N   LIG    1       -2.460  -2.537   0.001  0.00  0.00    -0.460 N 
ATOM      6  C   LIG    1       -3.295  -3.746  -0.001  0.00  0.00    +0.320 C 
ATOM      7  C   LIG    1       -4.739  -3.215   0.009  0.00  0.00    +0.310 C 
ATOM      8  N   LIG    1       -4.589  -1.755   0.016  0.00  0.00    -0.700 N 
ATOM      9  H   LIG    1       -5.318  -1.116   0.023  0.00  0.00    +0.440 HD
ATOM     10  C   LIG    1       -3.248  -1.437   0.011  0.00  0.00    +0.530 A 
ATOM     11  C   LIG    1        0.109  -2.747  -0.014  0.00  0.00    +0.600 A 
ATOM     12  N   LIG    1        1.235  -2.004  -0.016  0.00  0.00    -0.650 N 
ATOM     13  H   LIG    1        2.099  -2.445  -0.022  0.00  0.00    +0.440 HD
ATOM     14  O   LIG    1        0.174  -3.964  -0.021  0.00  0.00    -0.520 OA
ATOM     15  N   LIG    1       -2.473  -0.357   0.012  0.00  0.00    -0.520 NA
ATOM     16  C   LIG    1        1.177  -0.661  -0.013  0.00  0.00    +0.710 A 
ATOM     17  O   LIG    1        2.213  -0.023  -0.015  0.00  0.00    -0.540 OA
ENDROOT
TORSDOF 0
ENDMDL
MODEL     1068
REMARK  Name = ZINC000101690007
REMARK                            x       y       z     vdW  Elec       q    Type
REMARK                         _______ _______ _______ _____ _____    ______ ____
ROOT
ATOM      1  C   LIG    1        0.629  -0.676  -1.007  0.00  0.00    +0.060 C 
ATOM      2  C   LIG    1        0.887  -2.023  -1.299  0.00  0.00    +0.050 C 
ATOM      3  C   LIG    1        1.520  -1.707  -2.588  0.00  0.00    +0.360 C 
ATOM      4  O   LIG    1        2.034  -2.333  -3.496  0.00  0.00    -0.410 OA
ATOM      5  C   LIG    1        1.243  -0.283  -2.284  0.00  0.00    +0.350 C 
ATOM      6  O   LIG    1        1.444   0.774  -2.852  0.00  0.00    -0.420 OA
ENDROOT
BRANCH   2   7
ATOM      7  N   LIG    1        0.641  -3.196  -0.632  0.00  0.00    -0.580 N 
ATOM      8  C   LIG    1       -0.136  -3.199   0.615  0.00  0.00    +0.270 C 
ATOM      9  C   LIG    1       -1.315  -4.167   0.457  0.00  0.00    +0.270 C 
ATOM     10  N   LIG    1       -0.807  -5.444  -0.064  0.00  0.00    -0.620 N 
ATOM     11  C   LIG    1       -0.030  -5.442  -1.311  0.00  0.00    +0.270 C 
ATOM     12  C   LIG    1       -1.049  -6.597   0.591  0.00  0.00    +0.520 C 
ATOM     13  O   LIG    1       -1.769  -6.600   1.567  0.00  0.00    -0.540 OA
ATOM     14  C   LIG    1       -0.425  -7.882   0.111  0.00  0.00    +0.100 C 
ATOM     15  C   LIG    1        1.144  -4.474  -1.156  0.00  0.00    +0.300 C 
ENDBRANCH   2   7
BRANCH   1  17
ATOM     16  C   LIG    1        0.030   1.460   0.050  0.00  0.00    +0.290 C 
ATOM     17  N   LIG    1        0.041  -0.005   0.035  0.00  0.00    -0.690 N 
ATOM     18  H   LIG    1       -0.367  -0.500   0.762  0.00  0.00    +0.410 HD
ENDBRANCH   1  17
TORSDOF 2
ENDMDL
MODEL     1069
REMARK  Name = ZINC000001464251
REMARK                            x       y       z     vdW  Elec       q    Type
REMARK                         _______ _______ _______ _____ _____    ______ ____
ROOT
ATOM      1  C   LIG    1       -0.019   1.526   0.010  0.00  0.00    +0.050 C 
ATOM      2  C   LIG    1        0.002  -0.004   0.002  0.00  0.00    +0.250 C 
ATOM      3  O   LIG    1        0.684  -0.469  -1.169  0.00  0.00    -0.360 OA
ATOM      4  C   LIG    1        1.835  -1.219  -0.737  0.00  0.00    +0.360 C 
ATOM      5  O   LIG    1        1.457  -2.602  -0.602  0.00  0.00    -0.360 OA
ATOM      6  C   LIG    1        2.211  -3.160   0.484  0.00  0.00    +0.120 C 
ATOM      7  C   LIG    1        2.579  -2.004   1.431  0.00  0.00    +0.180 C 
ATOM      8  C   LIG    1        2.050  -0.723   0.727  0.00  0.00    +0.160 C 
ATOM      9  C   LIG    1       -1.432  -0.537   0.004  0.00  0.00    +0.070 C 
ATOM     10  O   LIG    1        0.696  -0.483   1.165  0.00  0.00    -0.350 OA
ENDROOT
BRANCH   7  11
ATOM     11  O   LIG    1        3.997  -1.921   1.588  0.00  0.00    -0.550 OA
ATOM     12  H   LIG    1        4.396  -2.711   1.977  0.00  0.00    +0.390 HD
ENDBRANCH   7  11
BRANCH   6  13
ATOM     13  C   LIG    1        1.364  -4.195   1.227  0.00  0.00    +0.230 C 
BRANCH  13  14
ATOM     14  O   LIG    1        2.110  -4.721   2.326  0.00  0.00    -0.540 OA
ATOM     15  H   LIG    1        2.934  -5.158   2.070  0.00  0.00    +0.370 HD
ENDBRANCH  13  14
BRANCH  13  16
ATOM     16  C   LIG    1        0.994  -5.332   0.272  0.00  0.00    +0.170 C 
BRANCH  16  17
ATOM     17  O   LIG    1        0.107  -6.238   0.931  0.00  0.00    -0.560 OA
ATOM     18  H   LIG    1       -0.170  -6.986   0.384  0.00  0.00    +0.380 HD
ENDBRANCH  16  17
ENDBRANCH  13  16
ENDBRANCH   6  13
TORSDOF 5
ENDMDL
MODEL     1070
REMARK  Name = ZINC000001541834
REMARK                            x       y       z     vdW  Elec       q    Type
REMARK                         _______ _______ _______ _____ _____    ______ ____
ROOT
ATOM      1  C   LEU A  1       -3.372  -1.006  -1.683  0.00  0.00    +0.490 C 
ATOM      2  N   SER A  2       -3.419  -2.319  -1.982  0.00  0.00    -0.650 N 
ATOM      3  H   SER A  2       -2.602  -2.841  -2.002  0.00  0.00    +0.410 HD
ATOM      4  O   LEU A  1       -4.394  -0.352  -1.658  0.00  0.00    -0.540 OA
ENDROOT
BRANCH   1   5
ATOM      5  CA  LEU A  1       -2.050  -0.348  -1.381  0.00  0.00    +0.170 C 
BRANCH   5   6
ATOM      6  N   LEU A  1       -2.174   1.105  -1.559  0.00  0.00    -0.620 N 
ATOM      7  H1  LEU A  1       -1.267   1.534  -1.455  0.00  0.00    +0.430 HD
ATOM      8  H2  LEU A  1       -2.804   1.477  -0.865  0.00  0.00    +0.440 HD
ATOM      9  H3  LEU A  1       -2.534   1.301  -2.481  0.00  0.00    +0.440 HD
ENDBRANCH   5   6
BRANCH   5  10
ATOM     10  CB  LEU A  1       -1.649  -0.652   0.064  0.00  0.00    +0.080 C 
BRANCH  10  12
ATOM     11  CD1 LEU A  1        0.097  -0.274   1.812  0.00  0.00    +0.040 C 
ATOM     12  CG  LEU A  1       -0.247  -0.099   0.331  0.00  0.00    -0.040 C 
ATOM     13  CD2 LEU A  1        0.771  -0.858  -0.522  0.00  0.00    +0.030 C 
ENDBRANCH  10  12
ENDBRANCH   5  10
ENDBRANCH   1   5
BRANCH   2  14
ATOM     14  CA  SER A  2       -4.704  -2.958  -2.276  0.00  0.00    +0.170 C 
BRANCH  14  15
ATOM     15  C   SER A  2       -5.365  -3.375  -0.987  0.00  0.00    +0.500 C 
ATOM     16  OXT SER A  2       -4.683  -3.680  -0.024  0.00  0.00    -0.670 OA
ATOM     17  O   SER A  2       -6.581  -3.408  -0.908  0.00  0.00    -0.680 OA
ENDBRANCH  14  15
BRANCH  14  18
ATOM     18  CB  SER A  2       -4.472  -4.190  -3.152  0.00  0.00    +0.190 C 
BRANCH  18  19
ATOM     19  OG  SER A  2       -3.726  -5.163  -2.418  0.00  0.00    -0.550 OA
ATOM     20  H   SER A  2       -3.541  -5.973  -2.914  0.00  0.00    +0.370 HD
ENDBRANCH  18  19
ENDBRANCH  14  18
ENDBRANCH   2  14
TORSDOF 8
ENDMDL
MODEL     1071
REMARK  Name = ZINC000001530303
REMARK                            x       y       z     vdW  Elec       q    Type
REMARK                         _______ _______ _______ _____ _____    ______ ____
ROOT
ATOM      1  C   LIG    1        0.794  -0.418  -1.208  0.00  0.00    +0.230 C 
ENDROOT
BRANCH   1   2
ATOM      2  C   LIG    1        2.201   0.108  -1.087  0.00  0.00    +0.490 C 
ATOM      3  N   LIG    1        2.977  -0.273  -0.053  0.00  0.00    -0.730 N 
ATOM      4  H   LIG    1        2.654  -0.935   0.577  0.00  0.00    +0.410 HD
ATOM      5  O   LIG    1        2.635   0.875  -1.921  0.00  0.00    -0.530 OA
BRANCH   3   6
ATOM      6  C   LIG    1        4.309   0.312   0.118  0.00  0.00    +0.260 C 
BRANCH   6   7
ATOM      7  C   LIG    1        4.975  -0.289   1.357  0.00  0.00    +0.030 C 
BRANCH   7   8
ATOM      8  C   LIG    1        6.366   0.323   1.536  0.00  0.00    +0.180 C 
BRANCH   8   9
ATOM      9  O   LIG    1        6.988  -0.238   2.694  0.00  0.00    -0.570 OA
ATOM     10  H   LIG    1        7.875   0.104   2.869  0.00  0.00    +0.380 HD
ENDBRANCH   8   9
ENDBRANCH   7   8
ENDBRANCH   6   7
ENDBRANCH   3   6
ENDBRANCH   1   2
BRANCH   1  12
ATOM     11  C   LIG    1        0.438  -0.378   1.265  0.00  0.00    +0.050 C 
ATOM     12  C   LIG    1       -0.063   0.156  -0.079  0.00  0.00    -0.090 C 
ATOM     13  C   LIG    1       -1.521  -0.262  -0.282  0.00  0.00    +0.060 C 
BRANCH  12  14
ATOM     14  C   LIG    1        0.035   1.683  -0.089  0.00  0.00    +0.180 C 
BRANCH  14  15
ATOM     15  O   LIG    1       -0.766   2.219   0.966  0.00  0.00    -0.560 OA
ATOM     16  H   LIG    1       -0.751   3.185   1.020  0.00  0.00    +0.380 HD
ENDBRANCH  14  15
ENDBRANCH  12  14
ENDBRANCH   1  12
BRANCH   1  17
ATOM     17  O   LIG    1        0.246  -0.027  -2.468  0.00  0.00    -0.530 OA
ATOM     18  H   LIG    1        0.205   0.930  -2.599  0.00  0.00    +0.380 HD
ENDBRANCH   1  17
TORSDOF 9
ENDMDL
MODEL     1072
REMARK  Name = ZINC000001529407
REMARK                            x       y       z     vdW  Elec       q    Type
REMARK                         _______ _______ _______ _____ _____    ______ ____
ROOT
ATOM      1  CG  CYS A  1        0.711   3.537   1.339  0.00  0.00    +0.080 C 
ENDROOT
BRANCH   1   2
ATOM      2  CB  CYS A  1       -0.720   3.008   1.225  0.00  0.00    +0.100 C 
BRANCH   2   3
ATOM      3  CA  CYS A  1       -0.699   1.479   1.216  0.00  0.00    +0.100 C 
BRANCH   3   4
ATOM      4  N   CYS A  1       -0.012   1.005   0.008  0.00  0.00    -0.610 N 
ATOM      5  H1  CYS A  1       -0.500   1.339  -0.810  0.00  0.00    +0.430 HD
ATOM      6  H2  CYS A  1        0.935   1.354   0.000  0.00  0.00    +0.410 HD
ATOM      7  H3  CYS A  1        0.002  -0.004   0.002  0.00  0.00    +0.440 HD
ENDBRANCH   3   4
BRANCH   3   8
ATOM      8  C   CYS A  1       -2.113   0.957   1.227  0.00  0.00    +0.490 C 
ATOM      9  OXT CYS A  1       -2.859   1.236   2.150  0.00  0.00    -0.630 OA
ATOM     10  O   CYS A  1       -2.511   0.256   0.312  0.00  0.00    -0.670 OA
ENDBRANCH   3   8
ENDBRANCH   2   3
ENDBRANCH   1   2
BRANCH   1  11
ATOM     11  SG  CYS A  1        0.686   5.351   1.349  0.00  0.00    -0.260 S 
BRANCH  11  12
ATOM     12  CB  CYS A  1        2.443   5.782   1.489  0.00  0.00    +0.130 C 
BRANCH  12  13
ATOM     13  CA  CYS A  1        2.594   7.305   1.511  0.00  0.00    +0.110 C 
BRANCH  13  14
ATOM     14  N   CYS A  1        1.965   7.842   2.724  0.00  0.00    -0.610 N 
ATOM     15  H1  CYS A  1        2.064   8.846   2.739  0.00  0.00    +0.440 HD
ATOM     16  H2  CYS A  1        2.412   7.448   3.538  0.00  0.00    +0.430 HD
ATOM     17  H3  CYS A  1        0.985   7.601   2.730  0.00  0.00    +0.420 HD
ENDBRANCH  13  14
BRANCH  13  18
ATOM     18  C   CYS A  1        4.058   7.664   1.503  0.00  0.00    +0.490 C 
ATOM     19  OXT CYS A  1        4.573   8.145   2.498  0.00  0.00    -0.660 OA
ATOM     20  O   CYS A  1        4.727   7.474   0.502  0.00  0.00    -0.630 OA
ENDBRANCH  13  18
ENDBRANCH  12  13
ENDBRANCH  11  12
ENDBRANCH   1  11
TORSDOF 9
ENDMDL
MODEL     1073
REMARK  Name = ZINC000001532910
REMARK                            x       y       z     vdW  Elec       q    Type
REMARK                         _______ _______ _______ _____ _____    ______ ____
ROOT
ATOM      1  CA  LIG    1        1.465  -0.351   3.061  0.00  0.00    +0.170 C 
ENDROOT
BRANCH   1   2
ATOM      2  N   LIG    1        2.020  -1.706   3.062  0.00  0.00    -0.680 N 
ATOM      3  H   LIG    1        1.429  -2.473   3.120  0.00  0.00    +0.400 HD
ATOM      4  C   LIG    1        3.353  -1.889   2.982  0.00  0.00    +0.510 C 
ATOM      5  O   LIG    1        4.093  -0.931   2.909  0.00  0.00    -0.550 OA
BRANCH   4   6
ATOM      6  C   LIG    1        3.924  -3.283   2.983  0.00  0.00    +0.060 C 
BRANCH   6   7
ATOM      7  C   LIG    1        5.449  -3.210   2.884  0.00  0.00    +0.290 C 
BRANCH   7   8
ATOM      8  N   LIG    1        6.006  -4.570   2.885  0.00  0.00    -0.640 N 
ATOM      9  H   LIG    1        7.012  -4.521   2.819  0.00  0.00    +0.440 HD
ATOM     10  H   LIG    1        5.642  -5.083   2.096  0.00  0.00    +0.430 HD
ATOM     11  H   LIG    1        5.747  -5.039   3.740  0.00  0.00    +0.430 HD
ENDBRANCH   7   8
ENDBRANCH   6   7
ENDBRANCH   4   6
ENDBRANCH   1   2
BRANCH   1  12
ATOM     12  C   LIG    1        1.479   0.199   4.464  0.00  0.00    +0.490 C 
ATOM     13  OXT LIG    1        1.597   1.399   4.648  0.00  0.00    -0.680 OA
ATOM     14  O   LIG    1        1.373  -0.556   5.416  0.00  0.00    -0.690 OA
ENDBRANCH   1  12
BRANCH   1  15
ATOM     15  C   LIG    1        0.026  -0.389   2.543  0.00  0.00    +0.140 C 
BRANCH  15  21
ATOM     16  C   LIG    1       -0.018   1.461   0.010  0.00  0.00    +0.330 C 
ATOM     17  N   LIG    1        0.002  -0.004   0.002  0.00  0.00    -0.460 N 
ATOM     18  C   LIG    1        0.009  -0.799  -1.089  0.00  0.00    +0.370 A 
ATOM     19  N   LIG    1        0.027  -2.045  -0.700  0.00  0.00    -0.500 NA
ATOM     20  C   LIG    1        0.033  -2.088   0.641  0.00  0.00    +0.120 A 
ATOM     21  C   LIG    1        0.024  -0.822   1.099  0.00  0.00    -0.010 A 
ENDBRANCH  15  21
ENDBRANCH   1  15
TORSDOF 7
ENDMDL
MODEL     1074
REMARK  Name = ZINC000001530141
REMARK                            x       y       z     vdW  Elec       q    Type
REMARK                         _______ _______ _______ _____ _____    ______ ____
ROOT
ATOM      1  C   LIG    1       -4.328   1.419   2.795  0.00  0.00    +0.060 C 
ENDROOT
BRANCH   1   2
ATOM      2  N   LIG    1       -2.953   1.936   2.770  0.00  0.00    -0.490 N 
ATOM      3  H   LIG    1       -2.972   2.944   2.785  0.00  0.00    +0.430 HD
ATOM      4  H   LIG    1       -2.451   1.596   3.576  0.00  0.00    +0.430 HD
BRANCH   2   5
ATOM      5  C   LIG    1       -2.280   1.478   1.546  0.00  0.00    +0.290 C 
BRANCH   5   6
ATOM      6  C   LIG    1       -0.848   2.016   1.520  0.00  0.00    -0.460 C 
BRANCH   6   8
ATOM      7  O   LIG    1        0.002  -0.004   0.002  0.00  0.00    -1.040 OA
ATOM      8  S   LIG    1       -0.018   1.450   0.010  0.00  0.00    +2.630 S 
ATOM      9  O   LIG    1       -0.752   1.947  -1.143  0.00  0.00    -1.040 OA
ATOM     10  O   LIG    1        1.341   1.970  -0.000  0.00  0.00    -1.040 OA
ENDBRANCH   6   8
ENDBRANCH   5   6
ENDBRANCH   2   5
ENDBRANCH   1   2
BRANCH   1  11
ATOM     11  C   LIG    1       -4.299  -0.110   2.771  0.00  0.00    +0.240 C 
BRANCH  11  12
ATOM     12  O   LIG    1       -3.588  -0.591   3.914  0.00  0.00    -0.580 OA
ATOM     13  H   LIG    1       -3.530  -1.555   3.964  0.00  0.00    +0.410 HD
ENDBRANCH  11  12
ENDBRANCH   1  11
BRANCH   1  14
ATOM     14  C   LIG    1       -5.089   1.934   1.571  0.00  0.00    +0.240 C 
BRANCH  14  15
ATOM     15  O   LIG    1       -5.017   3.361   1.531  0.00  0.00    -0.580 OA
ATOM     16  H   LIG    1       -5.478   3.757   0.779  0.00  0.00    +0.410 HD
ENDBRANCH  14  15
ENDBRANCH   1  14
BRANCH   1  17
ATOM     17  C   LIG    1       -5.029   1.896   4.069  0.00  0.00    +0.220 C 
BRANCH  17  18
ATOM     18  O   LIG    1       -6.366   1.394   4.093  0.00  0.00    -0.560 OA
ATOM     19  H   LIG    1       -6.871   1.657   4.875  0.00  0.00    +0.400 HD
ENDBRANCH  17  18
ENDBRANCH   1  17
TORSDOF 10
ENDMDL
MODEL     1075
REMARK  Name = ZINC000001532680
REMARK                            x       y       z     vdW  Elec       q    Type
REMARK                         _______ _______ _______ _____ _____    ______ ____
ROOT
ATOM      1  SD  MET A  1        0.982   3.636   1.212  0.00  0.00    -0.260 S 
ENDROOT
BRANCH   1   2
ATOM      2  CE  MET A  1       -0.720   3.008   1.225  0.00  0.00    +0.130 C 
BRANCH   2   3
ATOM      3  CA  MET A  1       -0.699   1.479   1.216  0.00  0.00    +0.110 C 
BRANCH   3   4
ATOM      4  N   MET A  1       -0.012   1.005   0.008  0.00  0.00    -0.610 N 
ATOM      5  H1  MET A  1       -0.500   1.339  -0.810  0.00  0.00    +0.430 HD
ATOM      6  H2  MET A  1        0.935   1.354   0.000  0.00  0.00    +0.420 HD
ATOM      7  H3  MET A  1        0.002  -0.004   0.002  0.00  0.00    +0.440 HD
ENDBRANCH   3   4
BRANCH   3   8
ATOM      8  C   MET A  1       -2.113   0.957   1.227  0.00  0.00    +0.490 C 
ATOM      9  OXT MET A  1       -2.859   1.236   2.150  0.00  0.00    -0.630 OA
ATOM     10  O   MET A  1       -2.511   0.256   0.312  0.00  0.00    -0.660 OA
ENDBRANCH   3   8
ENDBRANCH   2   3
ENDBRANCH   1   2
BRANCH   1  11
ATOM     11  CG  MET A  1        0.753   5.436   1.224  0.00  0.00    +0.090 C 
BRANCH  11  12
ATOM     12  CB  MET A  1        2.120   6.124   1.214  0.00  0.00    +0.110 C 
BRANCH  12  13
ATOM     13  CA  MET A  1        1.927   7.641   1.224  0.00  0.00    +0.100 C 
BRANCH  13  14
ATOM     14  N   MET A  1        1.272   8.060  -0.023  0.00  0.00    -0.620 N 
ATOM     15  H1  MET A  1        0.374   7.607  -0.099  0.00  0.00    +0.410 HD
ATOM     16  H2  MET A  1        1.848   7.800  -0.809  0.00  0.00    +0.430 HD
ATOM     17  H3  MET A  1        1.145   9.061  -0.016  0.00  0.00    +0.430 HD
ENDBRANCH  13  14
BRANCH  13  18
ATOM     18  C   MET A  1        3.268   8.318   1.339  0.00  0.00    +0.490 C 
ATOM     19  OXT MET A  1        3.730   8.574   2.438  0.00  0.00    -0.630 OA
ATOM     20  O   MET A  1        3.892   8.609   0.333  0.00  0.00    -0.660 OA
ENDBRANCH  13  18
ENDBRANCH  12  13
ENDBRANCH  11  12
ENDBRANCH   1  11
TORSDOF 9
ENDMDL
MODEL     1076
REMARK  Name = ZINC000001560532
REMARK                            x       y       z     vdW  Elec       q    Type
REMARK                         _______ _______ _______ _____ _____    ______ ____
ROOT
ATOM      1  S   LIG    1        1.520  -2.598  -2.637  0.00  0.00    +2.480 S 
ATOM      2  O   LIG    1        2.873  -2.173  -2.548  0.00  0.00    -0.890 OA
ATOM      3  O   LIG    1        0.738  -2.195  -3.753  0.00  0.00    -0.890 OA
ENDROOT
BRANCH   1   4
ATOM      4  C   LIG    1        0.657  -2.104  -1.120  0.00  0.00    -0.280 C 
BRANCH   4   5
ATOM      5  C   LIG    1        0.598  -0.600  -1.043  0.00  0.00    +0.490 C 
ATOM      6  O   LIG    1        1.088   0.070  -1.921  0.00  0.00    -0.490 OA
BRANCH   5   8
ATOM      7  C   LIG    1       -0.018   1.448   0.010  0.00  0.00    +0.280 C 
ATOM      8  O   LIG    1        0.002  -0.004   0.002  0.00  0.00    -0.350 OA
ENDBRANCH   5   8
ENDBRANCH   4   5
ENDBRANCH   1   4
BRANCH   1   9
ATOM      9  C   LIG    1        1.474  -4.408  -2.522  0.00  0.00    -0.280 C 
BRANCH   9  10
ATOM     10  C   LIG    1        2.159  -5.005  -3.724  0.00  0.00    +0.490 C 
ATOM     11  O   LIG    1        2.630  -4.284  -4.571  0.00  0.00    -0.490 OA
BRANCH  10  12
ATOM     12  O   LIG    1        2.245  -6.338  -3.853  0.00  0.00    -0.350 OA
ATOM     13  C   LIG    1        2.919  -6.844  -5.036  0.00  0.00    +0.280 C 
ENDBRANCH  10  12
ENDBRANCH   9  10
ENDBRANCH   1   9
TORSDOF 6
ENDMDL
MODEL     1077
REMARK  Name = ZINC000001575556
REMARK                            x       y       z     vdW  Elec       q    Type
REMARK                         _______ _______ _______ _____ _____    ______ ____
ROOT
ATOM      1  C   ALA A  1        0.731  -0.503   1.223  0.00  0.00    +0.500 C 
ATOM      2  N   ASN A  2        0.278  -0.191   2.453  0.00  0.00    -0.650 N 
ATOM      3  H   ASN A  2       -0.517   0.356   2.553  0.00  0.00    +0.400 HD
ATOM      4  O   ALA A  1        1.725  -1.187   1.099  0.00  0.00    -0.540 OA
ENDROOT
BRANCH   1   6
ATOM      5  CB  ALA A  1       -0.019   1.526   0.010  0.00  0.00    +0.110 C 
ATOM      6  CA  ALA A  1        0.002  -0.004   0.002  0.00  0.00    +0.170 C 
BRANCH   6   7
ATOM      7  N   ALA A  1        0.690  -0.478  -1.207  0.00  0.00    -0.620 N 
ATOM      8  H1  ALA A  1        0.202  -0.144  -2.024  0.00  0.00    +0.430 HD
ATOM      9  H2  ALA A  1        0.703  -1.487  -1.212  0.00  0.00    +0.440 HD
ATOM     10  H3  ALA A  1        1.636  -0.129  -1.214  0.00  0.00    +0.440 HD
ENDBRANCH   6   7
ENDBRANCH   1   6
BRANCH   2  11
ATOM     11  CA  ASN A  2        0.986  -0.676   3.640  0.00  0.00    +0.190 C 
BRANCH  11  12
ATOM     12  C   ASN A  2        2.113   0.268   3.973  0.00  0.00    +0.490 C 
ATOM     13  OXT ASN A  2        2.941  -0.043   4.813  0.00  0.00    -0.680 OA
ATOM     14  O   ASN A  2        2.198   1.342   3.402  0.00  0.00    -0.680 OA
ENDBRANCH  11  12
BRANCH  11  15
ATOM     15  CB  ASN A  2        0.015  -0.747   4.820  0.00  0.00    +0.080 C 
BRANCH  15  16
ATOM     16  CG  ASN A  2       -1.044  -1.781   4.537  0.00  0.00    +0.520 C 
ATOM     17  OD1 ASN A  2       -1.024  -2.400   3.495  0.00  0.00    -0.550 OA
ATOM     18  ND2 ASN A  2       -2.013  -2.018   5.444  0.00  0.00    -0.860 N 
ATOM     19 HD21 ASN A  2       -2.695  -2.683   5.261  0.00  0.00    +0.400 HD
ATOM     20 HD22 ASN A  2       -2.029  -1.523   6.277  0.00  0.00    +0.400 HD
ENDBRANCH  15  16
ENDBRANCH  11  15
ENDBRANCH   2  11
TORSDOF 6
ENDMDL
MODEL     1078
REMARK  Name = ZINC000001575500
REMARK                            x       y       z     vdW  Elec       q    Type
REMARK                         _______ _______ _______ _____ _____    ______ ____
ROOT
ATOM      1  CA  GLY A  2        0.780  -1.133   3.576  0.00  0.00    +0.310 C 
ENDROOT
BRANCH   1   4
ATOM      2  N   ALA A  3        0.711  -0.489   1.189  0.00  0.00    -0.680 N 
ATOM      3  H   ALA A  3        1.654  -0.707   1.135  0.00  0.00    +0.410 HD
ATOM      4  C   GLY A  2        0.051  -0.633   2.355  0.00  0.00    +0.500 C 
ATOM      5  O   GLY A  2       -1.129  -0.361   2.423  0.00  0.00    -0.560 OA
BRANCH   2   7
ATOM      6  CB  ALA A  3       -0.019   1.526   0.010  0.00  0.00    +0.030 C 
ATOM      7  CA  ALA A  3        0.002  -0.004   0.002  0.00  0.00    +0.160 C 
BRANCH   7   8
ATOM      8  C   ALA A  3        0.707  -0.490  -1.238  0.00  0.00    +0.490 C 
ATOM      9  OXT ALA A  3        0.073  -0.696  -2.259  0.00  0.00    -0.680 OA
ATOM     10  O   ALA A  3        1.912  -0.677  -1.220  0.00  0.00    -0.690 OA
ENDBRANCH   7   8
ENDBRANCH   2   7
ENDBRANCH   1   4
BRANCH   1  11
ATOM     11  N   GLY A  2       -0.150  -1.201   4.706  0.00  0.00    -0.680 N 
ATOM     12  H   GLY A  2       -1.077  -0.942   4.588  0.00  0.00    +0.420 HD
ATOM     13  C   GLY A  1        0.283  -1.623   5.911  0.00  0.00    +0.490 C 
ATOM     14  O   GLY A  1        1.443  -1.947   6.059  0.00  0.00    -0.540 OA
BRANCH  13  15
ATOM     15  CA  GLY A  1       -0.673  -1.693   7.073  0.00  0.00    +0.320 C 
BRANCH  15  16
ATOM     16  N   GLY A  1        0.037  -2.180   8.263  0.00  0.00    -0.620 N 
ATOM     17  H1  GLY A  1        0.792  -1.548   8.486  0.00  0.00    +0.440 HD
ATOM     18  H2  GLY A  1        0.411  -3.099   8.080  0.00  0.00    +0.440 HD
ATOM     19  H3  GLY A  1       -0.603  -2.227   9.042  0.00  0.00    +0.440 HD
ENDBRANCH  15  16
ENDBRANCH  13  15
ENDBRANCH   1  11
TORSDOF 6
ENDMDL
MODEL     1079
REMARK  Name = ZINC000001576193
REMARK                            x       y       z     vdW  Elec       q    Type
REMARK                         _______ _______ _______ _____ _____    ______ ____
ROOT
ATOM      1  C   LIG    1       -0.023   0.089  -2.470  0.00  0.00    +0.320 C 
ENDROOT
BRANCH   1   4
ATOM      2  C   LIG    1       -0.018   1.461   0.010  0.00  0.00    +0.290 C 
ATOM      3  N   LIG    1        0.002  -0.004   0.002  0.00  0.00    -0.570 N 
ATOM      4  C   LIG    1        0.000  -0.672  -1.169  0.00  0.00    +0.500 C 
ATOM      5  O   LIG    1        0.017  -1.884  -1.175  0.00  0.00    -0.550 OA
BRANCH   3   6
ATOM      6  C   LIG    1        0.024  -0.743   1.267  0.00  0.00    +0.210 C 
BRANCH   6   7
ATOM      7  C   LIG    1       -1.389  -1.016   1.714  0.00  0.00    +0.480 C 
ATOM      8  O   LIG    1       -1.594  -1.624   2.751  0.00  0.00    -0.690 OA
ATOM      9  O   LIG    1       -2.327  -0.629   1.039  0.00  0.00    -0.690 OA
ENDBRANCH   6   7
ENDBRANCH   3   6
ENDBRANCH   1   4
BRANCH   1  10
ATOM     10  N   LIG    1       -0.020  -0.857  -3.588  0.00  0.00    -0.680 N 
ATOM     11  H   LIG    1       -0.006  -1.812  -3.416  0.00  0.00    +0.420 HD
ATOM     12  C   LIG    1       -0.039  -0.401  -4.856  0.00  0.00    +0.490 C 
ATOM     13  O   LIG    1       -0.057   0.792  -5.072  0.00  0.00    -0.540 OA
BRANCH  12  14
ATOM     14  C   LIG    1       -0.036  -1.374  -6.007  0.00  0.00    +0.300 C 
BRANCH  14  15
ATOM     15  N   LIG    1       -0.058  -0.633  -7.275  0.00  0.00    -0.620 N 
ATOM     16  H   LIG    1       -0.057  -1.284  -8.046  0.00  0.00    +0.440 HD
ATOM     17  H   LIG    1        0.757  -0.041  -7.333  0.00  0.00    +0.440 HD
ATOM     18  H   LIG    1       -0.890  -0.064  -7.318  0.00  0.00    +0.440 HD
ENDBRANCH  14  15
ENDBRANCH  12  14
ENDBRANCH   1  10
TORSDOF 6
ENDMDL
MODEL     1080
REMARK  Name = ZINC000001575554
REMARK                            x       y       z     vdW  Elec       q    Type
REMARK                         _______ _______ _______ _____ _____    ______ ____
ROOT
ATOM      1  C   ALA A  1        0.731  -0.503   1.223  0.00  0.00    +0.500 C 
ATOM      2  N   ASN A  2        0.278  -0.191   2.453  0.00  0.00    -0.650 N 
ATOM      3  H   ASN A  2       -0.517   0.356   2.553  0.00  0.00    +0.400 HD
ATOM      4  O   ALA A  1        1.725  -1.187   1.099  0.00  0.00    -0.540 OA
ENDROOT
BRANCH   1   6
ATOM      5  CB  ALA A  1       -0.019   1.526   0.010  0.00  0.00    +0.120 C 
ATOM      6  CA  ALA A  1        0.002  -0.004   0.002  0.00  0.00    +0.170 C 
BRANCH   6   7
ATOM      7  N   ALA A  1        0.690  -0.478  -1.207  0.00  0.00    -0.620 N 
ATOM      8  H1  ALA A  1        0.202  -0.144  -2.024  0.00  0.00    +0.440 HD
ATOM      9  H2  ALA A  1        0.703  -1.487  -1.212  0.00  0.00    +0.440 HD
ATOM     10  H3  ALA A  1        1.636  -0.129  -1.214  0.00  0.00    +0.440 HD
ENDBRANCH   6   7
ENDBRANCH   1   6
BRANCH   2  11
ATOM     11  CA  ASN A  2        0.986  -0.676   3.640  0.00  0.00    +0.190 C 
BRANCH  11  12
ATOM     12  C   ASN A  2        0.511  -2.066   3.976  0.00  0.00    +0.490 C 
ATOM     13  OXT ASN A  2       -0.630  -2.401   3.706  0.00  0.00    -0.690 OA
ATOM     14  O   ASN A  2        1.266  -2.855   4.517  0.00  0.00    -0.670 OA
ENDBRANCH  11  12
BRANCH  11  15
ATOM     15  CB  ASN A  2        0.706   0.258   4.819  0.00  0.00    +0.080 C 
BRANCH  15  16
ATOM     16  CG  ASN A  2        1.290   1.617   4.534  0.00  0.00    +0.520 C 
ATOM     17  OD1 ASN A  2        1.874   1.819   3.490  0.00  0.00    -0.550 OA
ATOM     18  ND2 ASN A  2        1.165   2.608   5.438  0.00  0.00    -0.860 N 
ATOM     19 HD21 ASN A  2        1.541   3.483   5.254  0.00  0.00    +0.400 HD
ATOM     20 HD22 ASN A  2        0.698   2.447   6.273  0.00  0.00    +0.400 HD
ENDBRANCH  15  16
ENDBRANCH  11  15
ENDBRANCH   2  11
TORSDOF 6
ENDMDL
MODEL     1081
REMARK  Name = ZINC000001575520
REMARK                            x       y       z     vdW  Elec       q    Type
REMARK                         _______ _______ _______ _____ _____    ______ ____
ROOT
ATOM      1  CA  LEU A  2       -0.042  -0.124   2.497  0.00  0.00    +0.240 C 
ENDROOT
BRANCH   1   2
ATOM      2  C   LEU A  2        0.746  -0.514   3.721  0.00  0.00    +0.500 C 
ATOM      3  N   GLY A  3        1.972   0.008   3.929  0.00  0.00    -0.680 N 
ATOM      4  H   GLY A  3        2.346   0.634   3.290  0.00  0.00    +0.410 HD
ATOM      5  O   LEU A  2        0.277  -1.297   4.520  0.00  0.00    -0.560 OA
BRANCH   3   6
ATOM      6  CA  GLY A  3        2.737  -0.372   5.118  0.00  0.00    +0.190 C 
BRANCH   6   7
ATOM      7  C   GLY A  3        4.063   0.345   5.112  0.00  0.00    +0.490 C 
ATOM      8  OXT GLY A  3        4.856   0.168   6.021  0.00  0.00    -0.680 OA
ATOM      9  O   GLY A  3        4.342   1.103   4.199  0.00  0.00    -0.690 OA
ENDBRANCH   6   7
ENDBRANCH   3   6
ENDBRANCH   1   2
BRANCH   1  10
ATOM     10  N   LEU A  2       -1.330  -0.821   2.503  0.00  0.00    -0.680 N 
ATOM     11  H   LEU A  2       -1.426  -1.658   2.983  0.00  0.00    +0.420 HD
ATOM     12  C   GLY A  1       -2.382  -0.298   1.842  0.00  0.00    +0.490 C 
ATOM     13  O   GLY A  1       -2.262   0.749   1.243  0.00  0.00    -0.520 OA
BRANCH  12  14
ATOM     14  CA  GLY A  1       -3.708  -1.015   1.848  0.00  0.00    +0.290 C 
BRANCH  14  15
ATOM     15  N   GLY A  1       -4.683  -0.247   1.063  0.00  0.00    -0.620 N 
ATOM     16  H1  GLY A  1       -4.795   0.670   1.469  0.00  0.00    +0.440 HD
ATOM     17  H2  GLY A  1       -5.571  -0.727   1.067  0.00  0.00    +0.440 HD
ATOM     18  H3  GLY A  1       -4.354  -0.157   0.113  0.00  0.00    +0.440 HD
ENDBRANCH  14  15
ENDBRANCH  12  14
ENDBRANCH   1  10
BRANCH   1  19
ATOM     19  CB  LEU A  2        0.742  -0.511   1.242  0.00  0.00    +0.040 C 
BRANCH  19  21
ATOM     20  CD1 LEU A  2       -0.019   1.526   0.010  0.00  0.00    +0.020 C 
ATOM     21  CG  LEU A  2        0.002  -0.004   0.002  0.00  0.00    -0.020 C 
ATOM     22  CD2 LEU A  2        0.718  -0.497  -1.257  0.00  0.00    +0.010 C 
ENDBRANCH  19  21
ENDBRANCH   1  19
TORSDOF 8
ENDMDL
MODEL     1082
REMARK  Name = ZINC000001575521
REMARK                            x       y       z     vdW  Elec       q    Type
REMARK                         _______ _______ _______ _____ _____    ______ ____
ROOT
ATOM      1  C   LEU A  1       -2.826  -2.559  -0.234  0.00  0.00    +0.500 C 
ATOM      2  N   GLY A  2       -3.329  -2.592  -1.484  0.00  0.00    -0.680 N 
ATOM      3  H   GLY A  2       -2.791  -2.287  -2.231  0.00  0.00    +0.420 HD
ATOM      4  O   LEU A  1       -3.498  -2.940   0.701  0.00  0.00    -0.530 OA
ENDROOT
BRANCH   1   5
ATOM      5  CA  LEU A  1       -1.428  -2.048   0.003  0.00  0.00    +0.180 C 
BRANCH   5   6
ATOM      6  N   LEU A  1       -0.940  -2.538   1.299  0.00  0.00    -0.620 N 
ATOM      7  H1  LEU A  1       -1.496  -2.138   2.040  0.00  0.00    +0.440 HD
ATOM      8  H2  LEU A  1        0.025  -2.268   1.419  0.00  0.00    +0.440 HD
ATOM      9  H3  LEU A  1       -1.014  -3.544   1.327  0.00  0.00    +0.440 HD
ENDBRANCH   5   6
BRANCH   5  10
ATOM     10  CB  LEU A  1       -1.439  -0.518   0.007  0.00  0.00    +0.080 C 
BRANCH  10  12
ATOM     11  CD1 LEU A  1        0.784  -0.381  -1.125  0.00  0.00    +0.020 C 
ATOM     12  CG  LEU A  1       -0.005   0.002   0.129  0.00  0.00    -0.030 C 
ATOM     13  CD2 LEU A  1       -0.025   1.525   0.274  0.00  0.00    +0.050 C 
ENDBRANCH  10  12
ENDBRANCH   5  10
ENDBRANCH   1   5
BRANCH   2  14
ATOM     14  CA  GLY A  2       -4.688  -3.089  -1.713  0.00  0.00    +0.310 C 
BRANCH  14  15
ATOM     15  C   GLY A  2       -5.005  -3.022  -3.185  0.00  0.00    +0.490 C 
ATOM     16  N   GLY A  3       -6.208  -3.430  -3.634  0.00  0.00    -0.680 N 
ATOM     17  H   GLY A  3       -6.870  -3.767  -3.010  0.00  0.00    +0.410 HD
ATOM     18  O   GLY A  2       -4.178  -2.600  -3.965  0.00  0.00    -0.560 OA
BRANCH  16  19
ATOM     19  CA  GLY A  3       -6.517  -3.364  -5.065  0.00  0.00    +0.190 C 
BRANCH  19  20
ATOM     20  C   GLY A  3       -7.915  -3.876  -5.301  0.00  0.00    +0.490 C 
ATOM     21  OXT GLY A  3       -8.370  -3.906  -6.432  0.00  0.00    -0.680 OA
ATOM     22  O   GLY A  3       -8.591  -4.259  -4.362  0.00  0.00    -0.690 OA
ENDBRANCH  19  20
ENDBRANCH  16  19
ENDBRANCH  14  15
ENDBRANCH   2  14
TORSDOF 8
ENDMDL
MODEL     1083
REMARK  Name = ZINC000001575501
REMARK                            x       y       z     vdW  Elec       q    Type
REMARK                         _______ _______ _______ _____ _____    ______ ____
ROOT
ATOM      1  C   ALA A  1       -1.412  -0.526   0.013  0.00  0.00    +0.500 C 
ATOM      2  N   GLY A  2       -2.125  -0.563  -1.130  0.00  0.00    -0.680 N 
ATOM      3  H   GLY A  2       -1.728  -0.253  -1.960  0.00  0.00    +0.420 HD
ATOM      4  O   ALA A  1       -1.908  -0.912   1.050  0.00  0.00    -0.530 OA
ENDROOT
BRANCH   1   6
ATOM      5  CB  ALA A  1       -0.019   1.526   0.010  0.00  0.00    +0.120 C 
ATOM      6  CA  ALA A  1        0.002  -0.004   0.002  0.00  0.00    +0.180 C 
BRANCH   6   7
ATOM      7  N   ALA A  1        0.713  -0.491   1.192  0.00  0.00    -0.620 N 
ATOM      8  H1  ALA A  1        0.726  -1.500   1.187  0.00  0.00    +0.440 HD
ATOM      9  H2  ALA A  1        0.240  -0.165   2.022  0.00  0.00    +0.440 HD
ATOM     10  H3  ALA A  1        1.659  -0.141   1.185  0.00  0.00    +0.440 HD
ENDBRANCH   6   7
ENDBRANCH   1   6
BRANCH   2  11
ATOM     11  CA  GLY A  2       -3.499  -1.070  -1.120  0.00  0.00    +0.310 C 
BRANCH  11  12
ATOM     12  C   GLY A  2       -4.069  -1.005  -2.513  0.00  0.00    +0.490 C 
ATOM     13  N   GLY A  3       -5.330  -1.422  -2.746  0.00  0.00    -0.680 N 
ATOM     14  H   GLY A  3       -5.870  -1.764  -2.017  0.00  0.00    +0.410 HD
ATOM     15  O   GLY A  2       -3.394  -0.577  -3.425  0.00  0.00    -0.560 OA
BRANCH  13  16
ATOM     16  CA  GLY A  3       -5.884  -1.359  -4.101  0.00  0.00    +0.190 C 
BRANCH  16  17
ATOM     17  C   GLY A  3       -7.298  -1.880  -4.090  0.00  0.00    +0.490 C 
ATOM     18  OXT GLY A  3       -7.943  -1.914  -5.124  0.00  0.00    -0.680 OA
ATOM     19  O   GLY A  3       -7.796  -2.269  -3.047  0.00  0.00    -0.690 OA
ENDBRANCH  16  17
ENDBRANCH  13  16
ENDBRANCH  11  12
ENDBRANCH   2  11
TORSDOF 6
ENDMDL
MODEL     1084
REMARK  Name = ZINC000001575555
REMARK                            x       y       z     vdW  Elec       q    Type
REMARK                         _______ _______ _______ _____ _____    ______ ____
ROOT
ATOM      1  C   ALA A  1        0.707  -0.490  -1.238  0.00  0.00    +0.500 C 
ATOM      2  N   ASN A  2        0.231  -0.164  -2.456  0.00  0.00    -0.650 N 
ATOM      3  H   ASN A  2       -0.566   0.383  -2.534  0.00  0.00    +0.400 HD
ATOM      4  O   ALA A  1        1.704  -1.174  -1.140  0.00  0.00    -0.540 OA
ENDROOT
BRANCH   1   6
ATOM      5  CB  ALA A  1       -0.019   1.526   0.010  0.00  0.00    +0.120 C 
ATOM      6  CA  ALA A  1        0.002  -0.004   0.002  0.00  0.00    +0.170 C 
BRANCH   6   7
ATOM      7  N   ALA A  1        0.713  -0.491   1.192  0.00  0.00    -0.620 N 
ATOM      8  H1  ALA A  1        1.659  -0.141   1.185  0.00  0.00    +0.440 HD
ATOM      9  H2  ALA A  1        0.726  -1.500   1.187  0.00  0.00    +0.440 HD
ATOM     10  H3  ALA A  1        0.240  -0.165   2.022  0.00  0.00    +0.430 HD
ENDBRANCH   6   7
ENDBRANCH   1   6
BRANCH   2  11
ATOM     11  CA  ASN A  2        0.917  -0.637  -3.661  0.00  0.00    +0.190 C 
BRANCH  11  12
ATOM     12  C   ASN A  2        0.434  -2.023  -4.003  0.00  0.00    +0.490 C 
ATOM     13  OXT ASN A  2        1.006  -2.673  -4.861  0.00  0.00    -0.680 OA
ATOM     14  O   ASN A  2       -0.527  -2.494  -3.420  0.00  0.00    -0.690 OA
ENDBRANCH  11  12
BRANCH  11  15
ATOM     15  CB  ASN A  2        0.614   0.310  -4.824  0.00  0.00    +0.080 C 
BRANCH  15  16
ATOM     16  CG  ASN A  2        1.204   1.666  -4.535  0.00  0.00    +0.520 C 
ATOM     17  OD1 ASN A  2        1.808   1.857  -3.501  0.00  0.00    -0.550 OA
ATOM     18  ND2 ASN A  2        1.061   2.667  -5.427  0.00  0.00    -0.860 N 
ATOM     19 HD21 ASN A  2        1.441   3.540  -5.241  0.00  0.00    +0.400 HD
ATOM     20 HD22 ASN A  2        0.578   2.514  -6.254  0.00  0.00    +0.400 HD
ENDBRANCH  15  16
ENDBRANCH  11  15
ENDBRANCH   2  11
TORSDOF 6
ENDMDL
MODEL     1085
REMARK  Name = ZINC000001575553
REMARK                            x       y       z     vdW  Elec       q    Type
REMARK                         _______ _______ _______ _____ _____    ______ ____
ROOT
ATOM      1  C   ALA A  1        0.707  -0.490  -1.238  0.00  0.00    +0.500 C 
ATOM      2  N   ASN A  2        0.231  -0.164  -2.456  0.00  0.00    -0.650 N 
ATOM      3  H   ASN A  2       -0.566   0.383  -2.534  0.00  0.00    +0.400 HD
ATOM      4  O   ALA A  1        1.704  -1.174  -1.140  0.00  0.00    -0.540 OA
ENDROOT
BRANCH   1   6
ATOM      5  CB  ALA A  1       -0.019   1.526   0.010  0.00  0.00    +0.110 C 
ATOM      6  CA  ALA A  1        0.002  -0.004   0.002  0.00  0.00    +0.170 C 
BRANCH   6   7
ATOM      7  N   ALA A  1        0.713  -0.491   1.192  0.00  0.00    -0.620 N 
ATOM      8  H1  ALA A  1        1.659  -0.141   1.185  0.00  0.00    +0.440 HD
ATOM      9  H2  ALA A  1        0.726  -1.500   1.187  0.00  0.00    +0.440 HD
ATOM     10  H3  ALA A  1        0.240  -0.165   2.022  0.00  0.00    +0.440 HD
ENDBRANCH   6   7
ENDBRANCH   1   6
BRANCH   2  11
ATOM     11  CA  ASN A  2        0.917  -0.637  -3.661  0.00  0.00    +0.190 C 
BRANCH  11  12
ATOM     12  C   ASN A  2        2.037   0.310  -4.005  0.00  0.00    +0.490 C 
ATOM     13  OXT ASN A  2        1.946   1.492  -3.720  0.00  0.00    -0.690 OA
ATOM     14  O   ASN A  2        3.035  -0.105  -4.570  0.00  0.00    -0.670 OA
ENDBRANCH  11  12
BRANCH  11  15
ATOM     15  CB  ASN A  2       -0.077  -0.695  -4.823  0.00  0.00    +0.080 C 
BRANCH  15  16
ATOM     16  CG  ASN A  2       -1.131  -1.732  -4.532  0.00  0.00    +0.520 C 
ATOM     17  OD1 ASN A  2       -1.091  -2.363  -3.496  0.00  0.00    -0.550 OA
ATOM     18  ND2 ASN A  2       -2.117  -1.960  -5.421  0.00  0.00    -0.860 N 
ATOM     19 HD21 ASN A  2       -2.795  -2.627  -5.234  0.00  0.00    +0.400 HD
ATOM     20 HD22 ASN A  2       -2.149  -1.456  -6.249  0.00  0.00    +0.400 HD
ENDBRANCH  15  16
ENDBRANCH  11  15
ENDBRANCH   2  11
TORSDOF 6
ENDMDL
MODEL     1086
REMARK  Name = ZINC000001580038
REMARK                            x       y       z     vdW  Elec       q    Type
REMARK                         _______ _______ _______ _____ _____    ______ ____
ROOT
ATOM      1  C   THR A  1       -1.414  -2.036   0.129  0.00  0.00    +0.510 C 
ATOM      2  N   GLY A  2       -1.178  -2.793  -0.962  0.00  0.00    -0.680 N 
ATOM      3  H   GLY A  2       -1.022  -2.370  -1.821  0.00  0.00    +0.420 HD
ATOM      4  O   THR A  1       -1.609  -2.564   1.202  0.00  0.00    -0.520 OA
ENDROOT
BRANCH   1   5
ATOM      5  CA  THR A  1       -1.433  -0.534   0.013  0.00  0.00    +0.150 C 
BRANCH   5   6
ATOM      6  N   THR A  1       -2.157   0.036   1.157  0.00  0.00    -0.620 N 
ATOM      7  H1  THR A  1       -3.103  -0.313   1.165  0.00  0.00    +0.450 HD
ATOM      8  H2  THR A  1       -2.170   1.042   1.080  0.00  0.00    +0.440 HD
ATOM      9  H3  THR A  1       -1.694  -0.229   2.014  0.00  0.00    +0.440 HD
ENDBRANCH   5   6
BRANCH   5  11
ATOM     10  CG2 THR A  1       -0.019   1.526   0.010  0.00  0.00    +0.040 C 
ATOM     11  CB  THR A  1        0.002  -0.004   0.002  0.00  0.00    +0.240 C 
BRANCH  11  12
ATOM     12  OG1 THR A  1        0.693  -0.477   1.160  0.00  0.00    -0.530 OA
ATOM     13  HG1 THR A  1        0.294  -0.202   1.996  0.00  0.00    +0.370 HD
ENDBRANCH  11  12
ENDBRANCH   5  11
ENDBRANCH   1   5
BRANCH   2  14
ATOM     14  CA  GLY A  2       -1.159  -4.253  -0.849  0.00  0.00    +0.320 C 
BRANCH  14  15
ATOM     15  C   GLY A  2       -0.877  -4.857  -2.201  0.00  0.00    +0.490 C 
ATOM     16  N   GLY A  3       -0.812  -6.196  -2.340  0.00  0.00    -0.680 N 
ATOM     17  H   GLY A  3       -0.947  -6.771  -1.571  0.00  0.00    +0.410 HD
ATOM     18  O   GLY A  2       -0.709  -4.139  -3.163  0.00  0.00    -0.560 OA
BRANCH  16  19
ATOM     19  CA  GLY A  3       -0.538  -6.784  -3.654  0.00  0.00    +0.190 C 
BRANCH  19  20
ATOM     20  C   GLY A  3       -0.518  -8.286  -3.538  0.00  0.00    +0.490 C 
ATOM     21  OXT GLY A  3       -0.305  -8.971  -4.525  0.00  0.00    -0.680 OA
ATOM     22  O   GLY A  3       -0.715  -8.817  -2.459  0.00  0.00    -0.690 OA
ENDBRANCH  19  20
ENDBRANCH  16  19
ENDBRANCH  14  15
ENDBRANCH   2  14
TORSDOF 8
ENDMDL
MODEL     1087
REMARK  Name = ZINC000001589437
REMARK                            x       y       z     vdW  Elec       q    Type
REMARK                         _______ _______ _______ _____ _____    ______ ____
ROOT
ATOM      1  CA  HIS A  1       -0.699   1.479   1.216  0.00  0.00    +0.180 C 
ENDROOT
BRANCH   1   2
ATOM      2  N   HIS A  1       -0.012   1.005   0.008  0.00  0.00    -0.620 N 
ATOM      3  H1  HIS A  1       -0.500   1.339  -0.810  0.00  0.00    +0.430 HD
ATOM      4  H2  HIS A  1        0.935   1.354   0.000  0.00  0.00    +0.440 HD
ATOM      5  H3  HIS A  1        0.002  -0.004   0.002  0.00  0.00    +0.440 HD
ENDBRANCH   1   2
BRANCH   1   6
ATOM      6  C   HIS A  1        0.030   0.979   2.437  0.00  0.00    +0.490 C 
ATOM      7  N   SER A  2       -0.150   1.589   3.626  0.00  0.00    -0.650 N 
ATOM      8  H   SER A  2       -0.749   2.349   3.695  0.00  0.00    +0.410 HD
ATOM      9  O   HIS A  1        0.778   0.029   2.350  0.00  0.00    -0.530 OA
BRANCH   7  10
ATOM     10  CA  SER A  2        0.558   1.103   4.812  0.00  0.00    +0.160 C 
BRANCH  10  11
ATOM     11  C   SER A  2       -0.221  -0.025   5.436  0.00  0.00    +0.500 C 
ATOM     12  OXT SER A  2       -1.436  -0.056   5.336  0.00  0.00    -0.670 OA
ATOM     13  O   SER A  2        0.363  -0.908   6.042  0.00  0.00    -0.680 OA
ENDBRANCH  10  11
BRANCH  10  14
ATOM     14  CB  SER A  2        0.702   2.244   5.823  0.00  0.00    +0.190 C 
BRANCH  14  15
ATOM     15  OG  SER A  2       -0.592   2.634   6.288  0.00  0.00    -0.550 OA
ATOM     16  H   SER A  2       -0.578   3.354   6.933  0.00  0.00    +0.370 HD
ENDBRANCH  14  15
ENDBRANCH  10  14
ENDBRANCH   7  10
ENDBRANCH   1   6
BRANCH   1  17
ATOM     17  CB  HIS A  1       -2.135   0.949   1.227  0.00  0.00    +0.210 C 
BRANCH  17  18
ATOM     18  CG  HIS A  1       -2.899   1.546   0.074  0.00  0.00    -0.080 A 
ATOM     19  CD2 HIS A  1       -3.524   2.739   0.056  0.00  0.00    +0.200 A 
ATOM     20  NE2 HIS A  1       -4.083   2.897  -1.153  0.00  0.00    -0.490 NA
ATOM     21  CE1 HIS A  1       -3.828   1.847  -1.885  0.00  0.00    +0.430 A 
ATOM     22  ND1 HIS A  1       -3.087   0.983  -1.160  0.00  0.00    -0.580 N 
ATOM     23  HD1 HIS A  1       -2.755   0.120  -1.455  0.00  0.00    +0.420 HD
ENDBRANCH  17  18
ENDBRANCH   1  17
TORSDOF 8
ENDMDL
MODEL     1088
REMARK  Name = ZINC000067870493
REMARK                            x       y       z     vdW  Elec       q    Type
REMARK                         _______ _______ _______ _____ _____    ______ ____
ROOT
ATOM      1  N   LIG    1       -0.587  -4.091  -1.815  0.00  0.00    -0.510 N 
ATOM      2  C   LIG    1       -0.180  -4.593  -3.023  0.00  0.00    +0.390 A 
ATOM      3  C   LIG    1       -0.092  -5.929  -3.196  0.00  0.00    -0.220 A 
ATOM      4  C   LIG    1       -0.424  -6.787  -2.118  0.00  0.00    +0.560 A 
ATOM      5  N   LIG    1       -0.820  -6.253  -0.945  0.00  0.00    -0.650 N 
ATOM      6  H   LIG    1       -1.049  -6.834  -0.203  0.00  0.00    +0.440 HD
ATOM      7  O   LIG    1       -0.352  -7.995  -2.250  0.00  0.00    -0.490 OA
ATOM      8 CL   LIG    1        0.421  -6.587  -4.718  0.00  0.00    +0.000 Cl
ATOM      9  C   LIG    1       -0.893  -4.917  -0.798  0.00  0.00    +0.700 A 
ATOM     10  O   LIG    1       -1.252  -4.450   0.266  0.00  0.00    -0.530 OA
ENDROOT
BRANCH   1  11
ATOM     11  C   LIG    1       -0.682  -2.641  -1.627  0.00  0.00    +0.370 C 
BRANCH  11  12
ATOM     12  C   LIG    1        0.657  -2.104  -1.120  0.00  0.00    +0.210 C 
BRANCH  12  13
ATOM     13  N   LIG    1        1.727  -2.505  -2.043  0.00  0.00    -0.810 NA
ATOM     14  H   LIG    1        2.630  -2.217  -1.697  0.00  0.00    +0.360 HD
ATOM     15  H   LIG    1        1.562  -2.140  -2.969  0.00  0.00    +0.350 HD
ENDBRANCH  12  13
BRANCH  12  16
ATOM     16  C   LIG    1        0.598  -0.600  -1.043  0.00  0.00    +0.430 C 
ATOM     17  O   LIG    1        1.088   0.070  -1.921  0.00  0.00    -0.500 OA
BRANCH  16  19
ATOM     18  C   LIG    1       -0.018   1.448   0.010  0.00  0.00    +0.270 C 
ATOM     19  O   LIG    1        0.002  -0.004   0.002  0.00  0.00    -0.350 OA
ENDBRANCH  16  19
ENDBRANCH  12  16
ENDBRANCH  11  12
ENDBRANCH   1  11
TORSDOF 5
ENDMDL
MODEL     1089
REMARK  Name = ZINC000001590503
REMARK                            x       y       z     vdW  Elec       q    Type
REMARK                         _______ _______ _______ _____ _____    ______ ____
ROOT
ATOM      1  N   LIG    1       -4.333   1.304   2.778  0.00  0.00    -0.380 N 
ATOM      2  H   LIG    1       -4.126   0.317   2.746  0.00  0.00    +0.440 HD
ENDROOT
BRANCH   1   3
ATOM      3  C   LIG    1       -3.078   2.066   2.830  0.00  0.00    +0.220 C 
BRANCH   3   4
ATOM      4  C   LIG    1       -2.210   1.540   3.975  0.00  0.00    +0.240 C 
BRANCH   4   5
ATOM      5  O   LIG    1       -2.826   1.859   5.225  0.00  0.00    -0.530 OA
ATOM      6  H   LIG    1       -2.950   2.806   5.372  0.00  0.00    +0.390 HD
ENDBRANCH   4   5
BRANCH   4   7
ATOM      7  C   LIG    1       -0.827   2.192   3.908  0.00  0.00    -0.480 C 
BRANCH   7   9
ATOM      8  O   LIG    1       -0.343   1.694   6.482  0.00  0.00    -1.040 OA
ATOM      9  S   LIG    1        0.248   1.461   5.173  0.00  0.00    +2.630 S 
ATOM     10  O   LIG    1        0.363   0.033   4.923  0.00  0.00    -1.050 OA
ATOM     11  O   LIG    1        1.557   2.091   5.096  0.00  0.00    -1.050 OA
ENDBRANCH   7   9
ENDBRANCH   4   7
ENDBRANCH   3   4
ENDBRANCH   1   3
BRANCH   1  12
ATOM     12  C   LIG    1       -5.087   1.685   1.576  0.00  0.00    +0.270 C 
BRANCH  12  13
ATOM     13  C   LIG    1       -4.314   1.249   0.329  0.00  0.00    +0.210 C 
BRANCH  13  14
ATOM     14  O   LIG    1       -4.238  -0.178   0.292  0.00  0.00    -0.580 OA
ATOM     15  H   LIG    1       -3.760  -0.526  -0.473  0.00  0.00    +0.410 HD
ENDBRANCH  13  14
ENDBRANCH  12  13
ENDBRANCH   1  12
BRANCH   1  16
ATOM     16  C   LIG    1       -5.135   1.599   3.973  0.00  0.00    +0.270 C 
BRANCH  16  17
ATOM     17  C   LIG    1       -6.409   0.751   3.953  0.00  0.00    +0.200 C 
BRANCH  17  18
ATOM     18  O   LIG    1       -6.063  -0.631   4.061  0.00  0.00    -0.570 OA
ATOM     19  H   LIG    1       -6.823  -1.228   4.056  0.00  0.00    +0.400 HD
ENDBRANCH  17  18
ENDBRANCH  16  17
ENDBRANCH   1  16
TORSDOF 11
ENDMDL
MODEL     1090
REMARK  Name = ZINC000001611594
REMARK                            x       y       z     vdW  Elec       q    Type
REMARK                         _______ _______ _______ _____ _____    ______ ____
ROOT
ATOM      1  N   LIG    1       -4.356   1.438   2.845  0.00  0.00    -0.500 N 
ATOM      2  H   LIG    1       -4.337   0.429   2.830  0.00  0.00    +0.430 HD
ATOM      3  H   LIG    1       -4.858   1.778   2.039  0.00  0.00    +0.430 HD
ENDROOT
BRANCH   1   4
ATOM      4  C   LIG    1       -2.981   1.955   2.820  0.00  0.00    +0.250 C 
BRANCH   4   5
ATOM      5  C   LIG    1       -2.280   1.478   1.546  0.00  0.00    +0.080 C 
BRANCH   5   6
ATOM      6  C   LIG    1       -0.848   2.016   1.520  0.00  0.00    -0.460 C 
BRANCH   6   8
ATOM      7  O   LIG    1        0.002  -0.004   0.002  0.00  0.00    -1.060 OA
ATOM      8  S   LIG    1       -0.018   1.450   0.010  0.00  0.00    +2.630 S 
ATOM      9  O   LIG    1       -0.752   1.947  -1.143  0.00  0.00    -1.060 OA
ATOM     10  O   LIG    1        1.341   1.970  -0.000  0.00  0.00    -1.050 OA
ENDBRANCH   6   8
ENDBRANCH   5   6
ENDBRANCH   4   5
ENDBRANCH   1   4
BRANCH   1  11
ATOM     11  C   LIG    1       -5.029   1.896   4.069  0.00  0.00    +0.070 C 
BRANCH  11  12
ATOM     12  C   LIG    1       -6.461   1.358   4.095  0.00  0.00    +0.230 C 
BRANCH  12  13
ATOM     13  O   LIG    1       -7.115   1.803   5.285  0.00  0.00    -0.560 OA
ATOM     14  H   LIG    1       -8.029   1.499   5.368  0.00  0.00    +0.400 HD
ENDBRANCH  12  13
ENDBRANCH  11  12
BRANCH  11  15
ATOM     15  C   LIG    1       -5.058   3.425   4.093  0.00  0.00    +0.240 C 
BRANCH  15  16
ATOM     16  O   LIG    1       -5.768   3.906   2.950  0.00  0.00    -0.570 OA
ATOM     17  H   LIG    1       -5.827   4.870   2.900  0.00  0.00    +0.410 HD
ENDBRANCH  15  16
ENDBRANCH  11  15
BRANCH  11  18
ATOM     18  C   LIG    1       -4.268   1.381   5.292  0.00  0.00    +0.240 C 
BRANCH  18  19
ATOM     19  O   LIG    1       -4.140  -0.040   5.210  0.00  0.00    -0.580 OA
ATOM     20  H   LIG    1       -3.667  -0.435   5.955  0.00  0.00    +0.410 HD
ENDBRANCH  18  19
ENDBRANCH  11  18
ENDBRANCH   1  11
TORSDOF 11
ENDMDL
MODEL     1091
REMARK  Name = ZINC000001637985
REMARK                            x       y       z     vdW  Elec       q    Type
REMARK                         _______ _______ _______ _____ _____    ______ ____
ROOT
ATOM      1  CA  ALA A  2       -3.499  -1.070  -1.120  0.00  0.00    +0.240 C 
ATOM      2  CB  ALA A  2       -3.482  -2.594  -1.254  0.00  0.00    +0.070 C 
ENDROOT
BRANCH   1   4
ATOM      3  C   ALA A  1       -1.412  -0.526   0.013  0.00  0.00    +0.500 C 
ATOM      4  N   ALA A  2       -2.125  -0.563  -1.130  0.00  0.00    -0.680 N 
ATOM      5  H   ALA A  2       -1.728  -0.253  -1.960  0.00  0.00    +0.420 HD
ATOM      6  O   ALA A  1       -1.908  -0.912   1.050  0.00  0.00    -0.530 OA
BRANCH   3   8
ATOM      7  CB  ALA A  1       -0.019   1.526   0.010  0.00  0.00    +0.130 C 
ATOM      8  CA  ALA A  1        0.002  -0.004   0.002  0.00  0.00    +0.180 C 
BRANCH   8   9
ATOM      9  N   ALA A  1        0.713  -0.491   1.192  0.00  0.00    -0.620 N 
ATOM     10  H1  ALA A  1        1.659  -0.141   1.185  0.00  0.00    +0.440 HD
ATOM     11  H2  ALA A  1        0.726  -1.500   1.187  0.00  0.00    +0.440 HD
ATOM     12  H3  ALA A  1        0.240  -0.165   2.022  0.00  0.00    +0.440 HD
ENDBRANCH   8   9
ENDBRANCH   3   8
ENDBRANCH   1   4
BRANCH   1  13
ATOM     13  C   ALA A  2       -4.264  -0.473  -2.273  0.00  0.00    +0.500 C 
ATOM     14  N   ALA A  3       -5.558  -0.798  -2.464  0.00  0.00    -0.680 N 
ATOM     15  H   ALA A  3       -5.997  -1.416  -1.859  0.00  0.00    +0.410 HD
ATOM     16  O   ALA A  2       -3.715   0.300  -3.030  0.00  0.00    -0.560 OA
BRANCH  14  17
ATOM     17  CA  ALA A  3       -6.301  -0.217  -3.586  0.00  0.00    +0.160 C 
ATOM     18  CB  ALA A  3       -6.857   1.148  -3.177  0.00  0.00    +0.020 C 
BRANCH  17  19
ATOM     19  C   ALA A  3       -7.439  -1.131  -3.961  0.00  0.00    +0.490 C 
ATOM     20  OXT ALA A  3       -8.072  -0.929  -4.983  0.00  0.00    -0.680 OA
ATOM     21  O   ALA A  3       -7.727  -2.073  -3.241  0.00  0.00    -0.690 OA
ENDBRANCH  17  19
ENDBRANCH  14  17
ENDBRANCH   1  13
TORSDOF 6
ENDMDL
MODEL     1092
REMARK  Name = ZINC000001642845
REMARK                            x       y       z     vdW  Elec       q    Type
REMARK                         _______ _______ _______ _____ _____    ______ ____
ROOT
ATOM      1  C   LIG    1        0.002  -0.004   0.002  0.00  0.00    +0.510 A 
ATOM      2  N   LIG    1       -1.135  -0.687   0.004  0.00  0.00    -0.610 NA
ATOM      3  C   LIG    1       -1.129  -2.018  -0.004  0.00  0.00    +0.660 A 
ATOM      4  N   LIG    1        0.026  -2.708  -0.014  0.00  0.00    -0.530 N 
ATOM      5  C   LIG    1        1.220  -2.050  -0.016  0.00  0.00    +0.390 A 
ATOM      6  O   LIG    1       -2.189  -2.623  -0.003  0.00  0.00    -0.540 OA
ATOM      7  C   LIG    1        1.230  -0.697  -0.013  0.00  0.00    -0.150 A 
ENDROOT
BRANCH   4   8
ATOM      8  C   LIG    1        0.001  -4.173  -0.023  0.00  0.00    +0.390 C 
ATOM      9  C   LIG    1       -0.656  -4.724   1.267  0.00  0.00    +0.230 C 
ATOM     10  O   LIG    1       -0.057  -6.027   1.408  0.00  0.00    -0.370 OA
ATOM     11  C   LIG    1        1.168  -6.016   0.662  0.00  0.00    +0.350 C 
ATOM     12  O   LIG    1        1.340  -4.715   0.074  0.00  0.00    -0.380 OA
BRANCH  11  13
ATOM     13  C   LIG    1        2.342  -6.313   1.597  0.00  0.00    +0.200 C 
BRANCH  13  14
ATOM     14  O   LIG    1        2.380  -5.337   2.640  0.00  0.00    -0.560 OA
ATOM     15  H   LIG    1        3.101  -5.465   3.272  0.00  0.00    +0.380 HD
ENDBRANCH  13  14
ENDBRANCH  11  13
ENDBRANCH   4   8
BRANCH   1  16
ATOM     16  N   LIG    1       -0.017   1.371   0.010  0.00  0.00    -0.810 N 
ATOM     17  H   LIG    1       -0.863   1.845   0.016  0.00  0.00    +0.410 HD
ATOM     18  H   LIG    1        0.817   1.868   0.004  0.00  0.00    +0.420 HD
ENDBRANCH   1  16
TORSDOF 4
ENDMDL
MODEL     1093
REMARK  Name = ZINC000001659810
REMARK                            x       y       z     vdW  Elec       q    Type
REMARK                         _______ _______ _______ _____ _____    ______ ____
ROOT
ATOM      1  N   LIG    1       -2.871   1.858   2.963  0.00  0.00    -0.380 N 
ATOM      2  H   LIG    1       -2.413   1.821   3.861  0.00  0.00    +0.440 HD
ENDROOT
BRANCH   1   3
ATOM      3  C   LIG    1       -2.026   1.203   1.955  0.00  0.00    +0.290 C 
BRANCH   3   4
ATOM      4  C   LIG    1       -0.637   1.844   1.960  0.00  0.00    -0.460 C 
BRANCH   4   6
ATOM      5  O   LIG    1        0.515  -0.379   1.043  0.00  0.00    -1.040 OA
ATOM      6  S   LIG    1        0.406   1.034   0.716  0.00  0.00    +2.630 S 
ATOM      7  O   LIG    1       -0.209   1.200  -0.592  0.00  0.00    -1.050 OA
ATOM      8  O   LIG    1        1.722   1.654   0.732  0.00  0.00    -1.040 OA
ENDBRANCH   4   6
ENDBRANCH   3   4
ENDBRANCH   1   3
BRANCH   1   9
ATOM      9  C   LIG    1       -4.164   1.166   3.042  0.00  0.00    +0.260 C 
BRANCH   9  10
ATOM     10  C   LIG    1       -3.952  -0.250   3.581  0.00  0.00    +0.210 C 
BRANCH  10  11
ATOM     11  O   LIG    1       -3.450  -0.181   4.918  0.00  0.00    -0.580 OA
ATOM     12  H   LIG    1       -3.220  -1.041   5.296  0.00  0.00    +0.410 HD
ENDBRANCH  10  11
ENDBRANCH   9  10
ENDBRANCH   1   9
BRANCH   1  13
ATOM     13  C   LIG    1       -3.088   3.260   2.582  0.00  0.00    +0.270 C 
BRANCH  13  14
ATOM     14  C   LIG    1       -3.841   3.982   3.701  0.00  0.00    +0.210 C 
BRANCH  14  15
ATOM     15  O   LIG    1       -3.034   4.005   4.880  0.00  0.00    -0.580 OA
ATOM     16  H   LIG    1       -3.450   4.448   5.633  0.00  0.00    +0.400 HD
ENDBRANCH  14  15
ENDBRANCH  13  14
ENDBRANCH   1  13
TORSDOF 9
ENDMDL
MODEL     1094
REMARK  Name = ZINC000004096202
REMARK                            x       y       z     vdW  Elec       q    Type
REMARK                         _______ _______ _______ _____ _____    ______ ____
ROOT
ATOM      1  C   LIG    1        0.020  -2.136  -1.177  0.00  0.00    +0.210 C 
ATOM      2  C   LIG    1        1.448  -2.627  -1.082  0.00  0.00    +0.470 C 
ATOM      3  O   LIG    1        2.254  -2.447  -2.149  0.00  0.00    -0.350 OA
ATOM      4  C   LIG    1        1.721  -2.902  -3.425  0.00  0.00    +0.170 C 
ATOM      5  C   LIG    1        0.343  -2.272  -3.647  0.00  0.00    +0.170 C 
ATOM      6  O   LIG    1        1.855  -3.165  -0.079  0.00  0.00    -0.420 OA
ATOM      7  C   LIG    1       -0.584  -2.654  -2.488  0.00  0.00    +0.200 C 
ENDROOT
BRANCH   1  10
ATOM      8  C   LIG    1       -0.018   1.503   0.010  0.00  0.00    +0.110 C 
ATOM      9  C   LIG    1        0.002  -0.004   0.002  0.00  0.00    +0.510 C 
ATOM     10  N   LIG    1        0.000  -0.672  -1.169  0.00  0.00    -0.710 N 
ATOM     11  H   LIG    1       -0.015  -0.182  -2.006  0.00  0.00    +0.410 HD
ATOM     12  O   LIG    1        0.020  -0.616   1.049  0.00  0.00    -0.530 OA
ENDBRANCH   1  10
BRANCH   5  13
ATOM     13  O   LIG    1       -0.207  -2.751  -4.876  0.00  0.00    -0.530 OA
ATOM     14  H   LIG    1        0.329  -2.545  -5.654  0.00  0.00    +0.380 HD
ENDBRANCH   5  13
BRANCH   7  15
ATOM     15  O   LIG    1       -1.871  -2.066  -2.691  0.00  0.00    -0.540 OA
ATOM     16  H   LIG    1       -2.509  -2.267  -1.993  0.00  0.00    +0.390 HD
ENDBRANCH   7  15
BRANCH   4  17
ATOM     17  C   LIG    1        2.665  -2.480  -4.553  0.00  0.00    +0.220 C 
BRANCH  17  18
ATOM     18  O   LIG    1        3.916  -3.156  -4.404  0.00  0.00    -0.560 OA
ATOM     19  H   LIG    1        4.565  -2.936  -5.086  0.00  0.00    +0.390 HD
ENDBRANCH  17  18
ENDBRANCH   4  17
TORSDOF 5
ENDMDL
MODEL     1095
REMARK  Name = ZINC000101690246
REMARK                            x       y       z     vdW  Elec       q    Type
REMARK                         _______ _______ _______ _____ _____    ______ ____
ROOT
ATOM      1  C   LIG    1       -1.178  -0.705  -0.013  0.00  0.00    +0.060 C 
ATOM      2  C   LIG    1       -1.524  -2.062  -0.074  0.00  0.00    +0.050 C 
ATOM      3  C   LIG    1       -2.963  -1.785   0.045  0.00  0.00    +0.360 C 
ATOM      4  O   LIG    1       -3.989  -2.439   0.077  0.00  0.00    -0.410 OA
ATOM      5  C   LIG    1       -2.599  -0.349   0.115  0.00  0.00    +0.350 C 
ATOM      6  O   LIG    1       -3.219   0.691   0.229  0.00  0.00    -0.420 OA
ENDROOT
BRANCH   2   7
ATOM      7  N   LIG    1       -0.793  -3.216  -0.199  0.00  0.00    -0.580 N 
ATOM      8  C   LIG    1        0.675  -3.180  -0.155  0.00  0.00    +0.280 C 
ATOM      9  C   LIG    1        1.157  -4.138   0.942  0.00  0.00    +0.280 C 
ATOM     10  N   LIG    1        0.485  -5.433   0.762  0.00  0.00    -0.620 N 
ATOM     11  C   LIG    1       -0.984  -5.469   0.719  0.00  0.00    +0.270 C 
ATOM     12  C   LIG    1        1.203  -6.567   0.641  0.00  0.00    +0.630 C 
ATOM     13  O   LIG    1        0.638  -7.630   0.493  0.00  0.00    -0.550 OA
ATOM     14  C   LIG    1       -1.465  -4.512  -0.373  0.00  0.00    +0.290 C 
ENDBRANCH   2   7
BRANCH   1  16
ATOM     15  C   LIG    1       -0.008   1.450   0.159  0.00  0.00    +0.290 C 
ATOM     16  N   LIG    1       -0.001  -0.000  -0.052  0.00  0.00    -0.690 N 
ATOM     17  H   LIG    1        0.835  -0.462  -0.218  0.00  0.00    +0.400 HD
ENDBRANCH   1  16
TORSDOF 2
ENDMDL
MODEL     1096
REMARK  Name = ZINC000001712442
REMARK                            x       y       z     vdW  Elec       q    Type
REMARK                         _______ _______ _______ _____ _____    ______ ____
ROOT
ATOM      1  O   LIG    1        0.002  -0.004   0.002  0.00  0.00    -0.490 OA
ATOM      2  C   LIG    1       -0.014   1.208   0.009  0.00  0.00    +0.520 C 
ATOM      3  C   LIG    1       -1.337   1.928   0.031  0.00  0.00    +0.110 C 
ATOM      4  C   LIG    1       -1.184   3.284  -0.666  0.00  0.00    +0.110 C 
ATOM      5  C   LIG    1       -0.049   4.056   0.013  0.00  0.00    -0.110 C 
ATOM      6  C   LIG    1        1.203   3.222  -0.008  0.00  0.00    +0.540 C 
ATOM      7  O   LIG    1        2.284   3.771  -0.030  0.00  0.00    -0.480 OA
ATOM      8  C   LIG    1        0.195   5.368  -0.739  0.00  0.00    +0.110 C 
ATOM      9  C   LIG    1        1.250   6.178   0.021  0.00  0.00    +0.110 C 
ATOM     10  C   LIG    1        0.796   6.371   1.444  0.00  0.00    +0.520 C 
ATOM     11  N   LIG    1        0.007   5.472   2.052  0.00  0.00    -0.670 N 
ATOM     12  H   LIG    1       -0.255   5.630   2.972  0.00  0.00    +0.420 HD
ATOM     13  O   LIG    1        1.149   7.359   2.051  0.00  0.00    -0.490 OA
ATOM     14  C   LIG    1       -0.431   4.363   1.437  0.00  0.00    +0.540 C 
ATOM     15  O   LIG    1       -1.149   3.594   2.038  0.00  0.00    -0.480 OA
ATOM     16  N   LIG    1        1.146   1.881   0.001  0.00  0.00    -0.670 N 
ATOM     17  H   LIG    1        1.976   1.379  -0.005  0.00  0.00    +0.420 HD
ENDROOT
TORSDOF 0
ENDMDL
MODEL     1097
REMARK  Name = ZINC000001730669
REMARK                            x       y       z     vdW  Elec       q    Type
REMARK                         _______ _______ _______ _____ _____    ______ ____
ROOT
ATOM      1  SG  CYS A  1       -2.111  -0.860   1.366  0.00  0.00    -0.320 S 
ENDROOT
BRANCH   1   2
ATOM      2  CB  CYS A  1       -2.135   0.949   1.227  0.00  0.00    +0.160 C 
BRANCH   2   3
ATOM      3  CA  CYS A  1       -0.699   1.479   1.216  0.00  0.00    +0.110 C 
BRANCH   3   4
ATOM      4  N   CYS A  1       -0.012   1.005   0.008  0.00  0.00    -0.610 N 
ATOM      5  H1  CYS A  1       -0.500   1.339  -0.810  0.00  0.00    +0.430 HD
ATOM      6  H2  CYS A  1        0.935   1.354   0.000  0.00  0.00    +0.440 HD
ATOM      7  H3  CYS A  1        0.002  -0.004   0.002  0.00  0.00    +0.420 HD
ENDBRANCH   3   4
BRANCH   3   8
ATOM      8  C   CYS A  1       -0.720   2.985   1.224  0.00  0.00    +0.490 C 
ATOM      9  OXT CYS A  1       -1.079   3.585   2.223  0.00  0.00    -0.630 OA
ATOM     10  O   CYS A  1       -0.376   3.605   0.232  0.00  0.00    -0.660 OA
ENDBRANCH   3   8
ENDBRANCH   2   3
ENDBRANCH   1   2
BRANCH   1  11
ATOM     11  CB  CYS A  1       -3.872  -1.292   1.363  0.00  0.00    +0.160 C 
BRANCH  11  12
ATOM     12  CA  CYS A  1       -4.025  -2.810   1.476  0.00  0.00    +0.110 C 
BRANCH  12  13
ATOM     13  N   CYS A  1       -3.517  -3.258   2.780  0.00  0.00    -0.610 N 
ATOM     14  H1  CYS A  1       -2.543  -3.010   2.864  0.00  0.00    +0.420 HD
ATOM     15  H2  CYS A  1       -3.618  -4.259   2.855  0.00  0.00    +0.440 HD
ATOM     16  H3  CYS A  1       -4.043  -2.811   3.517  0.00  0.00    +0.430 HD
ENDBRANCH  12  13
BRANCH  12  17
ATOM     17  C   CYS A  1       -5.481  -3.180   1.350  0.00  0.00    +0.490 C 
ATOM     18  OXT CYS A  1       -6.090  -3.594   2.321  0.00  0.00    -0.660 OA
ATOM     19  O   CYS A  1       -6.048  -3.065   0.277  0.00  0.00    -0.630 OA
ENDBRANCH  12  17
ENDBRANCH  11  12
ENDBRANCH   1  11
TORSDOF 8
ENDMDL
MODEL     1098
REMARK  Name = ZINC000001758412
REMARK                            x       y       z     vdW  Elec       q    Type
REMARK                         _______ _______ _______ _____ _____    ______ ____
ROOT
ATOM      1  C   LIG    1       -1.680  -2.370  -2.915  0.00  0.00    +0.240 C 
ATOM      2  N   LIG    1       -0.899  -1.993  -4.106  0.00  0.00    -0.720 N 
ATOM      3  H   LIG    1       -0.628  -1.097  -4.362  0.00  0.00    +0.440 HD
ATOM      4  C   LIG    1       -0.634  -3.133  -4.769  0.00  0.00    +0.700 C 
ATOM      5  N   LIG    1       -1.145  -4.209  -4.160  0.00  0.00    -0.680 N 
ATOM      6  H   LIG    1       -1.057  -5.117  -4.491  0.00  0.00    +0.440 HD
ATOM      7  O   LIG    1       -0.002  -3.181  -5.806  0.00  0.00    -0.540 OA
ATOM      8  C   LIG    1       -1.803  -3.876  -3.028  0.00  0.00    +0.530 C 
ATOM      9  O   LIG    1       -2.369  -4.627  -2.262  0.00  0.00    -0.450 OA
ENDROOT
BRANCH   1  10
ATOM     10  C   LIG    1       -0.932  -1.985  -1.637  0.00  0.00    +0.090 C 
BRANCH  10  11
ATOM     11  C   LIG    1       -0.884  -0.460  -1.513  0.00  0.00    -0.360 C 
BRANCH  11  12
ATOM     12  S   LIG    1        0.002  -0.004   0.002  0.00  0.00    +2.620 S 
ATOM     13  O   LIG    1       -0.751  -0.371   1.150  0.00  0.00    -0.950 OA
ATOM     14  O   LIG    1        1.380  -0.335  -0.107  0.00  0.00    -0.950 OA
BRANCH  12  15
ATOM     15  N   LIG    1       -0.020   1.652   0.011  0.00  0.00    -1.250 NA
ATOM     16  H   LIG    1       -0.867   2.125   0.018  0.00  0.00    +0.420 HD
ATOM     17  H   LIG    1        0.813   2.148   0.006  0.00  0.00    +0.420 HD
ENDBRANCH  12  15
ENDBRANCH  11  12
ENDBRANCH  10  11
ENDBRANCH   1  10
TORSDOF 4
ENDMDL
MODEL     1099
REMARK  Name = ZINC000001842580
REMARK                            x       y       z     vdW  Elec       q    Type
REMARK                         _______ _______ _______ _____ _____    ______ ____
ROOT
ATOM      1  C5M   T A  1       -0.018   1.503   0.010  0.00  0.00    +0.140 C 
ATOM      2  C5    T A  1        0.002  -0.004   0.002  0.00  0.00    -0.260 A 
ATOM      3  C6    T A  1       -1.153  -0.704   0.004  0.00  0.00    +0.370 A 
ATOM      4  N1    T A  1       -1.116  -2.072  -0.004  0.00  0.00    -0.530 N 
ATOM      5  C2    T A  1        0.060  -2.726  -0.013  0.00  0.00    +0.700 A 
ATOM      6  N3    T A  1        1.226  -2.053  -0.016  0.00  0.00    -0.660 N 
ATOM      7  H3    T A  1        2.064  -2.540  -0.023  0.00  0.00    +0.430 HD
ATOM      8  O2    T A  1        0.069  -3.942  -0.020  0.00  0.00    -0.540 OA
ATOM      9  C4    T A  1        1.232  -0.705  -0.013  0.00  0.00    +0.550 A 
ATOM     10  O4    T A  1        2.287  -0.095  -0.016  0.00  0.00    -0.510 OA
ENDROOT
BRANCH   4  11
ATOM     11  C1*   T A  1       -2.369  -2.831  -0.002  0.00  0.00    +0.420 C 
ATOM     12  C2*   T A  1       -2.490  -3.686  -1.289  0.00  0.00    +0.010 C 
ATOM     13  C3*   T A  1       -4.023  -3.866  -1.415  0.00  0.00    +0.170 C 
ATOM     14  C4*   T A  1       -4.609  -2.714  -0.577  0.00  0.00    +0.190 C 
ATOM     15  O4*   T A  1       -3.503  -1.941  -0.076  0.00  0.00    -0.360 OA
BRANCH  13  16
ATOM     16  O3*   T A  1       -4.429  -3.753  -2.780  0.00  0.00    -0.550 OA
ATOM     17  H3*   T A  1       -4.043  -4.421  -3.363  0.00  0.00    +0.390 HD
ENDBRANCH  13  16
BRANCH  14  18
ATOM     18  C5*   T A  1       -5.507  -1.838  -1.453  0.00  0.00    +0.220 C 
BRANCH  18  19
ATOM     19  O5*   T A  1       -6.137  -0.843  -0.644  0.00  0.00    -0.570 OA
ATOM     20  H5*   T A  1       -6.723  -0.250  -1.135  0.00  0.00    +0.380 HD
ENDBRANCH  18  19
ENDBRANCH  14  18
ENDBRANCH   4  11
TORSDOF 4
ENDMDL
MODEL     1100
REMARK  Name = ZINC000006536259
REMARK                            x       y       z     vdW  Elec       q    Type
REMARK                         _______ _______ _______ _____ _____    ______ ____
ROOT
ATOM      1  C   LIG    1       -1.359   4.452   0.047  0.00  0.00    +0.110 A 
ATOM      2  C   LIG    1       -2.470   4.598  -0.787  0.00  0.00    +0.100 A 
ATOM      3  C   LIG    1       -3.195   5.768  -0.769  0.00  0.00    +0.100 A 
ATOM      4  C   LIG    1       -2.820   6.809   0.082  0.00  0.00    +0.110 A 
ATOM      5  C   LIG    1       -1.710   6.663   0.917  0.00  0.00    +0.100 A 
ATOM      6  C   LIG    1       -0.988   5.491   0.902  0.00  0.00    +0.100 A 
ENDROOT
BRANCH   1  10
ATOM      7  O   LIG    1        0.002  -0.004   0.002  0.00  0.00    -0.470 OA
ATOM      8  C   LIG    1       -0.015   1.216   0.009  0.00  0.00    +0.420 A 
ATOM      9  C   LIG    1       -1.143   2.062   0.030  0.00  0.00    +0.010 A 
ATOM     10  N   LIG    1       -0.635   3.284   0.030  0.00  0.00    -0.100 N 
ATOM     11  N   LIG    1        0.646   3.197   0.010  0.00  0.00    -0.190 NA
ATOM     12  O   LIG    1        1.039   2.052   0.003  0.00  0.00    +0.020 OA
ENDBRANCH   1  10
BRANCH   4  13
ATOM     13  N   LIG    1       -3.543   7.977   0.099  0.00  0.00    -0.100 N 
ATOM     14  C   LIG    1       -3.925   8.632   1.183  0.00  0.00    +0.010 A 
ATOM     15  C   LIG    1       -4.628   9.749   0.686  0.00  0.00    +0.420 A 
ATOM     16  O   LIG    1       -4.576   9.618  -0.652  0.00  0.00    +0.020 OA
ATOM     17  O   LIG    1       -5.164  10.638   1.327  0.00  0.00    -0.470 OA
ATOM     18  N   LIG    1       -3.956   8.617  -0.935  0.00  0.00    -0.190 NA
ENDBRANCH   4  13
TORSDOF 2
ENDMDL
MODEL     1101
REMARK  Name = ZINC000002042138
REMARK                            x       y       z     vdW  Elec       q    Type
REMARK                         _______ _______ _______ _____ _____    ______ ____
ROOT
ATOM      1  C   LIG    1       -1.680  -2.370  -2.915  0.00  0.00    +0.240 C 
ATOM      2  N   LIG    1       -3.109  -2.030  -2.802  0.00  0.00    -0.720 N 
ATOM      3  H   LIG    1       -3.486  -1.146  -2.675  0.00  0.00    +0.440 HD
ATOM      4  C   LIG    1       -3.788  -3.186  -2.908  0.00  0.00    +0.700 C 
ATOM      5  N   LIG    1       -2.981  -4.240  -3.076  0.00  0.00    -0.680 N 
ATOM      6  H   LIG    1       -3.291  -5.154  -3.171  0.00  0.00    +0.440 HD
ATOM      7  O   LIG    1       -5.000  -3.265  -2.856  0.00  0.00    -0.540 OA
ATOM      8  C   LIG    1       -1.681  -3.874  -3.100  0.00  0.00    +0.530 C 
ATOM      9  O   LIG    1       -0.719  -4.599  -3.237  0.00  0.00    -0.450 OA
ENDROOT
BRANCH   1  10
ATOM     10  C   LIG    1       -0.932  -1.985  -1.637  0.00  0.00    +0.090 C 
BRANCH  10  11
ATOM     11  C   LIG    1       -0.884  -0.460  -1.513  0.00  0.00    -0.370 C 
BRANCH  11  12
ATOM     12  S   LIG    1        0.002  -0.004   0.002  0.00  0.00    +2.620 S 
ATOM     13  O   LIG    1       -0.751  -0.371   1.150  0.00  0.00    -0.950 OA
ATOM     14  O   LIG    1        1.380  -0.335  -0.107  0.00  0.00    -0.950 OA
BRANCH  12  15
ATOM     15  N   LIG    1       -0.020   1.652   0.011  0.00  0.00    -1.250 NA
ATOM     16  H   LIG    1       -0.867   2.125   0.018  0.00  0.00    +0.420 HD
ATOM     17  H   LIG    1        0.813   2.148   0.006  0.00  0.00    +0.420 HD
ENDBRANCH  12  15
ENDBRANCH  11  12
ENDBRANCH  10  11
ENDBRANCH   1  10
TORSDOF 4
ENDMDL
MODEL     1102
REMARK  Name = ZINC000021984062
REMARK                            x       y       z     vdW  Elec       q    Type
REMARK                         _______ _______ _______ _____ _____    ______ ____
ROOT
ATOM      1  C1* LIG    1        0.085  -4.133  -0.021  0.00  0.00    +0.430 C 
ATOM      2  O4* LIG    1        0.933  -4.624   1.040  0.00  0.00    -0.350 OA
ATOM      3  C4* LIG    1        1.288  -5.969   0.651  0.00  0.00    +0.150 C 
ATOM      4  C3* LIG    1        1.550  -5.885  -0.869  0.00  0.00    +0.140 C 
ATOM      5  C2* LIG    1        0.738  -4.649  -1.323  0.00  0.00    +0.180 C 
ENDROOT
BRANCH   1   9
ATOM      6  C   LIG    1        0.002  -0.004   0.002  0.00  0.00    +0.630 A 
ATOM      7  N   LIG    1       -1.139  -0.678   0.004  0.00  0.00    -0.640 NA
ATOM      8  C   LIG    1       -1.126  -2.014  -0.004  0.00  0.00    +0.660 A 
ATOM      9  N   LIG    1        0.054  -2.668  -0.013  0.00  0.00    -0.540 N 
ATOM     10  C   LIG    1        1.207  -1.963  -0.014  0.00  0.00    +0.710 A 
ATOM     11  O   LIG    1       -2.173  -2.638  -0.002  0.00  0.00    -0.530 OA
ATOM     12  N   LIG    1        1.174  -0.654  -0.013  0.00  0.00    -0.610 NA
BRANCH   6  13
ATOM     13  N   LIG    1       -0.017   1.368   0.010  0.00  0.00    -0.790 N 
ATOM     14  H   LIG    1       -0.863   1.842   0.016  0.00  0.00    +0.420 HD
ATOM     15  H   LIG    1        0.817   1.865   0.004  0.00  0.00    +0.420 HD
ENDBRANCH   6  13
ENDBRANCH   1   9
BRANCH   4  16
ATOM     16  O3* LIG    1        2.943  -5.696  -1.127  0.00  0.00    -0.540 OA
ATOM     17  H3* LIG    1        3.503  -6.418  -0.809  0.00  0.00    +0.390 HD
ENDBRANCH   4  16
BRANCH   5  18
ATOM     18  O2* LIG    1        1.604  -3.657  -1.878  0.00  0.00    -0.540 OA
ATOM     19  H2* LIG    1        2.086  -3.950  -2.663  0.00  0.00    +0.400 HD
ENDBRANCH   5  18
BRANCH   3  20
ATOM     20  C5* LIG    1        2.551  -6.420   1.388  0.00  0.00    +0.210 C 
BRANCH  20  21
ATOM     21  O5* LIG    1        2.273  -6.533   2.785  0.00  0.00    -0.560 OA
ATOM     22  H5* LIG    1        3.031  -6.816   3.315  0.00  0.00    +0.390 HD
ENDBRANCH  20  21
ENDBRANCH   3  20
TORSDOF 6
ENDMDL
MODEL     1103
REMARK  Name = ZINC000002165129
REMARK                            x       y       z     vdW  Elec       q    Type
REMARK                         _______ _______ _______ _____ _____    ______ ____
ROOT
ATOM      1  C   LIG    1        1.692  -0.503  -0.017  0.00  0.00    -0.700 A 
ATOM      2  C   LIG    1        2.345  -0.686  -1.221  0.00  0.00    +0.240 A 
ATOM      3  C   LIG    1        3.671  -1.077  -1.236  0.00  0.00    -0.700 A 
ATOM      4  C   LIG    1        4.344  -1.284  -0.046  0.00  0.00    +0.190 A 
ATOM      5  C   LIG    1        3.691  -1.100   1.158  0.00  0.00    -0.010 A 
ATOM      6  C   LIG    1        2.366  -0.705   1.173  0.00  0.00    +0.190 A 
ENDROOT
BRANCH   1   7
ATOM      7  S   LIG    1        0.002  -0.004   0.002  0.00  0.00    +2.700 S 
ATOM      8  O   LIG    1       -0.549  -0.406  -1.245  0.00  0.00    -0.950 OA
ATOM      9  O   LIG    1       -0.525  -0.419   1.255  0.00  0.00    -0.960 OA
BRANCH   7  10
ATOM     10  N   LIG    1       -0.020   1.652   0.011  0.00  0.00    -1.250 NA
ATOM     11  H   LIG    1       -0.867   2.125   0.018  0.00  0.00    +0.420 HD
ATOM     12  H   LIG    1        0.813   2.148   0.006  0.00  0.00    +0.420 HD
ENDBRANCH   7  10
ENDBRANCH   1   7
BRANCH   3  13
ATOM     13  S   LIG    1        4.503  -1.312  -2.771  0.00  0.00    +2.700 S 
ATOM     14  O   LIG    1        3.495  -1.576  -3.738  0.00  0.00    -0.950 OA
ATOM     15  O   LIG    1        5.582  -2.200  -2.511  0.00  0.00    -0.960 OA
BRANCH  13  16
ATOM     16  N   LIG    1        5.182   0.140  -3.188  0.00  0.00    -1.250 NA
ATOM     17  H   LIG    1        4.763   0.969  -2.909  0.00  0.00    +0.420 HD
ATOM     18  H   LIG    1        5.999   0.161  -3.710  0.00  0.00    +0.420 HD
ENDBRANCH  13  16
ENDBRANCH   3  13
TORSDOF 4
ENDMDL
MODEL     1104
REMARK  Name = ZINC000002166867
REMARK                            x       y       z     vdW  Elec       q    Type
REMARK                         _______ _______ _______ _____ _____    ______ ____
ROOT
ATOM      1  C   LIG    1        2.583  -2.785  -0.038  0.00  0.00    +0.430 C 
ENDROOT
BRANCH   1   3
ATOM      2  C   LIG    1        1.286  -0.722  -0.014  0.00  0.00    +0.550 C 
ATOM      3  N   LIG    1        1.304  -2.070  -0.021  0.00  0.00    -0.740 N 
ATOM      4  H   LIG    1        0.471  -2.566  -0.016  0.00  0.00    +0.410 HD
ATOM      5  O   LIG    1        2.331  -0.100  -0.021  0.00  0.00    -0.530 OA
BRANCH   2   7
ATOM      6  C   LIG    1       -0.016   1.326   0.009  0.00  0.00    +0.160 C 
ATOM      7  C   LIG    1        0.002  -0.004   0.002  0.00  0.00    -0.090 C 
ENDBRANCH   2   7
ENDBRANCH   1   3
BRANCH   1   8
ATOM      8  O   LIG    1        2.897  -3.229   1.284  0.00  0.00    -0.560 OA
ATOM      9  H   LIG    1        2.240  -3.828   1.664  0.00  0.00    +0.370 HD
ENDBRANCH   1   8
BRANCH   1  10
ATOM     10  C   LIG    1        2.479  -3.993  -0.970  0.00  0.00    +0.430 C 
BRANCH  10  11
ATOM     11  N   LIG    1        3.758  -4.708  -0.986  0.00  0.00    -0.740 N 
ATOM     12  H   LIG    1        4.260  -4.822  -0.165  0.00  0.00    +0.410 HD
ATOM     13  C   LIG    1        4.236  -5.208  -2.143  0.00  0.00    +0.550 C 
ATOM     14  O   LIG    1        3.606  -5.065  -3.174  0.00  0.00    -0.530 OA
BRANCH  13  15
ATOM     15  C   LIG    1        5.520  -5.926  -2.159  0.00  0.00    -0.090 C 
ATOM     16  C   LIG    1        5.992  -6.419  -3.301  0.00  0.00    +0.160 C 
ENDBRANCH  13  15
ENDBRANCH  10  11
BRANCH  10  17
ATOM     17  O   LIG    1        1.450  -4.868  -0.504  0.00  0.00    -0.560 OA
ATOM     18  H   LIG    1        1.598  -5.209   0.389  0.00  0.00    +0.370 HD
ENDBRANCH  10  17
ENDBRANCH   1  10
TORSDOF 7
ENDMDL
MODEL     1105
REMARK  Name = ZINC000002384936
REMARK                            x       y       z     vdW  Elec       q    Type
REMARK                         _______ _______ _______ _____ _____    ______ ____
ROOT
ATOM      1  CA  HIS A  1       -0.699   1.479   1.216  0.00  0.00    +0.190 C 
ENDROOT
BRANCH   1   2
ATOM      2  N   HIS A  1       -0.012   1.005   0.008  0.00  0.00    -0.620 N 
ATOM      3  H1  HIS A  1       -0.500   1.339  -0.810  0.00  0.00    +0.440 HD
ATOM      4  H2  HIS A  1        0.935   1.354   0.000  0.00  0.00    +0.430 HD
ATOM      5  H3  HIS A  1        0.002  -0.004   0.002  0.00  0.00    +0.440 HD
ENDBRANCH   1   2
BRANCH   1   6
ATOM      6  C   HIS A  1       -2.113   0.957   1.227  0.00  0.00    +0.490 C 
ATOM      7  N   GLY A  2       -2.804   0.908   2.383  0.00  0.00    -0.660 N 
ATOM      8  H   GLY A  2       -2.392   1.208   3.208  0.00  0.00    +0.420 HD
ATOM      9  O   HIS A  1       -2.629   0.582   0.195  0.00  0.00    -0.550 OA
BRANCH   7  10
ATOM     10  CA  GLY A  2       -4.179   0.401   2.393  0.00  0.00    +0.200 C 
BRANCH  10  11
ATOM     11  C   GLY A  2       -4.722   0.451   3.798  0.00  0.00    +0.490 C 
ATOM     12  OXT GLY A  2       -5.858   0.071   4.026  0.00  0.00    -0.670 OA
ATOM     13  O   GLY A  2       -4.026   0.871   4.706  0.00  0.00    -0.690 OA
ENDBRANCH  10  11
ENDBRANCH   7  10
ENDBRANCH   1   6
BRANCH   1  14
ATOM     14  CB  HIS A  1       -0.720   3.008   1.225  0.00  0.00    +0.200 C 
BRANCH  14  15
ATOM     15  CG  HIS A  1        0.690   3.529   1.338  0.00  0.00    -0.050 A 
ATOM     16  CD2 HIS A  1        1.282   4.399   0.497  0.00  0.00    +0.150 A 
ATOM     17  NE2 HIS A  1        2.552   4.601   0.966  0.00  0.00    -0.560 N 
ATOM     18  HE2 HIS A  1        3.226   5.178   0.574  0.00  0.00    +0.430 HD
ATOM     19  CE1 HIS A  1        2.692   3.846   2.078  0.00  0.00    +0.420 A 
ATOM     20  ND1 HIS A  1        1.573   3.212   2.296  0.00  0.00    -0.490 NA
ENDBRANCH  14  15
ENDBRANCH   1  14
TORSDOF 6
ENDMDL
MODEL     1106
REMARK  Name = ZINC000002384689
REMARK                            x       y       z     vdW  Elec       q    Type
REMARK                         _______ _______ _______ _____ _____    ______ ____
ROOT
ATOM      1  O   LIG    1        2.744   0.994   1.391  0.00  0.00    -0.370 OA
ENDROOT
BRANCH   1   2
ATOM      2  C   LIG    1        2.659   1.613   0.106  0.00  0.00    +0.490 C 
BRANCH   2   9
ATOM      3  O   LIG    1        5.443   2.441   0.252  0.00  0.00    -0.440 OA
ATOM      4  C   LIG    1        5.060   1.637  -0.574  0.00  0.00    +0.540 C 
ATOM      5  C   LIG    1        5.905   0.972  -1.591  0.00  0.00    +0.050 C 
ATOM      6  C   LIG    1        5.098   0.164  -2.298  0.00  0.00    +0.050 C 
ATOM      7  C   LIG    1        3.740   0.314  -1.730  0.00  0.00    +0.530 C 
ATOM      8  O   LIG    1        2.743  -0.264  -2.113  0.00  0.00    -0.430 OA
ATOM      9  N   LIG    1        3.798   1.194  -0.715  0.00  0.00    -0.610 N 
ENDBRANCH   2   9
ENDBRANCH   1   2
BRANCH   1  10
ATOM     10  C   LIG    1        2.296  -0.363   1.412  0.00  0.00    +0.490 C 
BRANCH  10  11
ATOM     11  N   LIG    1        0.832  -0.394   1.461  0.00  0.00    -0.610 N 
ATOM     12  C   LIG    1        0.086  -0.106   2.543  0.00  0.00    +0.540 C 
ATOM     13  C   LIG    1       -1.341  -0.254   2.180  0.00  0.00    +0.050 C 
ATOM     14  C   LIG    1       -1.376  -0.624   0.889  0.00  0.00    +0.050 C 
ATOM     15  O   LIG    1        0.511   0.219   3.633  0.00  0.00    -0.440 OA
ATOM     16  C   LIG    1        0.028  -0.707   0.429  0.00  0.00    +0.530 C 
ATOM     17  O   LIG    1        0.392  -1.014  -0.687  0.00  0.00    -0.430 OA
ENDBRANCH  10  11
ENDBRANCH   1  10
TORSDOF 4
ENDMDL
MODEL     1107
REMARK  Name = ZINC000252642544
REMARK                            x       y       z     vdW  Elec       q    Type
REMARK                         _______ _______ _______ _____ _____    ______ ____
ROOT
ATOM      1  C   LIG    1        0.880  -0.358  -1.545  0.00  0.00    -0.840 C 
ATOM      2  C   LIG    1        1.217  -1.810  -1.777  0.00  0.00    +0.130 C 
ATOM      3  O   LIG    1        0.533  -3.015  -1.666  0.00  0.00    -0.310 OA
ATOM      4  C   LIG    1        1.604  -3.996  -1.849  0.00  0.00    +0.240 C 
ATOM      5  C   LIG    1        2.911  -3.308  -1.356  0.00  0.00    +0.090 C 
ATOM      6  C   LIG    1        2.374  -2.025  -0.697  0.00  0.00    -0.370 C 
ATOM      7  S   LIG    1        2.726  -0.393  -1.417  0.00  0.00    +2.430 S 
ATOM      8  O   LIG    1        3.205   0.520  -0.439  0.00  0.00    -0.890 OA
ATOM      9  O   LIG    1        3.337  -0.504  -2.695  0.00  0.00    -0.880 OA
ENDROOT
BRANCH   1  11
ATOM     10  C   LIG    1       -0.022   1.810   0.012  0.00  0.00    -0.230 C 
ATOM     11  S   LIG    1        0.002  -0.004   0.002  0.00  0.00    +2.470 S 
ATOM     12  O   LIG    1       -1.334  -0.474  -0.117  0.00  0.00    -0.910 OA
ATOM     13  O   LIG    1        0.801  -0.452   1.088  0.00  0.00    -0.910 OA
ENDBRANCH   1  11
TORSDOF 1
ENDMDL
MODEL     1108
REMARK  Name = ZINC000000350826
REMARK                            x       y       z     vdW  Elec       q    Type
REMARK                         _______ _______ _______ _____ _____    ______ ____
ROOT
ATOM      1  C   LIG    1       -0.018   1.461   0.010  0.00  0.00    +0.370 C 
ATOM      2  N   LIG    1        0.002  -0.004   0.002  0.00  0.00    -0.360 N 
ATOM      3  C   LIG    1        0.009  -0.809  -1.096  0.00  0.00    +0.220 A 
ATOM      4  N   LIG    1        0.027  -2.068  -0.713  0.00  0.00    -0.450 NA
ATOM      5  C   LIG    1        0.034  -2.133   0.616  0.00  0.00    +0.310 A 
ATOM      6  N   LIG    1        0.051  -3.177   1.528  0.00  0.00    -0.510 N 
ATOM      7  C   LIG    1        0.061  -4.560   1.045  0.00  0.00    +0.340 C 
ATOM      8  C   LIG    1        0.050  -2.935   2.850  0.00  0.00    +0.710 A 
ATOM      9  O   LIG    1        0.062  -3.878   3.618  0.00  0.00    -0.530 OA
ATOM     10  N   LIG    1        0.041  -1.691   3.356  0.00  0.00    -0.550 N 
ATOM     11  C   LIG    1        0.045  -1.501   4.809  0.00  0.00    +0.360 C 
ATOM     12  C   LIG    1        0.028  -0.611   2.544  0.00  0.00    +0.600 A 
ATOM     13  O   LIG    1        0.019   0.515   3.006  0.00  0.00    -0.490 OA
ATOM     14  C   LIG    1        0.024  -0.825   1.098  0.00  0.00    -0.120 A 
ENDROOT
BRANCH   3  15
ATOM     15  C   LIG    1       -0.003  -0.341  -2.500  0.00  0.00    +0.620 C 
ATOM     16  O   LIG    1       -0.020   0.849  -2.744  0.00  0.00    -0.520 OA
ATOM     17  N   LIG    1        0.005  -1.236  -3.509  0.00  0.00    -0.820 N 
ATOM     18  H   LIG    1       -0.003  -0.929  -4.429  0.00  0.00    +0.420 HD
ATOM     19  H   LIG    1        0.018  -2.186  -3.314  0.00  0.00    +0.420 HD
ENDBRANCH   3  15
TORSDOF 1
ENDMDL
MODEL     1109
REMARK  Name = ZINC000005669732
REMARK                            x       y       z     vdW  Elec       q    Type
REMARK                         _______ _______ _______ _____ _____    ______ ____
ROOT
ATOM      1  C   LIG    1       -0.018   1.503   0.010  0.00  0.00    +0.130 C 
ATOM      2  C   LIG    1        0.002  -0.004   0.002  0.00  0.00    -0.250 A 
ATOM      3  C   LIG    1       -1.149  -0.707   0.004  0.00  0.00    +0.330 A 
ATOM      4  N   LIG    1       -1.118  -2.070  -0.010  0.00  0.00    -0.520 N 
ATOM      5  C   LIG    1        0.095  -2.728   0.030  0.00  0.00    +0.580 A 
ATOM      6  O   LIG    1       -0.087  -4.093   0.100  0.00  0.00    -0.230 OA
ATOM      7  C   LIG    1       -1.362  -4.227   0.758  0.00  0.00    +0.150 C 
ATOM      8  C   LIG    1       -2.304  -5.383   0.460  0.00  0.00    +0.210 C 
ATOM      9  C   LIG    1       -3.678  -4.669   0.290  0.00  0.00    +0.180 C 
ATOM     10  O   LIG    1       -3.411  -3.233   0.359  0.00  0.00    -0.320 OA
ATOM     11  N   LIG    1        1.220  -2.049   0.017  0.00  0.00    -0.560 NA
ATOM     12  C   LIG    1       -2.100  -3.100  -0.068  0.00  0.00    +0.360 C 
ATOM     13  C   LIG    1        1.232  -0.710  -0.013  0.00  0.00    +0.530 A 
ATOM     14  O   LIG    1        2.291  -0.103  -0.045  0.00  0.00    -0.480 OA
ENDROOT
BRANCH   8  15
ATOM     15  O   LIG    1       -1.923  -6.050  -0.745  0.00  0.00    -0.540 OA
ATOM     16  H   LIG    1       -2.493  -6.796  -0.979  0.00  0.00    +0.400 HD
ENDBRANCH   8  15
BRANCH   9  17
ATOM     17  C   LIG    1       -4.627  -5.082   1.418  0.00  0.00    +0.220 C 
BRANCH  17  18
ATOM     18  O   LIG    1       -5.917  -4.513   1.187  0.00  0.00    -0.560 OA
ATOM     19  H   LIG    1       -6.571  -4.734   1.864  0.00  0.00    +0.390 HD
ENDBRANCH  17  18
ENDBRANCH   9  17
TORSDOF 3
ENDMDL
MODEL     1110
REMARK  Name = ZINC000002539572
REMARK                            x       y       z     vdW  Elec       q    Type
REMARK                         _______ _______ _______ _____ _____    ______ ____
ROOT
ATOM      1  CB  ALA A  2       -0.019   1.526   0.010  0.00  0.00    +0.070 C 
ATOM      2  CA  ALA A  2        0.002  -0.004   0.002  0.00  0.00    +0.240 C 
ENDROOT
BRANCH   2   3
ATOM      3  C   ALA A  2       -1.412  -0.526   0.013  0.00  0.00    +0.500 C 
ATOM      4  N   ALA A  3       -2.256  -0.206  -0.988  0.00  0.00    -0.680 N 
ATOM      5  H   ALA A  3       -1.953   0.360  -1.716  0.00  0.00    +0.410 HD
ATOM      6  O   ALA A  2       -1.790  -1.233   0.922  0.00  0.00    -0.560 OA
BRANCH   4   7
ATOM      7  CA  ALA A  3       -3.630  -0.713  -0.978  0.00  0.00    +0.160 C 
ATOM      8  CB  ALA A  3       -4.509   0.214  -0.137  0.00  0.00    +0.020 C 
BRANCH   7   9
ATOM      9  C   ALA A  3       -4.158  -0.763  -2.389  0.00  0.00    +0.490 C 
ATOM     10  OXT ALA A  3       -5.291  -1.159  -2.602  0.00  0.00    -0.680 OA
ATOM     11  O   ALA A  3       -3.451  -0.408  -3.317  0.00  0.00    -0.690 OA
ENDBRANCH   7   9
ENDBRANCH   4   7
ENDBRANCH   2   3
BRANCH   2  12
ATOM     12  N   ALA A  2        0.711  -0.489   1.189  0.00  0.00    -0.680 N 
ATOM     13  H   ALA A  2        0.213  -0.731   1.986  0.00  0.00    +0.420 HD
ATOM     14  C   ALA A  1        2.054  -0.600   1.174  0.00  0.00    +0.500 C 
ATOM     15  O   ALA A  1        2.676  -0.297   0.177  0.00  0.00    -0.530 OA
BRANCH  14  16
ATOM     16  CA  ALA A  1        2.783  -1.099   2.395  0.00  0.00    +0.180 C 
ATOM     17  CB  ALA A  1        2.926   0.041   3.405  0.00  0.00    +0.120 C 
BRANCH  16  18
ATOM     18  N   ALA A  1        4.115  -1.580   2.007  0.00  0.00    -0.620 N 
ATOM     19  H1  ALA A  1        4.637  -0.824   1.589  0.00  0.00    +0.440 HD
ATOM     20  H2  ALA A  1        4.021  -2.332   1.341  0.00  0.00    +0.440 HD
ATOM     21  H3  ALA A  1        4.603  -1.914   2.824  0.00  0.00    +0.440 HD
ENDBRANCH  16  18
ENDBRANCH  14  16
ENDBRANCH   2  12
TORSDOF 6
ENDMDL
MODEL     1111
REMARK  Name = ZINC000002545102
REMARK                            x       y       z     vdW  Elec       q    Type
REMARK                         _______ _______ _______ _____ _____    ______ ____
ROOT
ATOM      1  C5M   T A  1       -0.018   1.503   0.010  0.00  0.00    +0.130 C 
ATOM      2  C5    T A  1        0.002  -0.004   0.002  0.00  0.00    -0.250 A 
ATOM      3  C6    T A  1       -1.153  -0.704   0.004  0.00  0.00    +0.350 A 
ATOM      4  N1    T A  1       -1.116  -2.072  -0.004  0.00  0.00    -0.530 N 
ATOM      5  C2    T A  1        0.060  -2.726  -0.013  0.00  0.00    +0.700 A 
ATOM      6  N3    T A  1        1.226  -2.053  -0.016  0.00  0.00    -0.660 N 
ATOM      7  H3    T A  1        2.064  -2.540  -0.023  0.00  0.00    +0.430 HD
ATOM      8  O2    T A  1        0.069  -3.942  -0.020  0.00  0.00    -0.520 OA
ATOM      9  C4    T A  1        1.232  -0.705  -0.013  0.00  0.00    +0.550 A 
ATOM     10  O4    T A  1        2.287  -0.095  -0.016  0.00  0.00    -0.510 OA
ENDROOT
BRANCH   4  11
ATOM     11  C1*   T A  1       -2.369  -2.831  -0.002  0.00  0.00    +0.420 C 
ATOM     12  C2*   T A  1       -2.500  -3.655  -1.308  0.00  0.00    +0.010 C 
ATOM     13  C3*   T A  1       -3.449  -4.794  -0.844  0.00  0.00    +0.170 C 
ATOM     14  C4*   T A  1       -3.019  -5.000   0.625  0.00  0.00    +0.200 C 
ATOM     15  O4*   T A  1       -2.362  -3.801   1.057  0.00  0.00    -0.350 OA
BRANCH  13  16
ATOM     16  O3*   T A  1       -3.234  -5.979  -1.612  0.00  0.00    -0.550 OA
ATOM     17  H3*   T A  1       -3.408  -5.872  -2.557  0.00  0.00    +0.390 HD
ENDBRANCH  13  16
BRANCH  14  18
ATOM     18  C5*   T A  1       -4.251  -5.260   1.495  0.00  0.00    +0.190 C 
BRANCH  18  19
ATOM     19  O5*   T A  1       -3.837  -5.564   2.828  0.00  0.00    -0.560 OA
ATOM     20  H5*   T A  1       -4.567  -5.741   3.436  0.00  0.00    +0.380 HD
ENDBRANCH  18  19
ENDBRANCH  14  18
ENDBRANCH   4  11
TORSDOF 4
ENDMDL
MODEL     1112
REMARK  Name = ZINC000002981401
REMARK                            x       y       z     vdW  Elec       q    Type
REMARK                         _______ _______ _______ _____ _____    ______ ____
ROOT
ATOM      1  C   LIG    1        1.280   1.980   0.001  0.00  0.00    +0.070 C 
ENDROOT
BRANCH   1   3
ATOM      2  O   LIG    1        0.002  -0.004   0.002  0.00  0.00    -0.540 OA
ATOM      3  C   LIG    1       -0.014   1.209   0.009  0.00  0.00    +0.510 C 
ATOM      4  N   LIG    1       -1.191   1.867   0.018  0.00  0.00    -0.730 N 
ATOM      5  H   LIG    1       -1.204   2.837   0.023  0.00  0.00    +0.400 HD
BRANCH   4   6
ATOM      6  C   LIG    1       -2.449   1.117   0.020  0.00  0.00    +0.260 C 
BRANCH   6   7
ATOM      7  C   LIG    1       -3.626   2.095   0.031  0.00  0.00    +0.030 C 
BRANCH   7   8
ATOM      8  C   LIG    1       -4.940   1.312   0.033  0.00  0.00    +0.180 C 
BRANCH   8   9
ATOM      9  O   LIG    1       -6.039   2.226   0.043  0.00  0.00    -0.580 OA
ATOM     10  H   LIG    1       -6.906   1.798   0.045  0.00  0.00    +0.380 HD
ENDBRANCH   8   9
ENDBRANCH   7   8
ENDBRANCH   6   7
ENDBRANCH   4   6
ENDBRANCH   1   3
BRANCH   1  11
ATOM     11  C   LIG    1        2.457   1.002  -0.016  0.00  0.00    +0.070 C 
BRANCH  11  12
ATOM     12  C   LIG    1        3.751   1.773  -0.024  0.00  0.00    +0.510 C 
ATOM     13  N   LIG    1        4.928   1.115  -0.039  0.00  0.00    -0.730 N 
ATOM     14  H   LIG    1        4.941   0.145  -0.044  0.00  0.00    +0.400 HD
ATOM     15  O   LIG    1        3.735   2.985  -0.018  0.00  0.00    -0.540 OA
BRANCH  13  16
ATOM     16  C   LIG    1        6.186   1.865  -0.047  0.00  0.00    +0.260 C 
BRANCH  16  17
ATOM     17  C   LIG    1        7.362   0.886  -0.064  0.00  0.00    +0.030 C 
BRANCH  17  18
ATOM     18  C   LIG    1        8.677   1.669  -0.072  0.00  0.00    +0.180 C 
BRANCH  18  19
ATOM     19  O   LIG    1        9.775   0.755  -0.087  0.00  0.00    -0.580 OA
ATOM     20  H   LIG    1       10.643   1.183  -0.093  0.00  0.00    +0.380 HD
ENDBRANCH  18  19
ENDBRANCH  17  18
ENDBRANCH  16  17
ENDBRANCH  13  16
ENDBRANCH  11  12
ENDBRANCH   1  11
TORSDOF 11
ENDMDL
MODEL     1113
REMARK  Name = ZINC000002562219
REMARK                            x       y       z     vdW  Elec       q    Type
REMARK                         _______ _______ _______ _____ _____    ______ ____
ROOT
ATOM      1  C   LIG    1       -1.136  -2.159   0.001  0.00  0.00    +0.260 C 
ATOM      2  C   LIG    1       -2.444  -2.685  -0.596  0.00  0.00    +0.200 C 
ATOM      3  C   LIG    1       -2.445  -4.215  -0.528  0.00  0.00    +0.130 C 
ATOM      4  C   LIG    1       -2.253  -4.653   0.926  0.00  0.00    +0.150 C 
ATOM      5  O   LIG    1       -1.033  -4.105   1.430  0.00  0.00    -0.370 OA
ATOM      6  C   LIG    1       -0.993  -2.676   1.435  0.00  0.00    +0.360 C 
ENDROOT
BRANCH   1   9
ATOM      7  C   LIG    1       -0.018   1.503   0.010  0.00  0.00    +0.100 C 
ATOM      8  C   LIG    1        0.002  -0.004   0.002  0.00  0.00    +0.510 C 
ATOM      9  N   LIG    1       -1.156  -0.694   0.009  0.00  0.00    -0.710 N 
ATOM     10  H   LIG    1       -2.002  -0.220   0.020  0.00  0.00    +0.410 HD
ATOM     11  O   LIG    1        1.060  -0.596  -0.011  0.00  0.00    -0.550 OA
ENDBRANCH   1   9
BRANCH   3  12
ATOM     12  O   LIG    1       -1.378  -4.729  -1.328  0.00  0.00    -0.540 OA
ATOM     13  H   LIG    1       -1.319  -5.694  -1.331  0.00  0.00    +0.380 HD
ENDBRANCH   3  12
BRANCH   2  14
ATOM     14  O   LIG    1       -2.551  -2.265  -1.958  0.00  0.00    -0.550 OA
ATOM     15  H   LIG    1       -3.357  -2.564  -2.400  0.00  0.00    +0.380 HD
ENDBRANCH   2  14
BRANCH   6  16
ATOM     16  O   LIG    1       -2.066  -2.171   2.232  0.00  0.00    -0.580 OA
ATOM     17  H   LIG    1       -2.041  -2.460   3.154  0.00  0.00    +0.390 HD
ENDBRANCH   6  16
BRANCH   4  18
ATOM     18  C   LIG    1       -2.192  -6.181   0.995  0.00  0.00    +0.200 C 
BRANCH  18  19
ATOM     19  O   LIG    1       -2.130  -6.594   2.362  0.00  0.00    -0.560 OA
ATOM     20  H   LIG    1       -2.089  -7.552   2.482  0.00  0.00    +0.380 HD
ENDBRANCH  18  19
ENDBRANCH   4  18
TORSDOF 6
ENDMDL
MODEL     1114
REMARK  Name = ZINC000002572099
REMARK                            x       y       z     vdW  Elec       q    Type
REMARK                         _______ _______ _______ _____ _____    ______ ____
ROOT
ATOM      1  CA  ALA A  2       -3.442  -1.177   1.191  0.00  0.00    +0.240 C 
ATOM      2  CB  ALA A  2       -4.338  -0.240   0.378  0.00  0.00    +0.070 C 
ENDROOT
BRANCH   1   5
ATOM      3  N   ALA A  3       -1.372  -0.511   0.012  0.00  0.00    -0.680 N 
ATOM      4  H   ALA A  3       -1.810  -0.743  -0.822  0.00  0.00    +0.410 HD
ATOM      5  C   ALA A  2       -2.029  -0.655   1.181  0.00  0.00    +0.500 C 
ATOM      6  O   ALA A  2       -1.481  -0.365   2.224  0.00  0.00    -0.560 OA
BRANCH   3   8
ATOM      7  CB  ALA A  3       -0.019   1.526   0.010  0.00  0.00    +0.030 C 
ATOM      8  CA  ALA A  3        0.002  -0.004   0.002  0.00  0.00    +0.160 C 
BRANCH   8   9
ATOM      9  C   ALA A  3        0.707  -0.490  -1.238  0.00  0.00    +0.490 C 
ATOM     10  OXT ALA A  3        0.073  -0.696  -2.259  0.00  0.00    -0.690 OA
ATOM     11  O   ALA A  3        1.912  -0.677  -1.220  0.00  0.00    -0.680 OA
ENDBRANCH   8   9
ENDBRANCH   3   8
ENDBRANCH   1   5
BRANCH   1  12
ATOM     12  N   ALA A  2       -3.929  -1.240   2.572  0.00  0.00    -0.680 N 
ATOM     13  H   ALA A  2       -3.545  -0.661   3.249  0.00  0.00    +0.420 HD
ATOM     14  C   ALA A  1       -4.911  -2.103   2.901  0.00  0.00    +0.500 C 
ATOM     15  O   ALA A  1       -5.391  -2.827   2.055  0.00  0.00    -0.530 OA
BRANCH  14  16
ATOM     16  CA  ALA A  1       -5.412  -2.168   4.321  0.00  0.00    +0.170 C 
ATOM     17  CB  ALA A  1       -4.446  -3.004   5.164  0.00  0.00    +0.130 C 
BRANCH  16  18
ATOM     18  N   ALA A  1       -6.743  -2.788   4.343  0.00  0.00    -0.620 N 
ATOM     19  H1  ALA A  1       -7.380  -2.236   3.787  0.00  0.00    +0.440 HD
ATOM     20  H2  ALA A  1       -7.079  -2.831   5.293  0.00  0.00    +0.440 HD
ATOM     21  H3  ALA A  1       -6.686  -3.721   3.963  0.00  0.00    +0.440 HD
ENDBRANCH  16  18
ENDBRANCH  14  16
ENDBRANCH   1  12
TORSDOF 6
ENDMDL
MODEL     1115
REMARK  Name = ZINC000001032089
REMARK                            x       y       z     vdW  Elec       q    Type
REMARK                         _______ _______ _______ _____ _____    ______ ____
ROOT
ATOM      1  C   LIG    1        2.503  -0.366  -0.019  0.00  0.00    +0.380 C 
ENDROOT
BRANCH   1   2
ATOM      2  C   LIG    1        2.976  -0.217  -1.442  0.00  0.00    +0.500 C 
ATOM      3  N   LIG    1        4.243   0.170  -1.694  0.00  0.00    -0.610 N 
ATOM      4  C   LIG    1        5.183   0.447  -0.596  0.00  0.00    +0.250 C 
ATOM      5  C   LIG    1        6.476  -0.332  -0.859  0.00  0.00    +0.210 C 
ATOM      6  O   LIG    1        6.940  -0.042  -2.180  0.00  0.00    -0.380 OA
ATOM      7  C   LIG    1        6.042  -0.446  -3.217  0.00  0.00    +0.220 C 
ATOM      8  C   LIG    1        4.728   0.322  -3.074  0.00  0.00    +0.260 C 
ATOM      9  O   LIG    1        2.218  -0.446  -2.360  0.00  0.00    -0.510 OA
ENDBRANCH   1   2
BRANCH   1  14
ATOM     10  C   LIG    1        0.002  -0.004   0.002  0.00  0.00    +0.510 A 
ATOM     11  N   LIG    1       -1.045  -0.799   0.002  0.00  0.00    -0.370 NA
ATOM     12  N   LIG    1       -0.676  -2.029  -0.007  0.00  0.00    -0.010 NA
ATOM     13  N   LIG    1        0.611  -2.110  -0.013  0.00  0.00    -0.080 NA
ATOM     14  N   LIG    1        1.101  -0.793  -0.013  0.00  0.00    -0.410 N 
BRANCH  10  15
ATOM     15  N   LIG    1       -0.017   1.380   0.010  0.00  0.00    -0.810 N 
ATOM     16  H   LIG    1       -0.863   1.853   0.016  0.00  0.00    +0.430 HD
ATOM     17  H   LIG    1        0.817   1.876   0.004  0.00  0.00    +0.410 HD
ENDBRANCH  10  15
ENDBRANCH   1  14
TORSDOF 3
ENDMDL
MODEL     1116
REMARK  Name = ZINC000002643590
REMARK                            x       y       z     vdW  Elec       q    Type
REMARK                         _______ _______ _______ _____ _____    ______ ____
ROOT
ATOM      1  N   ALA A  1       -1.372  -0.511   0.012  0.00  0.00    -0.690 N 
ATOM      2  H   ALA A  1       -1.794  -0.752   0.852  0.00  0.00    +0.420 HD
ATOM      3  C   UNK A  0       -2.051  -0.643  -1.145  0.00  0.00    +0.510 C 
ATOM      4  O   UNK A  0       -1.523  -0.341  -2.195  0.00  0.00    -0.520 OA
ENDROOT
BRANCH   3   5
ATOM      5  C   UNK A  0       -3.453  -1.160  -1.134  0.00  0.00    +0.510 C 
ATOM      6  N   ALA A  1       -4.131  -1.292  -2.291  0.00  0.00    -0.690 N 
ATOM      7  H   ALA A  1       -3.710  -1.050  -3.131  0.00  0.00    +0.420 HD
ATOM      8  O   UNK A  0       -3.981  -1.462  -0.084  0.00  0.00    -0.520 OA
BRANCH   6   9
ATOM      9  CA  ALA A  1       -5.506  -1.799  -2.281  0.00  0.00    +0.240 C 
ATOM     10  CB  ALA A  1       -6.473  -0.644  -2.015  0.00  0.00    +0.040 C 
BRANCH   9  11
ATOM     11  C   ALA A  1       -5.827  -2.431  -3.637  0.00  0.00    +0.200 C 
BRANCH  11  12
ATOM     12  O   ALA A  1       -5.803  -1.423  -4.649  0.00  0.00    -0.570 OA
ATOM     13  H   ALA A  1       -5.998  -1.753  -5.537  0.00  0.00    +0.390 HD
ENDBRANCH  11  12
ENDBRANCH   9  11
ENDBRANCH   6   9
ENDBRANCH   3   5
BRANCH   1  15
ATOM     14  CB  ALA A  1       -0.019   1.526   0.010  0.00  0.00    +0.040 C 
ATOM     15  CA  ALA A  1        0.002  -0.004   0.002  0.00  0.00    +0.240 C 
BRANCH  15  16
ATOM     16  C   ALA A  1        0.742  -0.511   1.242  0.00  0.00    +0.200 C 
BRANCH  16  17
ATOM     17  O   ALA A  1        0.143   0.044   2.414  0.00  0.00    -0.570 OA
ATOM     18  H   ALA A  1        0.562  -0.234   3.240  0.00  0.00    +0.390 HD
ENDBRANCH  16  17
ENDBRANCH  15  16
ENDBRANCH   1  15
TORSDOF 7
ENDMDL
MODEL     1117
REMARK  Name = ZINC000426488509
REMARK                            x       y       z     vdW  Elec       q    Type
REMARK                         _______ _______ _______ _____ _____    ______ ____
ROOT
ATOM      1  C   LIG    1       -1.839  -0.079  -1.489  0.00  0.00    +0.520 C 
ATOM      2  N   LIG    1       -3.101  -0.434  -1.801  0.00  0.00    -0.730 N 
ATOM      3  H   LIG    1       -3.632  -0.942  -1.168  0.00  0.00    +0.400 HD
ATOM      4  O   LIG    1       -1.174   0.554  -2.281  0.00  0.00    -0.510 OA
ENDROOT
BRANCH   1   5
ATOM      5  C   LIG    1       -1.254  -0.470  -0.156  0.00  0.00    +0.190 C 
BRANCH   5   7
ATOM      6  C   LIG    1        0.149   1.500  -0.036  0.00  0.00    +0.200 C 
ATOM      7  N   LIG    1        0.124   0.032  -0.060  0.00  0.00    -0.510 NA
BRANCH   7   8
ATOM      8  C   LIG    1        0.806  -0.526   1.115  0.00  0.00    +0.190 C 
BRANCH   8   9
ATOM      9  C   LIG    1        1.117  -2.004   0.871  0.00  0.00    +0.170 C 
BRANCH   9  10
ATOM     10  O   LIG    1        2.038  -2.124  -0.215  0.00  0.00    -0.560 OA
ATOM     11  H   LIG    1        2.280  -3.036  -0.426  0.00  0.00    +0.380 HD
ENDBRANCH   9  10
ENDBRANCH   8   9
ENDBRANCH   7   8
ENDBRANCH   5   7
ENDBRANCH   1   5
BRANCH   2  12
ATOM     12  C   LIG    1       -3.669  -0.055  -3.097  0.00  0.00    +0.390 C 
BRANCH  12  13
ATOM     13  C   LIG    1       -5.082  -0.570  -3.195  0.00  0.00    +0.180 A 
ATOM     14  N   LIG    1       -5.436  -1.736  -3.662  0.00  0.00    -0.470 NA
ATOM     15  C   LIG    1       -6.771  -1.852  -3.597  0.00  0.00    +0.140 A 
ATOM     16  C   LIG    1       -7.263  -0.714  -3.070  0.00  0.00    +0.130 A 
ATOM     17  N   LIG    1       -6.192   0.097  -2.810  0.00  0.00    -0.450 N 
ATOM     18  C   LIG    1       -6.240   1.442  -2.229  0.00  0.00    +0.330 C 
ENDBRANCH  12  13
ENDBRANCH   2  12
TORSDOF 7
ENDMDL
MODEL     1118
REMARK  Name = ZINC000013118155
REMARK                            x       y       z     vdW  Elec       q    Type
REMARK                         _______ _______ _______ _____ _____    ______ ____
ROOT
ATOM      1  C   LIG    1        0.659  -2.065  -1.123  0.00  0.00    +0.180 C 
ATOM      2  C   LIG    1        1.262  -2.667  -2.179  0.00  0.00    -0.160 A 
ATOM      3  S   LIG    1        2.048  -1.897  -3.569  0.00  0.00    +0.280 S 
ATOM      4  C   LIG    1        2.497  -3.422  -4.346  0.00  0.00    +0.230 A 
ATOM      5  N   LIG    1        3.098  -3.929  -5.399  0.00  0.00    -0.470 NA
ATOM      6  C   LIG    1        3.065  -5.260  -5.330  0.00  0.00    +0.490 A 
ATOM      7  N   LIG    1        2.449  -5.621  -4.242  0.00  0.00    -0.260 NA
ATOM      8  N   LIG    1        2.057  -4.436  -3.562  0.00  0.00    -0.410 N 
ATOM      9  C   LIG    1        1.419  -4.115  -2.430  0.00  0.00    +0.580 A 
ATOM     10  O   LIG    1        0.996  -4.956  -1.663  0.00  0.00    -0.410 OA
ENDROOT
BRANCH   1  11
ATOM     11  C   LIG    1        0.601  -0.603  -1.048  0.00  0.00    +0.490 C 
ATOM     12  O   LIG    1        1.094   0.071  -1.932  0.00  0.00    -0.480 OA
BRANCH  11  14
ATOM     13  C   LIG    1       -0.018   1.448   0.010  0.00  0.00    +0.280 C 
ATOM     14  O   LIG    1        0.002  -0.004   0.002  0.00  0.00    -0.340 OA
ENDBRANCH  11  14
ENDBRANCH   1  11
TORSDOF 2
ENDMDL
MODEL     1119
REMARK  Name = ZINC000003123996
REMARK                            x       y       z     vdW  Elec       q    Type
REMARK                         _______ _______ _______ _____ _____    ______ ____
ROOT
ATOM      1  C   LIG    1        0.652  -0.570  -1.138  0.00  0.00    +0.190 C 
ATOM      2  C   LIG    1       -0.388  -0.767  -2.260  0.00  0.00    -0.290 C 
ATOM      3  S   LIG    1        0.193  -2.300  -3.091  0.00  0.00    +2.390 S 
ATOM      4  C   LIG    1        0.786  -3.082  -1.536  0.00  0.00    -0.280 C 
ATOM      5  O   LIG    1        1.298  -2.003  -3.934  0.00  0.00    -0.910 OA
ATOM      6  O   LIG    1       -0.920  -3.023  -3.599  0.00  0.00    -0.900 OA
ATOM      7  C   LIG    1        1.313  -1.881  -0.730  0.00  0.00    +0.200 C 
ENDROOT
BRANCH   7   8
ATOM      8  N   LIG    1        2.762  -1.763  -0.942  0.00  0.00    -0.490 N 
ATOM      9  H   LIG    1        3.098  -0.919  -0.504  0.00  0.00    +0.440 HD
ATOM     10  H   LIG    1        2.954  -1.728  -1.932  0.00  0.00    +0.430 HD
BRANCH   8  11
ATOM     11  C   LIG    1        3.440  -2.925  -0.352  0.00  0.00    +0.170 C 
BRANCH  11  12
ATOM     12  C   LIG    1        4.926  -2.804  -0.571  0.00  0.00    +0.490 C 
ATOM     13  O   LIG    1        5.676  -3.671  -0.155  0.00  0.00    -0.630 OA
ATOM     14  O   LIG    1        5.378  -1.839  -1.163  0.00  0.00    -0.670 OA
ENDBRANCH  11  12
ENDBRANCH   8  11
ENDBRANCH   7   8
BRANCH   1  16
ATOM     15  C   LIG    1       -0.017   1.425   0.010  0.00  0.00    +0.240 C 
ATOM     16  O   LIG    1        0.002  -0.004   0.002  0.00  0.00    -0.360 OA
ENDBRANCH   1  16
TORSDOF 4
ENDMDL
MODEL     1120
REMARK  Name = ZINC000003118440
REMARK                            x       y       z     vdW  Elec       q    Type
REMARK                         _______ _______ _______ _____ _____    ______ ____
ROOT
ATOM      1  C   LIG    1       -0.018   1.461   0.010  0.00  0.00    +0.340 C 
ATOM      2  N   LIG    1        0.002  -0.004   0.002  0.00  0.00    -0.510 N 
ATOM      3  C   LIG    1       -1.186  -0.701   0.004  0.00  0.00    +0.250 A 
ATOM      4  C   LIG    1       -1.157  -2.088  -0.004  0.00  0.00    -0.060 A 
ATOM      5  C   LIG    1        0.145  -2.755  -0.013  0.00  0.00    +0.590 A 
ATOM      6  N   LIG    1        1.260  -1.994  -0.014  0.00  0.00    -0.550 N 
ATOM      7  C   LIG    1        2.575  -2.639  -0.024  0.00  0.00    +0.340 C 
ATOM      8  O   LIG    1        0.221  -3.970  -0.021  0.00  0.00    -0.480 OA
ATOM      9  N   LIG    1       -2.444  -2.524   0.000  0.00  0.00    -0.460 NA
ATOM     10  C   LIG    1       -3.244  -1.488   0.010  0.00  0.00    +0.510 A 
ATOM     11  N   LIG    1       -2.500  -0.340   0.012  0.00  0.00    -0.580 N 
ATOM     12  H   LIG    1       -2.846   0.567   0.019  0.00  0.00    +0.420 HD
ATOM     13  C   LIG    1        1.180  -0.652  -0.013  0.00  0.00    +0.710 A 
ATOM     14  O   LIG    1        2.208  -0.003  -0.013  0.00  0.00    -0.530 OA
ENDROOT
BRANCH  10  15
ATOM     15  N   LIG    1       -4.627  -1.546   0.017  0.00  0.00    -0.700 N 
ATOM     16  H   LIG    1       -5.077  -2.405   0.014  0.00  0.00    +0.430 HD
BRANCH  15  17
ATOM     17  C   LIG    1       -5.412  -0.308   0.028  0.00  0.00    +0.270 C 
BRANCH  17  18
ATOM     18  C   LIG    1       -6.903  -0.650   0.034  0.00  0.00    +0.200 C 
BRANCH  18  19
ATOM     19  O   LIG    1       -7.234  -1.318   1.253  0.00  0.00    -0.570 OA
ATOM     20  H   LIG    1       -8.166  -1.565   1.326  0.00  0.00    +0.390 HD
ENDBRANCH  18  19
ENDBRANCH  17  18
ENDBRANCH  15  17
ENDBRANCH  10  15
TORSDOF 4
ENDMDL
MODEL     1121
REMARK  Name = ZINC000003123997
REMARK                            x       y       z     vdW  Elec       q    Type
REMARK                         _______ _______ _______ _____ _____    ______ ____
ROOT
ATOM      1  C   LIG    1        0.652  -0.570  -1.138  0.00  0.00    +0.190 C 
ATOM      2  C   LIG    1       -0.388  -0.767  -2.260  0.00  0.00    -0.290 C 
ATOM      3  S   LIG    1        0.193  -2.300  -3.091  0.00  0.00    +2.410 S 
ATOM      4  C   LIG    1        0.786  -3.082  -1.536  0.00  0.00    -0.290 C 
ATOM      5  O   LIG    1        1.298  -2.003  -3.934  0.00  0.00    -0.900 OA
ATOM      6  O   LIG    1       -0.920  -3.023  -3.599  0.00  0.00    -0.900 OA
ATOM      7  C   LIG    1        1.313  -1.881  -0.730  0.00  0.00    +0.200 C 
ENDROOT
BRANCH   7   8
ATOM      8  N   LIG    1        1.057  -2.117   0.698  0.00  0.00    -0.470 N 
ATOM      9  H   LIG    1        0.079  -2.325   0.834  0.00  0.00    +0.430 HD
ATOM     10  H   LIG    1        1.302  -1.292   1.224  0.00  0.00    +0.440 HD
BRANCH   8  11
ATOM     11  C   LIG    1        1.868  -3.251   1.160  0.00  0.00    +0.170 C 
BRANCH  11  12
ATOM     12  C   LIG    1        1.605  -3.493   2.624  0.00  0.00    +0.480 C 
ATOM     13  O   LIG    1        2.182  -4.396   3.206  0.00  0.00    -0.640 OA
ATOM     14  O   LIG    1        0.815  -2.786   3.226  0.00  0.00    -0.670 OA
ENDBRANCH  11  12
ENDBRANCH   8  11
ENDBRANCH   7   8
BRANCH   1  16
ATOM     15  C   LIG    1       -0.017   1.425   0.010  0.00  0.00    +0.260 C 
ATOM     16  O   LIG    1        0.002  -0.004   0.002  0.00  0.00    -0.390 OA
ENDBRANCH   1  16
TORSDOF 4
ENDMDL
MODEL     1122
REMARK  Name = ZINC000080570593
REMARK                            x       y       z     vdW  Elec       q    Type
REMARK                         _______ _______ _______ _____ _____    ______ ____
ROOT
ATOM      1  C   LIG    1       -0.019   1.526   0.010  0.00  0.00    +0.070 C 
ATOM      2  C   LIG    1        0.002  -0.004   0.002  0.00  0.00    +0.120 C 
ATOM      3  O   LIG    1       -1.342  -0.526   0.082  0.00  0.00    -0.310 OA
ATOM      4  C   LIG    1       -1.197  -1.881   0.559  0.00  0.00    +0.430 C 
ATOM      5  C   LIG    1       -0.098  -1.802   1.642  0.00  0.00    +0.160 C 
ATOM      6  C   LIG    1        0.711  -0.539   1.266  0.00  0.00    +0.120 C 
ENDROOT
BRANCH   4   7
ATOM      7  N   LIG    1       -2.456  -2.355   1.140  0.00  0.00    -0.510 N 
ATOM      8  C   LIG    1       -2.522  -3.611   1.685  0.00  0.00    +0.350 A 
ATOM      9  C   LIG    1       -3.682  -4.046   2.221  0.00  0.00    -0.070 A 
ATOM     10  C   LIG    1       -4.812  -3.191   2.206  0.00  0.00    +0.540 A 
ATOM     11  N   LIG    1       -4.705  -1.963   1.660  0.00  0.00    -0.650 N 
ATOM     12  H   LIG    1       -5.474  -1.372   1.646  0.00  0.00    +0.440 HD
ATOM     13  O   LIG    1       -5.870  -3.561   2.683  0.00  0.00    -0.490 OA
ATOM     14  F   LIG    1       -3.765  -5.281   2.763  0.00  0.00    -0.100 F 
ATOM     15  C   LIG    1       -3.535  -1.552   1.137  0.00  0.00    +0.690 A 
ATOM     16  O   LIG    1       -3.454  -0.441   0.649  0.00  0.00    -0.490 OA
ENDBRANCH   4   7
BRANCH   5  17
ATOM     17  O   LIG    1       -0.682  -1.660   2.938  0.00  0.00    -0.530 OA
ATOM     18  H   LIG    1       -0.037  -1.606   3.657  0.00  0.00    +0.390 HD
ENDBRANCH   5  17
BRANCH   6  19
ATOM     19  O   LIG    1        0.654   0.424   2.319  0.00  0.00    -0.540 OA
ATOM     20  H   LIG    1        1.145   1.237   2.136  0.00  0.00    +0.380 HD
ENDBRANCH   6  19
TORSDOF 3
ENDMDL
MODEL     1123
REMARK  Name = ZINC000003173542
REMARK                            x       y       z     vdW  Elec       q    Type
REMARK                         _______ _______ _______ _____ _____    ______ ____
ROOT
ATOM      1  C   LIG    1       -0.093   1.421  -0.373  0.00  0.00    +0.330 C 
ATOM      2  N   LIG    1       -0.034  -0.031  -0.186  0.00  0.00    -0.560 N 
ATOM      3  C   LIG    1        0.013  -0.842  -1.262  0.00  0.00    +0.560 A 
ATOM      4  C   LIG    1        0.070  -2.233  -1.080  0.00  0.00    -0.240 A 
ATOM      5  C   LIG    1        0.076  -2.736   0.191  0.00  0.00    +0.480 A 
ATOM      6  N   LIG    1        0.027  -1.873   1.259  0.00  0.00    -0.550 N 
ATOM      7  C   LIG    1        0.034  -2.403   2.625  0.00  0.00    +0.330 C 
ATOM      8  O   LIG    1        0.006  -0.370  -2.386  0.00  0.00    -0.530 OA
ATOM      9  C   LIG    1       -0.021  -0.543   1.058  0.00  0.00    +0.710 A 
ATOM     10  O   LIG    1       -0.064   0.206   2.014  0.00  0.00    -0.540 OA
ENDROOT
BRANCH   5  11
ATOM     11  N   LIG    1        0.131  -4.091   0.399  0.00  0.00    -0.720 N 
ATOM     12  H   LIG    1        0.221  -4.440   1.299  0.00  0.00    +0.410 HD
BRANCH  11  13
ATOM     13  C   LIG    1        0.055  -5.010  -0.740  0.00  0.00    +0.290 C 
BRANCH  13  14
ATOM     14  C   LIG    1        0.015  -6.452  -0.230  0.00  0.00    +0.020 C 
BRANCH  14  15
ATOM     15  C   LIG    1       -0.065  -7.411  -1.419  0.00  0.00    +0.180 C 
BRANCH  15  16
ATOM     16  O   LIG    1       -0.103  -8.758  -0.942  0.00  0.00    -0.570 OA
ATOM     17  H   LIG    1       -0.153  -9.422  -1.643  0.00  0.00    +0.390 HD
ENDBRANCH  15  16
ENDBRANCH  14  15
ENDBRANCH  13  14
ENDBRANCH  11  13
ENDBRANCH   5  11
TORSDOF 5
ENDMDL
MODEL     1124
REMARK  Name = ZINC000016137614
REMARK                            x       y       z     vdW  Elec       q    Type
REMARK                         _______ _______ _______ _____ _____    ______ ____
ROOT
ATOM      1  C   LIG    1        2.454   1.494  -0.010  0.00  0.00    +0.420 C 
ENDROOT
BRANCH   1   7
ATOM      2  O   LIG    1        0.002  -0.004   0.002  0.00  0.00    -0.530 OA
ATOM      3  C   LIG    1       -0.014   1.209   0.009  0.00  0.00    +0.520 C 
ATOM      4  C   LIG    1       -1.266   2.058   0.032  0.00  0.00    +0.050 C 
ATOM      5  C   LIG    1       -0.765   3.459   0.452  0.00  0.00    +0.050 C 
ATOM      6  C   LIG    1        0.711   3.415   0.001  0.00  0.00    +0.250 C 
ATOM      7  N   LIG    1        1.077   1.993   0.003  0.00  0.00    -0.630 N 
ENDBRANCH   1   7
BRANCH   1   8
ATOM      8  O   LIG    1        2.627   0.601  -1.112  0.00  0.00    -0.530 OA
ATOM      9  H   LIG    1        2.044  -0.170  -1.088  0.00  0.00    +0.390 HD
ENDBRANCH   1   8
BRANCH   1  10
ATOM     10  C   LIG    1        2.740   0.752   1.297  0.00  0.00    +0.430 C 
BRANCH  10  11
ATOM     11  N   LIG    1        4.117   0.253   1.285  0.00  0.00    -0.650 N 
ATOM     12  C   LIG    1        5.141   0.624   2.269  0.00  0.00    +0.250 C 
ATOM     13  C   LIG    1        6.251  -0.441   2.129  0.00  0.00    +0.040 C 
ATOM     14  C   LIG    1        6.056  -0.910   0.668  0.00  0.00    +0.060 C 
ATOM     15  C   LIG    1        4.603  -0.608   0.374  0.00  0.00    +0.520 C 
ATOM     16  O   LIG    1        3.971  -1.069  -0.552  0.00  0.00    -0.500 OA
ENDBRANCH  10  11
BRANCH  10  17
ATOM     17  O   LIG    1        2.567   1.645   2.399  0.00  0.00    -0.540 OA
ATOM     18  H   LIG    1        3.150   2.417   2.376  0.00  0.00    +0.380 HD
ENDBRANCH  10  17
ENDBRANCH   1  10
TORSDOF 5
ENDMDL
MODEL     1125
REMARK  Name = ZINC000004793240
REMARK                            x       y       z     vdW  Elec       q    Type
REMARK                         _______ _______ _______ _____ _____    ______ ____
ROOT
ATOM      1  N   LIG    1        0.120  -0.096  -2.628  0.00  0.00    -0.470 N 
ATOM      2  H1  LIG    1       -0.193   0.859  -2.528  0.00  0.00    +0.410 HD
ATOM      3  H2  LIG    1       -0.664  -0.682  -2.872  0.00  0.00    +0.430 HD
ENDROOT
BRANCH   1   4
ATOM      4  C   LIG    1        1.135  -0.170  -3.687  0.00  0.00    +0.200 C 
ATOM      5  C   LIG    1        1.459  -1.655  -3.997  0.00  0.00    -0.240 C 
ATOM      6  S   LIG    1        2.254  -1.510  -5.648  0.00  0.00    +2.400 S 
ATOM      7  C   LIG    1        1.184  -0.142  -6.232  0.00  0.00    -0.310 C 
ATOM      8  O   LIG    1        1.993  -2.682  -6.407  0.00  0.00    -0.910 OA
ATOM      9  O   LIG    1        3.587  -1.041  -5.496  0.00  0.00    -0.910 OA
ATOM     10  C   LIG    1        0.599   0.488  -4.960  0.00  0.00    +0.210 C 
BRANCH  10  11
ATOM     11  O   LIG    1        0.935   1.876  -4.934  0.00  0.00    -0.550 OA
ATOM     12  H   LIG    1        0.577   2.382  -5.676  0.00  0.00    +0.400 HD
ENDBRANCH  10  11
ENDBRANCH   1   4
BRANCH   1  13
ATOM     13  CA  LIG    1        0.700  -0.556  -1.360  0.00  0.00    +0.070 C 
BRANCH  13  14
ATOM     14  C   LIG    1        0.961  -2.039  -1.436  0.00  0.00    +0.490 C 
ATOM     15  OXT LIG    1        1.945  -2.513  -0.895  0.00  0.00    -0.630 OA
ATOM     16  O   LIG    1        0.187  -2.764  -2.038  0.00  0.00    -0.660 OA
ENDBRANCH  13  14
BRANCH  13  18
ATOM     17  C   LIG    1       -0.444   1.244  -0.060  0.00  0.00    +0.030 C 
ATOM     18  C   LIG    1       -0.276  -0.268  -0.217  0.00  0.00    +0.070 C 
ENDBRANCH  13  18
ENDBRANCH   1  13
TORSDOF 5
ENDMDL
MODEL     1126
REMARK  Name = ZINC000247918592
REMARK                            x       y       z     vdW  Elec       q    Type
REMARK                         _______ _______ _______ _____ _____    ______ ____
ROOT
ATOM      1  C   LIG    1       -0.018   1.503  -0.009  0.00  0.00    +0.100 C 
ATOM      2  C   LIG    1        0.002  -0.004   0.002  0.00  0.00    +0.520 C 
ATOM      3  N   LIG    1       -1.156  -0.694   0.009  0.00  0.00    -0.610 N 
ATOM      4  C   LIG    1       -2.467  -0.023   0.128  0.00  0.00    +0.250 C 
ATOM      5  C   LIG    1       -3.411  -0.520  -0.967  0.00  0.00    +0.220 C 
ATOM      6  N   LIG    1       -3.438  -1.994  -1.016  0.00  0.00    -0.650 NA
ATOM      7  H   LIG    1       -3.793  -2.378  -0.153  0.00  0.00    +0.350 HD
ATOM      8  C   LIG    1       -2.098  -2.496  -1.299  0.00  0.00    +0.180 C 
ATOM      9  C   LIG    1       -2.016  -4.025  -1.448  0.00  0.00    -0.290 C 
ATOM     10  S   LIG    1       -0.209  -4.319  -1.276  0.00  0.00    +2.380 S 
ATOM     11  C   LIG    1        0.176  -2.789  -0.340  0.00  0.00    -0.260 C 
ATOM     12  O   LIG    1        0.403  -4.258  -2.558  0.00  0.00    -0.930 OA
ATOM     13  O   LIG    1        0.008  -5.449  -0.442  0.00  0.00    -0.930 OA
ATOM     14  C   LIG    1       -1.191  -2.150  -0.106  0.00  0.00    +0.200 C 
ATOM     15  O   LIG    1        1.061  -0.596   0.004  0.00  0.00    -0.530 OA
ENDROOT
TORSDOF 0
ENDMDL
MODEL     1127
REMARK  Name = ZINC000004793234
REMARK                            x       y       z     vdW  Elec       q    Type
REMARK                         _______ _______ _______ _____ _____    ______ ____
ROOT
ATOM      1  N   LIG    1       -0.057  -0.113  -2.444  0.00  0.00    -0.460 N 
ATOM      2  H1  LIG    1       -0.214   0.884  -2.435  0.00  0.00    +0.410 HD
ATOM      3  H2  LIG    1       -0.945  -0.593  -2.436  0.00  0.00    +0.440 HD
ENDROOT
BRANCH   1   4
ATOM      4  C   LIG    1        0.688  -0.480  -3.655  0.00  0.00    +0.220 C 
ATOM      5  C   LIG    1        1.991   0.342  -3.710  0.00  0.00    -0.290 C 
ATOM      6  S   LIG    1        2.224   0.621  -5.512  0.00  0.00    +2.410 S 
ATOM      7  C   LIG    1        0.425   0.765  -5.861  0.00  0.00    -0.310 C 
ATOM      8  O   LIG    1        2.740  -0.556  -6.119  0.00  0.00    -0.900 OA
ATOM      9  O   LIG    1        2.858   1.874  -5.728  0.00  0.00    -0.910 OA
ATOM     10  C   LIG    1       -0.197  -0.238  -4.872  0.00  0.00    +0.220 C 
BRANCH  10  11
ATOM     11  O   LIG    1       -1.459   0.267  -4.431  0.00  0.00    -0.570 OA
ATOM     12  H   LIG    1       -2.105   0.385  -5.141  0.00  0.00    +0.410 HD
ENDBRANCH  10  11
ENDBRANCH   1   4
BRANCH   1  13
ATOM     13  CA  LIG    1        0.718  -0.497  -1.257  0.00  0.00    +0.070 C 
BRANCH  13  14
ATOM     14  C   LIG    1        0.847  -1.998  -1.206  0.00  0.00    +0.490 C 
ATOM     15  OXT LIG    1        1.829  -2.508  -0.694  0.00  0.00    -0.640 OA
ATOM     16  O   LIG    1       -0.030  -2.702  -1.676  0.00  0.00    -0.670 OA
ENDBRANCH  13  14
BRANCH  13  18
ATOM     17  C   LIG    1       -0.019   1.526   0.010  0.00  0.00    +0.030 C 
ATOM     18  C   LIG    1        0.002  -0.004   0.002  0.00  0.00    +0.060 C 
ENDBRANCH  13  18
ENDBRANCH   1  13
TORSDOF 5
ENDMDL
MODEL     1128
REMARK  Name = ZINC000003667987
REMARK                            x       y       z     vdW  Elec       q    Type
REMARK                         _______ _______ _______ _____ _____    ______ ____
ROOT
ATOM      1  C   LIG    1        0.358   0.590  -0.413  0.00  0.00    +0.160 C 
ATOM      2  C   LIG    1        0.080  -0.871  -0.171  0.00  0.00    +0.160 A 
ATOM      3  C   LIG    1       -1.184  -1.294   0.062  0.00  0.00    -0.010 A 
ATOM      4  C   LIG    1       -1.417  -2.677   0.287  0.00  0.00    +0.540 A 
ATOM      5  N   LIG    1       -0.378  -3.536   0.263  0.00  0.00    -0.640 N 
ATOM      6  H   LIG    1       -0.530  -4.482   0.416  0.00  0.00    +0.440 HD
ATOM      7  C   LIG    1        0.869  -3.088   0.029  0.00  0.00    +0.700 A 
ATOM      8  O   LIG    1        1.795  -3.877   0.012  0.00  0.00    -0.530 OA
ATOM      9  O   LIG    1       -2.546  -3.084   0.498  0.00  0.00    -0.480 OA
ATOM     10  N   LIG    1        1.108  -1.783  -0.191  0.00  0.00    -0.620 N 
ATOM     11  H   LIG    1        2.014  -1.481  -0.357  0.00  0.00    +0.440 HD
ENDROOT
BRANCH   3  12
ATOM     12  N   LIG    1       -2.251  -0.378   0.081  0.00  0.00    -1.030 N 
ATOM     13  H   LIG    1       -2.094   0.555  -0.135  0.00  0.00    +0.430 HD
BRANCH  12  14
ATOM     14  S   LIG    1       -3.776  -0.891   0.472  0.00  0.00    +2.620 S 
ATOM     15  O   LIG    1       -4.030  -1.957  -0.433  0.00  0.00    -0.920 OA
ATOM     16  O   LIG    1       -4.561   0.293   0.448  0.00  0.00    -0.960 OA
ATOM     17  C   LIG    1       -3.622  -1.518   2.167  0.00  0.00    -0.280 C 
ENDBRANCH  12  14
ENDBRANCH   3  12
TORSDOF 2
ENDMDL
MODEL     1129
REMARK  Name = ZINC000003844372
REMARK                            x       y       z     vdW  Elec       q    Type
REMARK                         _______ _______ _______ _____ _____    ______ ____
ROOT
ATOM      1  C   LIG    1       -0.018   1.503   0.010  0.00  0.00    +0.150 C 
ATOM      2  C   LIG    1        0.002  -0.004   0.002  0.00  0.00    +0.200 A 
ATOM      3  C   LIG    1       -1.156  -0.698   0.004  0.00  0.00    -0.270 A 
ATOM      4  C   LIG    1       -1.111  -2.113  -0.005  0.00  0.00    +0.550 A 
ATOM      5  N   LIG    1        0.084  -2.737  -0.014  0.00  0.00    -0.560 N 
ATOM      6  C   LIG    1        1.224  -2.020  -0.016  0.00  0.00    +0.690 A 
ATOM      7  O   LIG    1        2.294  -2.597  -0.024  0.00  0.00    -0.540 OA
ATOM      8  C   LIG    1        0.143  -4.201  -0.023  0.00  0.00    +0.330 C 
ATOM      9  O   LIG    1       -2.142  -2.761  -0.004  0.00  0.00    -0.510 OA
ATOM     10  N   LIG    1        1.194  -0.675  -0.013  0.00  0.00    -0.530 N 
ATOM     11  C   LIG    1        2.451   0.078  -0.015  0.00  0.00    +0.340 C 
ENDROOT
BRANCH   3  12
ATOM     12  C   LIG    1       -2.479   0.024   0.014  0.00  0.00    +0.150 C 
BRANCH  12  13
ATOM     13  C   LIG    1       -2.994   0.166  -1.420  0.00  0.00    +0.050 C 
BRANCH  13  14
ATOM     14  C   LIG    1       -4.316   0.887  -1.410  0.00  0.00    +0.520 C 
ATOM     15  O   LIG    1       -4.800   1.252  -0.359  0.00  0.00    -0.540 OA
ATOM     16  N   LIG    1       -4.962   1.127  -2.568  0.00  0.00    -0.860 N 
ATOM     17  H   LIG    1       -5.814   1.592  -2.562  0.00  0.00    +0.400 HD
ATOM     18  H   LIG    1       -4.575   0.835  -3.409  0.00  0.00    +0.400 HD
ENDBRANCH  13  14
ENDBRANCH  12  13
ENDBRANCH   3  12
TORSDOF 3
ENDMDL
MODEL     1130
REMARK  Name = ZINC000003830625
REMARK                            x       y       z     vdW  Elec       q    Type
REMARK                         _______ _______ _______ _____ _____    ______ ____
ROOT
ATOM      1  C1*   C A  1        0.001  -4.173  -0.023  0.00  0.00    +0.420 C 
ATOM      2  O4*   C A  1        1.345  -4.699   0.038  0.00  0.00    -0.350 OA
ATOM      3  C4*   C A  1        1.201  -6.054   0.516  0.00  0.00    +0.150 C 
ATOM      4  C3*   C A  1        0.118  -5.973   1.615  0.00  0.00    +0.130 C 
ATOM      5  C2*   C A  1       -0.692  -4.706   1.251  0.00  0.00    +0.180 C 
ENDROOT
BRANCH   1   9
ATOM      6  C4    C A  1        0.002  -0.004   0.002  0.00  0.00    +0.500 A 
ATOM      7  N3    C A  1       -1.135  -0.687   0.004  0.00  0.00    -0.610 NA
ATOM      8  C2    C A  1       -1.129  -2.018  -0.004  0.00  0.00    +0.650 A 
ATOM      9  N1    C A  1        0.026  -2.708  -0.014  0.00  0.00    -0.530 N 
ATOM     10  C6    C A  1        1.220  -2.050  -0.016  0.00  0.00    +0.390 A 
ATOM     11  O2    C A  1       -2.189  -2.623  -0.003  0.00  0.00    -0.510 OA
ATOM     12  C5    C A  1        1.230  -0.697  -0.013  0.00  0.00    -0.150 A 
BRANCH   6  13
ATOM     13  N4    C A  1       -0.017   1.371   0.010  0.00  0.00    -0.810 N 
ATOM     14  H41   C A  1       -0.863   1.845   0.016  0.00  0.00    +0.410 HD
ATOM     15  H42   C A  1        0.817   1.868   0.004  0.00  0.00    +0.420 HD
ENDBRANCH   6  13
ENDBRANCH   1   9
BRANCH   4  16
ATOM     16  O3*   C A  1        0.721  -5.834   2.903  0.00  0.00    -0.550 OA
ATOM     17  H3*   C A  1        1.288  -6.576   3.154  0.00  0.00    +0.380 HD
ENDBRANCH   4  16
BRANCH   5  18
ATOM     18  O2*   C A  1       -2.055  -5.043   0.983  0.00  0.00    -0.520 OA
ATOM     19  H2*   C A  1       -2.517  -5.438   1.735  0.00  0.00    +0.390 HD
ENDBRANCH   5  18
BRANCH   3  20
ATOM     20  C5*   C A  1        2.523  -6.554   1.103  0.00  0.00    +0.220 C 
BRANCH  20  21
ATOM     21  O5*   C A  1        3.495  -6.664   0.062  0.00  0.00    -0.560 OA
ATOM     22  H5*   C A  1        4.360  -6.976   0.363  0.00  0.00    +0.390 HD
ENDBRANCH  20  21
ENDBRANCH   3  20
TORSDOF 6
ENDMDL
MODEL     1131
REMARK  Name = ZINC000003830624
REMARK                            x       y       z     vdW  Elec       q    Type
REMARK                         _______ _______ _______ _____ _____    ______ ____
ROOT
ATOM      1  C1*   C A  1        0.001  -4.173  -0.023  0.00  0.00    +0.440 C 
ATOM      2  O4*   C A  1       -0.935  -4.653  -1.012  0.00  0.00    -0.330 OA
ATOM      3  C4*   C A  1       -2.238  -4.503  -0.408  0.00  0.00    +0.120 C 
ATOM      4  C3*   C A  1       -2.043  -4.931   1.063  0.00  0.00    +0.130 C 
ATOM      5  C2*   C A  1       -0.534  -4.709   1.324  0.00  0.00    +0.180 C 
ENDROOT
BRANCH   1   9
ATOM      6  C4    C A  1        0.124  -0.006   0.052  0.00  0.00    +0.510 A 
ATOM      7  N3    C A  1        0.928  -0.727   0.823  0.00  0.00    -0.610 NA
ATOM      8  C2    C A  1        0.884  -2.058   0.794  0.00  0.00    +0.660 A 
ATOM      9  N1    C A  1        0.026  -2.708  -0.014  0.00  0.00    -0.550 N 
ATOM     10  C6    C A  1       -0.819  -2.010  -0.823  0.00  0.00    +0.370 A 
ATOM     11  O2    C A  1        1.634  -2.698   1.512  0.00  0.00    -0.530 OA
ATOM     12  C5    C A  1       -0.791  -0.657  -0.802  0.00  0.00    -0.140 A 
BRANCH   6  13
ATOM     13  N4    C A  1        0.178   1.368   0.090  0.00  0.00    -0.810 N 
ATOM     14  H41   C A  1        0.805   1.812   0.682  0.00  0.00    +0.410 HD
ATOM     15  H42   C A  1       -0.414   1.892  -0.471  0.00  0.00    +0.420 HD
ENDBRANCH   6  13
ENDBRANCH   1   9
BRANCH   4  16
ATOM     16  O3*   C A  1       -2.386  -6.308   1.233  0.00  0.00    -0.540 OA
ATOM     17  H3*   C A  1       -3.308  -6.513   1.025  0.00  0.00    +0.380 HD
ENDBRANCH   4  16
BRANCH   5  18
ATOM     18  O2*   C A  1        0.102  -5.943   1.664  0.00  0.00    -0.530 OA
ATOM     19  H2*   C A  1       -0.241  -6.353   2.470  0.00  0.00    +0.390 HD
ENDBRANCH   5  18
BRANCH   3  20
ATOM     20  C5*   C A  1       -3.254  -5.413  -1.101  0.00  0.00    +0.210 C 
BRANCH  20  21
ATOM     21  O5*   C A  1       -3.451  -4.971  -2.446  0.00  0.00    -0.570 OA
ATOM     22  H5*   C A  1       -4.084  -5.503  -2.946  0.00  0.00    +0.390 HD
ENDBRANCH  20  21
ENDBRANCH   3  20
TORSDOF 6
ENDMDL
MODEL     1132
REMARK  Name = ZINC000003830623
REMARK                            x       y       z     vdW  Elec       q    Type
REMARK                         _______ _______ _______ _____ _____    ______ ____
ROOT
ATOM      1  C1*   C A  1        0.001  -4.173  -0.023  0.00  0.00    +0.420 C 
ATOM      2  O4*   C A  1        1.345  -4.699   0.038  0.00  0.00    -0.360 OA
ATOM      3  C4*   C A  1        1.201  -6.054   0.516  0.00  0.00    +0.150 C 
ATOM      4  C3*   C A  1        0.118  -5.973   1.615  0.00  0.00    +0.130 C 
ATOM      5  C2*   C A  1       -0.692  -4.706   1.251  0.00  0.00    +0.190 C 
ENDROOT
BRANCH   1   9
ATOM      6  C4    C A  1        0.002  -0.004   0.002  0.00  0.00    +0.510 A 
ATOM      7  N3    C A  1       -1.135  -0.687   0.004  0.00  0.00    -0.620 NA
ATOM      8  C2    C A  1       -1.129  -2.018  -0.004  0.00  0.00    +0.670 A 
ATOM      9  N1    C A  1        0.026  -2.708  -0.014  0.00  0.00    -0.520 N 
ATOM     10  C6    C A  1        1.220  -2.050  -0.016  0.00  0.00    +0.400 A 
ATOM     11  O2    C A  1       -2.189  -2.623  -0.003  0.00  0.00    -0.550 OA
ATOM     12  C5    C A  1        1.230  -0.697  -0.013  0.00  0.00    -0.170 A 
BRANCH   6  13
ATOM     13  N4    C A  1       -0.017   1.371   0.010  0.00  0.00    -0.820 N 
ATOM     14  H41   C A  1       -0.863   1.845   0.016  0.00  0.00    +0.410 HD
ATOM     15  H42   C A  1        0.817   1.868   0.004  0.00  0.00    +0.410 HD
ENDBRANCH   6  13
ENDBRANCH   1   9
BRANCH   4  16
ATOM     16  O3*   C A  1        0.721  -5.834   2.903  0.00  0.00    -0.540 OA
ATOM     17  H3*   C A  1        1.288  -6.576   3.154  0.00  0.00    +0.380 HD
ENDBRANCH   4  16
BRANCH   5  18
ATOM     18  O2*   C A  1       -0.616  -3.744   2.304  0.00  0.00    -0.530 OA
ATOM     19  H2*   C A  1       -0.982  -4.051   3.145  0.00  0.00    +0.390 HD
ENDBRANCH   5  18
BRANCH   3  20
ATOM     20  C5*   C A  1        2.523  -6.554   1.103  0.00  0.00    +0.210 C 
BRANCH  20  21
ATOM     21  O5*   C A  1        3.495  -6.664   0.062  0.00  0.00    -0.560 OA
ATOM     22  H5*   C A  1        4.360  -6.976   0.363  0.00  0.00    +0.390 HD
ENDBRANCH  20  21
ENDBRANCH   3  20
TORSDOF 6
ENDMDL
MODEL     1133
REMARK  Name = ZINC000003817231
REMARK                            x       y       z     vdW  Elec       q    Type
REMARK                         _______ _______ _______ _____ _____    ______ ____
ROOT
ATOM      1  C   LIG    1        0.001  -4.173  -0.023  0.00  0.00    +0.390 C 
ATOM      2  O   LIG    1       -0.820  -4.641  -1.105  0.00  0.00    -0.330 OA
ATOM      3  C   LIG    1       -1.464  -5.852  -0.653  0.00  0.00    +0.200 C 
ATOM      4  C   LIG    1       -1.837  -5.536   0.818  0.00  0.00    +0.170 C 
ATOM      5  C   LIG    1       -0.621  -4.694   1.287  0.00  0.00    +0.130 C 
ATOM      6  F   LIG    1        0.289  -5.495   1.985  0.00  0.00    -0.180 F 
ENDROOT
BRANCH   1  10
ATOM      7  C   LIG    1        0.002  -0.004   0.002  0.00  0.00    +0.510 A 
ATOM      8  N   LIG    1       -1.135  -0.687   0.004  0.00  0.00    -0.620 NA
ATOM      9  C   LIG    1       -1.129  -2.018  -0.004  0.00  0.00    +0.660 A 
ATOM     10  N   LIG    1        0.026  -2.708  -0.014  0.00  0.00    -0.540 N 
ATOM     11  C   LIG    1        1.220  -2.050  -0.016  0.00  0.00    +0.380 A 
ATOM     12  O   LIG    1       -2.189  -2.623  -0.003  0.00  0.00    -0.530 OA
ATOM     13  C   LIG    1        1.230  -0.697  -0.013  0.00  0.00    -0.140 A 
BRANCH   7  14
ATOM     14  N   LIG    1       -0.017   1.371   0.010  0.00  0.00    -0.810 N 
ATOM     15  H   LIG    1       -0.863   1.845   0.016  0.00  0.00    +0.410 HD
ATOM     16  H   LIG    1        0.817   1.868   0.004  0.00  0.00    +0.420 HD
ENDBRANCH   7  14
ENDBRANCH   1  10
BRANCH   4  17
ATOM     17  O   LIG    1       -1.951  -6.736   1.584  0.00  0.00    -0.540 OA
ATOM     18  H   LIG    1       -2.183  -6.590   2.511  0.00  0.00    +0.390 HD
ENDBRANCH   4  17
BRANCH   3  19
ATOM     19  C   LIG    1       -2.718  -6.137  -1.481  0.00  0.00    +0.220 C 
BRANCH  19  20
ATOM     20  O   LIG    1       -2.342  -6.438  -2.827  0.00  0.00    -0.570 OA
ATOM     21  H   LIG    1       -3.090  -6.630  -3.410  0.00  0.00    +0.380 HD
ENDBRANCH  19  20
ENDBRANCH   3  19
TORSDOF 5
ENDMDL
MODEL     1134
REMARK  Name = ZINC000003846749
REMARK                            x       y       z     vdW  Elec       q    Type
REMARK                         _______ _______ _______ _____ _____    ______ ____
ROOT
ATOM      1  C   LIG    1       -0.018   1.461   0.010  0.00  0.00    +0.340 C 
ATOM      2  N   LIG    1        0.002  -0.004   0.002  0.00  0.00    -0.540 N 
ATOM      3  C   LIG    1       -1.177  -0.698   0.004  0.00  0.00    +0.350 A 
ATOM      4  C   LIG    1       -1.159  -2.048  -0.004  0.00  0.00    -0.260 A 
ATOM      5  C   LIG    1        0.087  -2.720  -0.014  0.00  0.00    +0.550 A 
ATOM      6  N   LIG    1        1.227  -2.000  -0.016  0.00  0.00    -0.560 N 
ATOM      7  C   LIG    1        2.522  -2.684  -0.026  0.00  0.00    +0.330 C 
ATOM      8  O   LIG    1        0.129  -3.937  -0.022  0.00  0.00    -0.510 OA
ATOM      9  C   LIG    1        1.180  -0.654  -0.013  0.00  0.00    +0.690 A 
ATOM     10  O   LIG    1        2.216  -0.018  -0.015  0.00  0.00    -0.540 OA
ENDROOT
BRANCH   4  11
ATOM     11  C   LIG    1       -2.448  -2.829  -0.003  0.00  0.00    +0.150 C 
BRANCH  11  12
ATOM     12  C   LIG    1       -2.825  -3.193  -1.440  0.00  0.00    +0.050 C 
BRANCH  12  13
ATOM     13  C   LIG    1       -4.114  -3.974  -1.439  0.00  0.00    +0.520 C 
ATOM     14  O   LIG    1       -4.675  -4.216  -0.391  0.00  0.00    -0.540 OA
ATOM     15  N   LIG    1       -4.643  -4.404  -2.602  0.00  0.00    -0.860 N 
ATOM     16  H   LIG    1       -5.472  -4.907  -2.601  0.00  0.00    +0.400 HD
ATOM     17  H   LIG    1       -4.194  -4.210  -3.439  0.00  0.00    +0.400 HD
ENDBRANCH  12  13
ENDBRANCH  11  12
ENDBRANCH   4  11
TORSDOF 3
ENDMDL
MODEL     1135
REMARK  Name = ZINC000003855427
REMARK                            x       y       z     vdW  Elec       q    Type
REMARK                         _______ _______ _______ _____ _____    ______ ____
ROOT
ATOM      1  C   LIG    1        0.002  -0.004   0.002  0.00  0.00    +0.630 A 
ATOM      2  N   LIG    1       -1.149  -0.642   0.004  0.00  0.00    -0.570 NA
ATOM      3  C   LIG    1       -1.195  -1.984  -0.003  0.00  0.00    +0.300 A 
ATOM      4  N   LIG    1       -2.140  -2.905  -0.003  0.00  0.00    -0.280 NA
ATOM      5  N   LIG    1       -1.587  -4.069  -0.012  0.00  0.00    -0.180 N 
ATOM      6  H   LIG    1       -2.077  -4.905  -0.014  0.00  0.00    +0.480 HD
ATOM      7  N   LIG    1       -0.300  -3.982  -0.018  0.00  0.00    -0.200 NA
ATOM      8  C   LIG    1        0.035  -2.707  -0.013  0.00  0.00    -0.110 A 
ATOM      9  C   LIG    1        1.275  -1.938  -0.015  0.00  0.00    +0.510 A 
ATOM     10  N   LIG    1        1.184  -0.618  -0.013  0.00  0.00    -0.600 NA
ENDROOT
BRANCH   1  11
ATOM     11  N   LIG    1       -0.017   1.379   0.010  0.00  0.00    -0.810 N 
ATOM     12  H   LIG    1       -0.863   1.853   0.016  0.00  0.00    +0.420 HD
ATOM     13  H   LIG    1        0.817   1.876   0.004  0.00  0.00    +0.420 HD
ENDBRANCH   1  11
BRANCH   9  14
ATOM     14  O   LIG    1        2.479  -2.555  -0.025  0.00  0.00    -0.270 OA
BRANCH  14  15
ATOM     15  C   LIG    1        3.637  -1.718  -0.026  0.00  0.00    +0.200 C 
BRANCH  15  16
ATOM     16  C   LIG    1        4.895  -2.588  -0.037  0.00  0.00    +0.230 C 
BRANCH  16  17
ATOM     17  O   LIG    1        4.957  -3.321  -1.262  0.00  0.00    -0.540 OA
ATOM     18  H   LIG    1        4.988  -2.765  -2.052  0.00  0.00    +0.370 HD
ENDBRANCH  16  17
BRANCH  16  19
ATOM     19  C   LIG    1        6.133  -1.697   0.087  0.00  0.00    +0.170 C 
BRANCH  19  20
ATOM     20  O   LIG    1        7.300  -2.515   0.194  0.00  0.00    -0.560 OA
ATOM     21  H   LIG    1        8.124  -2.015   0.276  0.00  0.00    +0.390 HD
ENDBRANCH  19  20
ENDBRANCH  16  19
ENDBRANCH  15  16
ENDBRANCH  14  15
ENDBRANCH   9  14
TORSDOF 7
ENDMDL
MODEL     1136
REMARK  Name = ZINC000003855428
REMARK                            x       y       z     vdW  Elec       q    Type
REMARK                         _______ _______ _______ _____ _____    ______ ____
ROOT
ATOM      1  C   LIG    1        0.002  -0.004   0.002  0.00  0.00    +0.630 A 
ATOM      2  N   LIG    1       -1.149  -0.642   0.004  0.00  0.00    -0.570 NA
ATOM      3  C   LIG    1       -1.195  -1.984  -0.003  0.00  0.00    +0.300 A 
ATOM      4  N   LIG    1       -2.140  -2.905  -0.003  0.00  0.00    -0.280 NA
ATOM      5  N   LIG    1       -1.587  -4.069  -0.012  0.00  0.00    -0.180 N 
ATOM      6  H   LIG    1       -2.077  -4.905  -0.014  0.00  0.00    +0.480 HD
ATOM      7  N   LIG    1       -0.300  -3.982  -0.018  0.00  0.00    -0.200 NA
ATOM      8  C   LIG    1        0.035  -2.707  -0.013  0.00  0.00    -0.110 A 
ATOM      9  C   LIG    1        1.275  -1.938  -0.015  0.00  0.00    +0.510 A 
ATOM     10  N   LIG    1        1.184  -0.618  -0.013  0.00  0.00    -0.600 NA
ENDROOT
BRANCH   1  11
ATOM     11  N   LIG    1       -0.017   1.379   0.010  0.00  0.00    -0.810 N 
ATOM     12  H   LIG    1       -0.863   1.853   0.016  0.00  0.00    +0.420 HD
ATOM     13  H   LIG    1        0.817   1.876   0.004  0.00  0.00    +0.420 HD
ENDBRANCH   1  11
BRANCH   9  14
ATOM     14  O   LIG    1        2.479  -2.555  -0.025  0.00  0.00    -0.270 OA
BRANCH  14  15
ATOM     15  C   LIG    1        3.637  -1.718  -0.026  0.00  0.00    +0.200 C 
BRANCH  15  16
ATOM     16  C   LIG    1        4.895  -2.588  -0.037  0.00  0.00    +0.230 C 
BRANCH  16  17
ATOM     17  O   LIG    1        4.970  -3.334   1.180  0.00  0.00    -0.540 OA
ATOM     18  H   LIG    1        5.009  -2.785   1.975  0.00  0.00    +0.370 HD
ENDBRANCH  16  17
BRANCH  16  19
ATOM     19  C   LIG    1        6.131  -1.696  -0.165  0.00  0.00    +0.170 C 
BRANCH  19  20
ATOM     20  O   LIG    1        7.297  -2.512  -0.292  0.00  0.00    -0.560 OA
ATOM     21  H   LIG    1        8.120  -2.012  -0.377  0.00  0.00    +0.390 HD
ENDBRANCH  19  20
ENDBRANCH  16  19
ENDBRANCH  15  16
ENDBRANCH  14  15
ENDBRANCH   9  14
TORSDOF 7
ENDMDL
MODEL     1137
REMARK  Name = ZINC000003882161
REMARK                            x       y       z     vdW  Elec       q    Type
REMARK                         _______ _______ _______ _____ _____    ______ ____
ROOT
ATOM      1  C   LIG    1        0.003  -0.004   0.007  0.00  0.00    +0.600 A 
ATOM      2  C   LIG    1       -1.208  -0.747   0.111  0.00  0.00    -0.320 A 
ATOM      3  C   LIG    1       -1.109  -2.223   0.090  0.00  0.00    +0.550 A 
ATOM      4  N   LIG    1        0.114  -2.782  -0.025  0.00  0.00    -0.660 N 
ATOM      5  H   LIG    1        0.197  -3.748  -0.039  0.00  0.00    +0.440 HD
ATOM      6  C   LIG    1        1.216  -2.022  -0.118  0.00  0.00    +0.720 A 
ATOM      7  O   LIG    1        2.294  -2.572  -0.221  0.00  0.00    -0.520 OA
ATOM      8  O   LIG    1       -2.105  -2.915   0.175  0.00  0.00    -0.460 OA
ATOM      9  N   LIG    1        1.177  -0.681  -0.111  0.00  0.00    -0.530 N 
ENDROOT
BRANCH   1  10
ATOM     10  N   LIG    1       -0.015   1.344   0.018  0.00  0.00    -0.760 N 
ATOM     11  H   LIG    1       -0.862   1.818   0.025  0.00  0.00    +0.440 HD
ATOM     12  H   LIG    1        0.818   1.841   0.016  0.00  0.00    +0.420 HD
ENDBRANCH   1  10
BRANCH   2  13
ATOM     13  N   LIG    1       -2.375  -0.142   0.220  0.00  0.00    -0.290 NA
ATOM     14  O   LIG    1       -3.386  -0.796   0.403  0.00  0.00    +0.030 OA
ENDBRANCH   2  13
BRANCH   9  15
ATOM     15  C   LIG    1        2.429   0.071  -0.218  0.00  0.00    +0.340 C 
BRANCH  15  16
ATOM     16  C   LIG    1        2.739   0.338  -1.693  0.00  0.00    +0.200 C 
BRANCH  16  17
ATOM     17  O   LIG    1        1.735   1.194  -2.243  0.00  0.00    -0.580 OA
ATOM     18  H   LIG    1        1.868   1.406  -3.177  0.00  0.00    +0.400 HD
ENDBRANCH  16  17
ENDBRANCH  15  16
ENDBRANCH   9  15
TORSDOF 5
ENDMDL
MODEL     1138
REMARK  Name = ZINC000003881601
REMARK                            x       y       z     vdW  Elec       q    Type
REMARK                         _______ _______ _______ _____ _____    ______ ____
ROOT
ATOM      1  C   LIG    1        2.551  -3.178   0.947  0.00  0.00    +0.130 C 
ATOM      2  C   LIG    1        1.322  -2.417   0.521  0.00  0.00    -0.260 A 
ATOM      3  C   LIG    1        0.118  -3.028   0.483  0.00  0.00    +0.350 A 
ATOM      4  N   LIG    1       -0.988  -2.322   0.095  0.00  0.00    -0.540 N 
ATOM      5  C   LIG    1       -0.887  -1.026  -0.250  0.00  0.00    +0.700 A 
ATOM      6  N   LIG    1        0.300  -0.392  -0.221  0.00  0.00    -0.660 N 
ATOM      7  H   LIG    1        0.355   0.543  -0.472  0.00  0.00    +0.430 HD
ATOM      8  O   LIG    1       -1.883  -0.417  -0.592  0.00  0.00    -0.530 OA
ATOM      9  C   LIG    1        1.413  -1.051   0.161  0.00  0.00    +0.550 A 
ATOM     10  O   LIG    1        2.487  -0.479   0.188  0.00  0.00    -0.500 OA
ENDROOT
BRANCH   4  11
ATOM     11  C   LIG    1       -2.294  -2.985   0.054  0.00  0.00    +0.450 C 
ATOM     12  O   LIG    1       -2.300  -4.108   0.951  0.00  0.00    -0.360 OA
ATOM     13  C   LIG    1       -3.135  -5.122   0.351  0.00  0.00    +0.220 C 
ATOM     14  C   LIG    1       -2.767  -5.049  -1.153  0.00  0.00    +0.170 C 
ATOM     15  C   LIG    1       -2.562  -3.526  -1.364  0.00  0.00    -0.010 C 
BRANCH  14  16
ATOM     16  O   LIG    1       -3.839  -5.535  -1.964  0.00  0.00    -0.540 OA
ATOM     17  H   LIG    1       -4.065  -6.462  -1.802  0.00  0.00    +0.380 HD
ENDBRANCH  14  16
BRANCH  15  18
ATOM     18  C   LIG    1       -1.360  -3.268  -2.275  0.00  0.00    +0.190 C 
BRANCH  18  19
ATOM     19  O   LIG    1       -1.625  -3.800  -3.575  0.00  0.00    -0.560 OA
ATOM     20  H   LIG    1       -0.904  -3.672  -4.206  0.00  0.00    +0.380 HD
ENDBRANCH  18  19
ENDBRANCH  15  18
ENDBRANCH   4  11
TORSDOF 4
ENDMDL
MODEL     1139
REMARK  Name = ZINC000003882072
REMARK                            x       y       z     vdW  Elec       q    Type
REMARK                         _______ _______ _______ _____ _____    ______ ____
ROOT
ATOM      1  O   LIG    1        0.002  -0.004   0.002  0.00  0.00    -0.530 OA
ATOM      2  C   LIG    1       -0.014   1.212   0.009  0.00  0.00    +0.720 A 
ATOM      3  N   LIG    1       -1.199   1.852   0.029  0.00  0.00    -0.610 N 
ATOM      4  H   LIG    1       -2.024   1.343   0.038  0.00  0.00    +0.440 HD
ATOM      5  C   LIG    1       -1.240   3.237   0.037  0.00  0.00    +0.320 A 
ATOM      6  C   LIG    1       -0.044   3.943   0.024  0.00  0.00    -0.160 A 
ATOM      7  N   LIG    1       -0.386   5.281   0.035  0.00  0.00    -0.400 N 
ATOM      8  C   LIG    1       -1.731   5.344   0.054  0.00  0.00    +0.510 A 
ATOM      9  C   LIG    1        1.175   3.232   0.003  0.00  0.00    +0.600 A 
ATOM     10  O   LIG    1        2.236   3.829  -0.010  0.00  0.00    -0.510 OA
ATOM     11  N   LIG    1       -2.229   4.133   0.055  0.00  0.00    -0.500 NA
ATOM     12  N   LIG    1        1.150   1.883   0.001  0.00  0.00    -0.650 N 
ATOM     13  H   LIG    1        1.986   1.390  -0.013  0.00  0.00    +0.440 HD
ENDROOT
BRANCH   7  14
ATOM     14  C   LIG    1        0.540   6.417   0.028  0.00  0.00    +0.300 C 
BRANCH  14  15
ATOM     15  C   LIG    1        0.939   6.740  -1.413  0.00  0.00    +0.210 C 
BRANCH  15  16
ATOM     16  O   LIG    1       -0.210   7.184  -2.138  0.00  0.00    -0.540 OA
ATOM     17  H   LIG    1       -0.624   7.977  -1.772  0.00  0.00    +0.370 HD
ENDBRANCH  15  16
BRANCH  15  18
ATOM     18  C   LIG    1        1.999   7.843  -1.414  0.00  0.00    +0.160 C 
BRANCH  18  19
ATOM     19  O   LIG    1        2.457   8.064  -2.749  0.00  0.00    -0.560 OA
ATOM     20  H   LIG    1        3.132   8.752  -2.825  0.00  0.00    +0.390 HD
ENDBRANCH  18  19
ENDBRANCH  15  18
ENDBRANCH  14  15
ENDBRANCH   7  14
TORSDOF 5
ENDMDL
MODEL     1140
REMARK  Name = ZINC000003978018
REMARK                            x       y       z     vdW  Elec       q    Type
REMARK                         _______ _______ _______ _____ _____    ______ ____
ROOT
ATOM      1  C1*   C A  1        0.001  -4.173  -0.023  0.00  0.00    +0.450 C 
ATOM      2  O4*   C A  1        1.344  -4.685   0.008  0.00  0.00    -0.340 OA
ATOM      3  C4*   C A  1        1.678  -4.908   1.395  0.00  0.00    +0.130 C 
ATOM      4  C3*   C A  1        0.373  -5.494   1.992  0.00  0.00    +0.140 C 
ATOM      5  C2*   C A  1       -0.720  -4.692   1.237  0.00  0.00    +0.180 C 
ENDROOT
BRANCH   1   9
ATOM      6  C4    C A  1        0.002  -0.004   0.002  0.00  0.00    +0.500 A 
ATOM      7  N3    C A  1       -1.135  -0.687   0.004  0.00  0.00    -0.610 NA
ATOM      8  C2    C A  1       -1.129  -2.018  -0.004  0.00  0.00    +0.660 A 
ATOM      9  N1    C A  1        0.026  -2.708  -0.014  0.00  0.00    -0.550 N 
ATOM     10  C6    C A  1        1.220  -2.050  -0.016  0.00  0.00    +0.380 A 
ATOM     11  O2    C A  1       -2.189  -2.623  -0.003  0.00  0.00    -0.530 OA
ATOM     12  C5    C A  1        1.230  -0.697  -0.013  0.00  0.00    -0.150 A 
BRANCH   6  13
ATOM     13  N4    C A  1       -0.017   1.371   0.010  0.00  0.00    -0.810 N 
ATOM     14  H41   C A  1       -0.863   1.845   0.016  0.00  0.00    +0.410 HD
ATOM     15  H42   C A  1        0.817   1.868   0.004  0.00  0.00    +0.420 HD
ENDBRANCH   6  13
ENDBRANCH   1   9
BRANCH   4  16
ATOM     16  O3*   C A  1        0.303  -5.254   3.398  0.00  0.00    -0.550 OA
ATOM     17  H3*   C A  1        1.019  -5.663   3.904  0.00  0.00    +0.390 HD
ENDBRANCH   4  16
BRANCH   5  18
ATOM     18  O2*   C A  1       -1.810  -5.544   0.881  0.00  0.00    -0.540 OA
ATOM     19  H2*   C A  1       -2.260  -5.944   1.638  0.00  0.00    +0.390 HD
ENDBRANCH   5  18
BRANCH   3  20
ATOM     20  C5*   C A  1        2.828  -5.910   1.517  0.00  0.00    +0.210 C 
BRANCH  20  21
ATOM     21  O5*   C A  1        4.018  -5.338   0.973  0.00  0.00    -0.560 OA
ATOM     22  H5*   C A  1        4.790  -5.920   1.017  0.00  0.00    +0.390 HD
ENDBRANCH  20  21
ENDBRANCH   3  20
TORSDOF 6
ENDMDL
MODEL     1141
REMARK  Name = ZINC000003977743
REMARK                            x       y       z     vdW  Elec       q    Type
REMARK                         _______ _______ _______ _____ _____    ______ ____
ROOT
ATOM      1  O   LIG    1        0.002  -0.004   0.002  0.00  0.00    -0.490 OA
ATOM      2  C   LIG    1       -0.014   1.214   0.009  0.00  0.00    +0.540 A 
ATOM      3  N   LIG    1       -1.188   1.878   0.029  0.00  0.00    -0.650 N 
ATOM      4  H   LIG    1       -2.022   1.384   0.038  0.00  0.00    +0.440 HD
ATOM      5  C   LIG    1       -1.206   3.224   0.037  0.00  0.00    +0.680 A 
ATOM      6  N   LIG    1       -0.062   3.932   0.024  0.00  0.00    -0.540 N 
ATOM      7  C   LIG    1        1.153   3.295   0.004  0.00  0.00    +0.330 A 
ATOM      8  O   LIG    1       -2.272   3.808   0.055  0.00  0.00    -0.480 OA
ATOM      9  C   LIG    1        1.199   1.946   0.001  0.00  0.00    -0.070 A 
ATOM     10  F   LIG    1        2.387   1.302  -0.018  0.00  0.00    -0.100 F 
ENDROOT
BRANCH   6  11
ATOM     11  C1* LIG    1       -0.114   5.396   0.033  0.00  0.00    +0.420 C 
ATOM     12  C2* LIG    1        0.607   5.938   1.286  0.00  0.00    +0.010 C 
ATOM     13  C3* LIG    1       -0.305   7.123   1.705  0.00  0.00    +0.170 C 
ATOM     14  C4* LIG    1       -1.699   6.577   1.303  0.00  0.00    +0.180 C 
ATOM     15  O4* LIG    1       -1.476   5.833   0.092  0.00  0.00    -0.310 OA
BRANCH  13  16
ATOM     16  O3* LIG    1        0.017   8.305   0.970  0.00  0.00    -0.550 OA
ATOM     17  H3* LIG    1        0.920   8.621   1.109  0.00  0.00    +0.390 HD
ENDBRANCH  13  16
BRANCH  14  18
ATOM     18  C5* LIG    1       -2.668   7.733   1.047  0.00  0.00    +0.210 C 
BRANCH  18  19
ATOM     19  O5* LIG    1       -3.974   7.212   0.792  0.00  0.00    -0.560 OA
ATOM     20  H5* LIG    1       -4.642   7.890   0.621  0.00  0.00    +0.380 HD
ENDBRANCH  18  19
ENDBRANCH  14  18
ENDBRANCH   6  11
TORSDOF 4
ENDMDL
MODEL     1142
REMARK  Name = ZINC000003977744
REMARK                            x       y       z     vdW  Elec       q    Type
REMARK                         _______ _______ _______ _____ _____    ______ ____
ROOT
ATOM      1  O   LIG    1        0.002  -0.004   0.002  0.00  0.00    -0.490 OA
ATOM      2  C   LIG    1       -0.014   1.214   0.009  0.00  0.00    +0.540 A 
ATOM      3  N   LIG    1       -1.188   1.878   0.029  0.00  0.00    -0.650 N 
ATOM      4  H   LIG    1       -2.022   1.384   0.038  0.00  0.00    +0.440 HD
ATOM      5  C   LIG    1       -1.206   3.224   0.037  0.00  0.00    +0.700 A 
ATOM      6  N   LIG    1       -0.062   3.932   0.024  0.00  0.00    -0.520 N 
ATOM      7  C   LIG    1        1.153   3.295   0.004  0.00  0.00    +0.340 A 
ATOM      8  O   LIG    1       -2.272   3.808   0.055  0.00  0.00    -0.530 OA
ATOM      9  C   LIG    1        1.199   1.946   0.001  0.00  0.00    -0.070 A 
ATOM     10  F   LIG    1        2.387   1.302  -0.018  0.00  0.00    -0.100 F 
ENDROOT
BRANCH   6  11
ATOM     11  C1* LIG    1       -0.114   5.396   0.033  0.00  0.00    +0.430 C 
ATOM     12  C2* LIG    1        0.532   5.949   1.323  0.00  0.00    +0.010 C 
ATOM     13  C3* LIG    1        1.263   7.228   0.858  0.00  0.00    +0.170 C 
ATOM     14  C4* LIG    1        0.972   7.297  -0.658  0.00  0.00    +0.190 C 
ATOM     15  O4* LIG    1        0.685   5.934  -1.043  0.00  0.00    -0.360 OA
BRANCH  13  16
ATOM     16  O3* LIG    1        2.667   7.118   1.096  0.00  0.00    -0.550 OA
ATOM     17  H3* LIG    1        2.901   7.012   2.028  0.00  0.00    +0.390 HD
ENDBRANCH  13  16
BRANCH  14  18
ATOM     18  C5* LIG    1        2.195   7.821  -1.412  0.00  0.00    +0.230 C 
BRANCH  18  19
ATOM     19  O5* LIG    1        1.868   7.987  -2.793  0.00  0.00    -0.570 OA
ATOM     20  H5* LIG    1        2.599   8.317  -3.334  0.00  0.00    +0.390 HD
ENDBRANCH  18  19
ENDBRANCH  14  18
ENDBRANCH   6  11
TORSDOF 4
ENDMDL
MODEL     1143
REMARK  Name = ZINC000004031425
REMARK                            x       y       z     vdW  Elec       q    Type
REMARK                         _______ _______ _______ _____ _____    ______ ____
ROOT
ATOM      1  N   LIG    1       -1.372  -0.511   0.012  0.00  0.00    -0.570 N 
ATOM      2  C   LIG    1       -2.065  -0.771   1.141  0.00  0.00    +0.620 C 
ATOM      3  C   LIG    1       -3.463  -0.978   0.782  0.00  0.00    -0.290 C 
ATOM      4  C   LIG    1       -4.788  -0.955   0.985  0.00  0.00    +0.270 C 
ATOM      5  N   LIG    1       -5.462  -0.978  -0.218  0.00  0.00    -0.560 N 
ATOM      6  H   LIG    1       -6.427  -0.996  -0.315  0.00  0.00    +0.450 HD
ATOM      7  N   LIG    1       -4.564  -0.973  -1.264  0.00  0.00    -0.390 NA
ATOM      8  H   LIG    1       -4.881  -1.565  -2.016  0.00  0.00    +0.360 HD
ATOM      9  C   LIG    1       -3.328  -1.500  -0.662  0.00  0.00    +0.150 C 
ATOM     10  O   LIG    1       -1.603  -0.822   2.266  0.00  0.00    -0.460 OA
ATOM     11  C   LIG    1       -2.086  -0.764  -1.108  0.00  0.00    +0.560 C 
ATOM     12  O   LIG    1       -1.788  -0.465  -2.244  0.00  0.00    -0.460 OA
ENDROOT
BRANCH   1  14
ATOM     13  C   LIG    1       -0.019   1.526   0.010  0.00  0.00    +0.030 C 
ATOM     14  C   LIG    1        0.002  -0.004   0.002  0.00  0.00    +0.300 C 
ENDBRANCH   1  14
BRANCH   4  15
ATOM     15  C   LIG    1       -5.438  -0.912   2.317  0.00  0.00    +0.510 C 
ATOM     16  O   LIG    1       -4.759  -0.894   3.323  0.00  0.00    -0.450 OA
BRANCH  15  17
ATOM     17  O   LIG    1       -6.782  -0.892   2.410  0.00  0.00    -0.350 OA
ATOM     18  C   LIG    1       -7.349  -0.850   3.746  0.00  0.00    +0.290 C 
ENDBRANCH  15  17
ENDBRANCH   4  15
TORSDOF 3
ENDMDL
MODEL     1144
REMARK  Name = ZINC000004045293
REMARK                            x       y       z     vdW  Elec       q    Type
REMARK                         _______ _______ _______ _____ _____    ______ ____
ROOT
ATOM      1  O   LIG    1        0.002  -0.004   0.002  0.00  0.00    -0.490 OA
ATOM      2  C   LIG    1       -0.014   1.214   0.009  0.00  0.00    +0.540 A 
ATOM      3  N   LIG    1       -1.188   1.878   0.029  0.00  0.00    -0.650 N 
ATOM      4  H   LIG    1       -2.022   1.384   0.038  0.00  0.00    +0.440 HD
ATOM      5  C   LIG    1       -1.206   3.224   0.037  0.00  0.00    +0.680 A 
ATOM      6  N   LIG    1       -0.062   3.932   0.024  0.00  0.00    -0.540 N 
ATOM      7  C   LIG    1        1.153   3.295   0.004  0.00  0.00    +0.330 A 
ATOM      8  O   LIG    1       -2.272   3.808   0.055  0.00  0.00    -0.480 OA
ATOM      9  C   LIG    1        1.199   1.946   0.001  0.00  0.00    -0.070 A 
ATOM     10  F   LIG    1        2.387   1.302  -0.018  0.00  0.00    -0.100 F 
ENDROOT
BRANCH   6  11
ATOM     11  C1* LIG    1       -0.114   5.396   0.033  0.00  0.00    +0.430 C 
ATOM     12  C2* LIG    1        0.607   5.938   1.286  0.00  0.00    +0.000 C 
ATOM     13  C3* LIG    1       -0.305   7.123   1.705  0.00  0.00    +0.170 C 
ATOM     14  C4* LIG    1       -1.699   6.577   1.303  0.00  0.00    +0.180 C 
ATOM     15  O4* LIG    1       -1.476   5.833   0.092  0.00  0.00    -0.310 OA
BRANCH  13  16
ATOM     16  O3* LIG    1       -0.230   7.359   3.112  0.00  0.00    -0.550 OA
ATOM     17  H3* LIG    1        0.654   7.599   3.424  0.00  0.00    +0.390 HD
ENDBRANCH  13  16
BRANCH  14  18
ATOM     18  C5* LIG    1       -2.668   7.733   1.047  0.00  0.00    +0.200 C 
BRANCH  18  19
ATOM     19  O5* LIG    1       -3.974   7.212   0.792  0.00  0.00    -0.560 OA
ATOM     20  H5* LIG    1       -4.642   7.890   0.621  0.00  0.00    +0.380 HD
ENDBRANCH  18  19
ENDBRANCH  14  18
ENDBRANCH   6  11
TORSDOF 4
ENDMDL
MODEL     1145
REMARK  Name = ZINC000012442711
REMARK                            x       y       z     vdW  Elec       q    Type
REMARK                         _______ _______ _______ _____ _____    ______ ____
ROOT
ATOM      1  C   LIG    1        1.214  -2.636  -2.384  0.00  0.00    +0.510 A 
ATOM      2  N   LIG    1        1.197  -3.934  -2.552  0.00  0.00    -0.460 NA
ATOM      3  C   LIG    1        1.862  -4.241  -3.697  0.00  0.00    -0.060 A 
ATOM      4  C   LIG    1        2.308  -3.050  -4.252  0.00  0.00    +0.250 A 
ATOM      5  N   LIG    1        3.019  -3.083  -5.431  0.00  0.00    -0.510 N 
ATOM      6  C   LIG    1        3.283  -4.252  -6.042  0.00  0.00    +0.720 A 
ATOM      7  N   LIG    1        2.873  -5.430  -5.544  0.00  0.00    -0.650 N 
ATOM      8  H   LIG    1        3.085  -6.249  -6.018  0.00  0.00    +0.440 HD
ATOM      9  O   LIG    1        3.914  -4.241  -7.082  0.00  0.00    -0.530 OA
ATOM     10  C   LIG    1        3.495  -1.832  -6.025  0.00  0.00    +0.340 C 
ATOM     11  C   LIG    1        2.170  -5.489  -4.393  0.00  0.00    +0.600 A 
ATOM     12  O   LIG    1        1.800  -6.559  -3.944  0.00  0.00    -0.480 OA
ATOM     13  N   LIG    1        1.889  -2.053  -3.422  0.00  0.00    -0.580 N 
ATOM     14  H   LIG    1        2.047  -1.103  -3.541  0.00  0.00    +0.420 HD
ENDROOT
BRANCH   1  15
ATOM     15  N   LIG    1        0.634  -1.958  -1.325  0.00  0.00    -0.700 N 
ATOM     16  H   LIG    1        0.172  -2.451  -0.629  0.00  0.00    +0.430 HD
BRANCH  15  17
ATOM     17  C   LIG    1        0.718  -0.497  -1.257  0.00  0.00    +0.220 C 
BRANCH  17  19
ATOM     18  C   LIG    1       -0.019   1.526   0.010  0.00  0.00    +0.010 C 
ATOM     19  C   LIG    1        0.002  -0.004   0.002  0.00  0.00    +0.210 C 
BRANCH  19  20
ATOM     20  O   LIG    1        0.693  -0.477   1.160  0.00  0.00    -0.560 OA
ATOM     21  H   LIG    1        1.611  -0.180   1.219  0.00  0.00    +0.380 HD
ENDBRANCH  19  20
ENDBRANCH  17  19
ENDBRANCH  15  17
ENDBRANCH   1  15
TORSDOF 4
ENDMDL
MODEL     1146
REMARK  Name = ZINC000004085862
REMARK                            x       y       z     vdW  Elec       q    Type
REMARK                         _______ _______ _______ _____ _____    ______ ____
ROOT
ATOM      1  N   LIG    1       -1.270  -0.503   0.019  0.00  0.00    -0.390 N 
ATOM      2  C   LIG    1       -1.665  -1.298  -1.012  0.00  0.00    +0.610 A 
ATOM      3  C   LIG    1       -2.987  -1.829  -0.999  0.00  0.00    -0.320 A 
ATOM      4  C   LIG    1       -3.854  -1.477   0.148  0.00  0.00    +0.550 A 
ATOM      5  N   LIG    1       -3.349  -0.679   1.112  0.00  0.00    -0.560 N 
ATOM      6  C   LIG    1       -4.186  -0.317   2.258  0.00  0.00    +0.350 C 
ATOM      7  O   LIG    1       -4.992  -1.898   0.220  0.00  0.00    -0.460 OA
ATOM      8  C   LIG    1       -2.091  -0.218   1.040  0.00  0.00    +0.690 A 
ATOM      9  O   LIG    1       -1.682   0.498   1.933  0.00  0.00    -0.520 OA
ENDROOT
BRANCH   1  11
ATOM     10  C   LIG    1       -0.033   1.480   0.031  0.00  0.00    +0.240 C 
ATOM     11  N   LIG    1       -0.004   0.012   0.017  0.00  0.00    -0.300 N 
ATOM     12  C   LIG    1        0.778  -0.510   1.145  0.00  0.00    +0.240 C 
ENDBRANCH   1  11
BRANCH   2  13
ATOM     13  N   LIG    1       -0.823  -1.579  -2.027  0.00  0.00    -0.760 N 
ATOM     14  H   LIG    1       -1.088  -2.204  -2.719  0.00  0.00    +0.440 HD
ATOM     15  H   LIG    1        0.049  -1.155  -2.064  0.00  0.00    +0.430 HD
ENDBRANCH   2  13
BRANCH   3  16
ATOM     16  N   LIG    1       -3.423  -2.605  -1.972  0.00  0.00    -0.290 NA
ATOM     17  O   LIG    1       -4.585  -2.969  -1.987  0.00  0.00    +0.030 OA
ENDBRANCH   3  16
TORSDOF 3
ENDMDL
MODEL     1147
REMARK  Name = ZINC000247846616
REMARK                            x       y       z     vdW  Elec       q    Type
REMARK                         _______ _______ _______ _____ _____    ______ ____
ROOT
ATOM      1  C   LIG    1        0.657  -2.104  -1.120  0.00  0.00    +0.240 C 
ATOM      2  C   LIG    1       -0.683  -2.641  -1.626  0.00  0.00    +0.040 C 
ATOM      3  C   LIG    1       -0.611  -4.168  -1.722  0.00  0.00    +0.180 C 
ATOM      4  C   LIG    1        0.542  -4.560  -2.650  0.00  0.00    -0.020 C 
ATOM      5  C   LIG    1        1.846  -3.966  -2.114  0.00  0.00    +0.240 C 
ATOM      6  N   LIG    1        1.727  -2.505  -2.042  0.00  0.00    -0.660 NA
ATOM      7  H   LIG    1        1.582  -2.108  -2.959  0.00  0.00    +0.360 HD
ENDROOT
BRANCH   1   8
ATOM      8  C   LIG    1        0.598  -0.600  -1.043  0.00  0.00    +0.470 C 
ATOM      9  O   LIG    1        1.088   0.070  -1.921  0.00  0.00    -0.490 OA
BRANCH   8  11
ATOM     10  C   LIG    1       -0.018   1.448   0.010  0.00  0.00    +0.270 C 
ATOM     11  O   LIG    1        0.002  -0.004   0.002  0.00  0.00    -0.360 OA
ENDBRANCH   8  11
ENDBRANCH   1   8
BRANCH   5  12
ATOM     12  C   LIG    1        2.981  -4.333  -3.036  0.00  0.00    +0.470 C 
ATOM     13  O   LIG    1        3.385  -3.531  -3.844  0.00  0.00    -0.490 OA
BRANCH  12  14
ATOM     14  O   LIG    1        3.542  -5.550  -2.959  0.00  0.00    -0.360 OA
ATOM     15  C   LIG    1        4.630  -5.834  -3.877  0.00  0.00    +0.270 C 
ENDBRANCH  12  14
ENDBRANCH   5  12
BRANCH   3  16
ATOM     16  O   LIG    1       -0.387  -4.718  -0.422  0.00  0.00    -0.560 OA
ATOM     17  H   LIG    1       -0.331  -5.683  -0.408  0.00  0.00    +0.390 HD
ENDBRANCH   3  16
TORSDOF 5
ENDMDL
MODEL     1148
REMARK  Name = ZINC000058638594
REMARK                            x       y       z     vdW  Elec       q    Type
REMARK                         _______ _______ _______ _____ _____    ______ ____
ROOT
ATOM      1  C1*   U A  1        0.071   5.388   0.412  0.00  0.00    +0.440 C 
ATOM      2  C2*   U A  1        1.156   5.914   1.376  0.00  0.00    +0.020 C 
ATOM      3  C3*   U A  1        0.467   7.157   2.002  0.00  0.00    +0.160 C 
ATOM      4  C4*   U A  1       -1.008   6.682   2.049  0.00  0.00    +0.180 C 
ATOM      5  O4*   U A  1       -1.190   5.902   0.855  0.00  0.00    -0.350 OA
ENDROOT
BRANCH   1  10
ATOM      6  O4    U A  1        0.002  -0.004   0.002  0.00  0.00    -0.500 OA
ATOM      7  C4    U A  1       -0.014   1.208   0.009  0.00  0.00    +0.520 C 
ATOM      8  C5    U A  1       -1.330   1.945   0.032  0.00  0.00    +0.090 C 
ATOM      9  C6    U A  1       -1.174   3.228   0.850  0.00  0.00    +0.310 C 
ATOM     10  N1    U A  1        0.048   3.923   0.441  0.00  0.00    -0.620 N 
ATOM     11  C2    U A  1        1.149   3.237   0.093  0.00  0.00    +0.720 C 
ATOM     12  O2    U A  1        2.176   3.843  -0.141  0.00  0.00    -0.550 OA
ATOM     13  N3    U A  1        1.141   1.897   0.001  0.00  0.00    -0.680 N 
ATOM     14  H3    U A  1        1.982   1.419  -0.079  0.00  0.00    +0.430 HD
ENDBRANCH   1  10
BRANCH   3  15
ATOM     15  O3*   U A  1        0.612   8.304   1.162  0.00  0.00    -0.550 OA
ATOM     16  H3*   U A  1        1.530   8.571   1.017  0.00  0.00    +0.390 HD
ENDBRANCH   3  15
BRANCH   4  17
ATOM     17  C5*   U A  1       -1.953   7.885   2.049  0.00  0.00    +0.210 C 
BRANCH  17  18
ATOM     18  O5*   U A  1       -3.299   7.433   2.211  0.00  0.00    -0.570 OA
ATOM     19  H5*   U A  1       -3.954   8.144   2.219  0.00  0.00    +0.380 HD
ENDBRANCH  17  18
ENDBRANCH   4  17
TORSDOF 4
ENDMDL
MODEL     1149
REMARK  Name = ZINC000004203455
REMARK                            x       y       z     vdW  Elec       q    Type
REMARK                         _______ _______ _______ _____ _____    ______ ____
ROOT
ATOM      1  C   LIG    1        2.457   1.553  -0.019  0.00  0.00    +0.300 C 
ENDROOT
BRANCH   1   8
ATOM      2  O   LIG    1        0.002  -0.004   0.002  0.00  0.00    -0.450 OA
ATOM      3  C   LIG    1       -0.014   1.210   0.009  0.00  0.00    +0.540 C 
ATOM      4  C   LIG    1       -1.226   2.059   0.031  0.00  0.00    +0.050 C 
ATOM      5  C   LIG    1       -0.806   3.335   0.032  0.00  0.00    +0.050 C 
ATOM      6  C   LIG    1        0.673   3.298   0.010  0.00  0.00    +0.540 C 
ATOM      7  O   LIG    1        1.407   4.265   0.005  0.00  0.00    -0.450 OA
ATOM      8  N   LIG    1        1.066   2.011   0.003  0.00  0.00    -0.590 N 
ENDBRANCH   1   8
BRANCH   1   9
ATOM      9  C   LIG    1        2.963   1.392   1.416  0.00  0.00    +0.300 C 
BRANCH   9  10
ATOM     10  N   LIG    1        4.354   0.934   1.395  0.00  0.00    -0.590 N 
ATOM     11  C   LIG    1        4.747  -0.353   1.382  0.00  0.00    +0.540 C 
ATOM     12  C   LIG    1        6.226  -0.389   1.362  0.00  0.00    +0.050 C 
ATOM     13  C   LIG    1        6.646   0.886   1.365  0.00  0.00    +0.050 C 
ATOM     14  O   LIG    1        4.013  -1.319   1.385  0.00  0.00    -0.450 OA
ATOM     15  C   LIG    1        5.435   1.735   1.380  0.00  0.00    +0.540 C 
ATOM     16  O   LIG    1        5.418   2.949   1.386  0.00  0.00    -0.450 OA
ENDBRANCH   9  10
ENDBRANCH   1   9
TORSDOF 3
ENDMDL
MODEL     1150
REMARK  Name = ZINC000000485734
REMARK                            x       y       z     vdW  Elec       q    Type
REMARK                         _______ _______ _______ _____ _____    ______ ____
ROOT
ATOM      1  C   LIG    1       -0.018   1.461   0.010  0.00  0.00    +0.350 C 
ATOM      2  N   LIG    1        0.002  -0.004   0.002  0.00  0.00    -0.510 N 
ATOM      3  C   LIG    1       -1.189  -0.712   0.004  0.00  0.00    +0.320 A 
ATOM      4  C   LIG    1       -1.144  -2.100  -0.004  0.00  0.00    -0.140 A 
ATOM      5  N   LIG    1       -2.456  -2.530   0.000  0.00  0.00    -0.400 N 
ATOM      6  C   LIG    1       -3.231  -1.427   0.010  0.00  0.00    +0.500 A 
ATOM      7  C   LIG    1        0.111  -2.748  -0.013  0.00  0.00    +0.610 A 
ATOM      8  N   LIG    1        1.236  -2.003  -0.015  0.00  0.00    -0.650 N 
ATOM      9  H   LIG    1        2.100  -2.444  -0.021  0.00  0.00    +0.440 HD
ATOM     10  O   LIG    1        0.176  -3.964  -0.021  0.00  0.00    -0.520 OA
ATOM     11  N   LIG    1       -2.477  -0.358   0.012  0.00  0.00    -0.490 NA
ATOM     12  C   LIG    1        1.178  -0.660  -0.013  0.00  0.00    +0.710 A 
ATOM     13  O   LIG    1        2.213  -0.022  -0.014  0.00  0.00    -0.530 OA
ENDROOT
BRANCH   5  14
ATOM     14  C   LIG    1       -2.918  -3.920  -0.005  0.00  0.00    +0.300 C 
BRANCH  14  15
ATOM     15  C   LIG    1       -2.953  -4.450   1.430  0.00  0.00    +0.200 C 
BRANCH  15  16
ATOM     16  O   LIG    1       -1.624  -4.496   1.954  0.00  0.00    -0.540 OA
ATOM     17  H   LIG    1       -1.023  -5.065   1.454  0.00  0.00    +0.380 HD
ENDBRANCH  15  16
BRANCH  15  18
ATOM     18  C   LIG    1       -3.553  -5.858   1.439  0.00  0.00    +0.170 C 
BRANCH  18  19
ATOM     19  O   LIG    1       -3.693  -6.308   2.788  0.00  0.00    -0.560 OA
ATOM     20  H   LIG    1       -4.068  -7.195   2.870  0.00  0.00    +0.380 HD
ENDBRANCH  18  19
ENDBRANCH  15  18
ENDBRANCH  14  15
ENDBRANCH   5  14
TORSDOF 5
ENDMDL
MODEL     1151
REMARK  Name = ZINC000000485735
REMARK                            x       y       z     vdW  Elec       q    Type
REMARK                         _______ _______ _______ _____ _____    ______ ____
ROOT
ATOM      1  C   LIG    1       -0.018   1.461   0.010  0.00  0.00    +0.340 C 
ATOM      2  N   LIG    1        0.002  -0.004   0.002  0.00  0.00    -0.510 N 
ATOM      3  C   LIG    1       -1.189  -0.712   0.004  0.00  0.00    +0.320 A 
ATOM      4  C   LIG    1       -1.144  -2.100  -0.004  0.00  0.00    -0.160 A 
ATOM      5  N   LIG    1       -2.456  -2.530   0.000  0.00  0.00    -0.400 N 
ATOM      6  C   LIG    1       -3.231  -1.427   0.010  0.00  0.00    +0.510 A 
ATOM      7  C   LIG    1        0.111  -2.748  -0.013  0.00  0.00    +0.600 A 
ATOM      8  N   LIG    1        1.236  -2.003  -0.015  0.00  0.00    -0.650 N 
ATOM      9  H   LIG    1        2.100  -2.444  -0.021  0.00  0.00    +0.440 HD
ATOM     10  O   LIG    1        0.176  -3.964  -0.021  0.00  0.00    -0.520 OA
ATOM     11  N   LIG    1       -2.477  -0.358   0.012  0.00  0.00    -0.500 NA
ATOM     12  C   LIG    1        1.178  -0.660  -0.013  0.00  0.00    +0.710 A 
ATOM     13  O   LIG    1        2.213  -0.022  -0.014  0.00  0.00    -0.530 OA
ENDROOT
BRANCH   5  14
ATOM     14  C   LIG    1       -2.918  -3.920  -0.005  0.00  0.00    +0.300 C 
BRANCH  14  15
ATOM     15  C   LIG    1       -2.953  -4.450   1.430  0.00  0.00    +0.210 C 
BRANCH  15  16
ATOM     16  O   LIG    1       -3.932  -3.729   2.181  0.00  0.00    -0.540 OA
ATOM     17  H   LIG    1       -4.829  -3.801   1.828  0.00  0.00    +0.370 HD
ENDBRANCH  15  16
BRANCH  15  18
ATOM     18  C   LIG    1       -3.315  -5.937   1.415  0.00  0.00    +0.160 C 
BRANCH  18  19
ATOM     19  O   LIG    1       -3.234  -6.460   2.743  0.00  0.00    -0.560 OA
ATOM     20  H   LIG    1       -3.451  -7.400   2.809  0.00  0.00    +0.390 HD
ENDBRANCH  18  19
ENDBRANCH  15  18
ENDBRANCH  14  15
ENDBRANCH   5  14
TORSDOF 5
ENDMDL
MODEL     1152
REMARK  Name = ZINC000004262454
REMARK                            x       y       z     vdW  Elec       q    Type
REMARK                         _______ _______ _______ _____ _____    ______ ____
ROOT
ATOM      1  N   LIG    1       -4.424   1.313   2.995  0.00  0.00    -0.380 N 
ATOM      2  H   LIG    1       -4.397   0.305   2.983  0.00  0.00    +0.440 HD
ENDROOT
BRANCH   1   3
ATOM      3  C   LIG    1       -3.054   1.841   2.977  0.00  0.00    +0.220 C 
BRANCH   3   4
ATOM      4  C   LIG    1       -2.251   1.216   4.120  0.00  0.00    +0.240 C 
BRANCH   4   5
ATOM      5  O   LIG    1       -2.164  -0.197   3.925  0.00  0.00    -0.530 OA
ATOM      6  H   LIG    1       -1.801  -0.453   3.066  0.00  0.00    +0.380 HD
ENDBRANCH   4   5
BRANCH   4   7
ATOM      7  C   LIG    1       -0.844   1.816   4.142  0.00  0.00    -0.480 C 
BRANCH   7   9
ATOM      8  O   LIG    1       -0.568   1.358   6.754  0.00  0.00    -1.060 OA
ATOM      9  S   LIG    1        0.108   1.075   5.498  0.00  0.00    +2.640 S 
ATOM     10  O   LIG    1        0.187  -0.362   5.285  0.00  0.00    -1.040 OA
ATOM     11  O   LIG    1        1.442   1.655   5.506  0.00  0.00    -1.060 OA
ENDBRANCH   7   9
ENDBRANCH   4   7
ENDBRANCH   3   4
ENDBRANCH   1   3
BRANCH   1  12
ATOM     12  C   LIG    1       -5.152   1.798   1.815  0.00  0.00    +0.270 C 
BRANCH  12  13
ATOM     13  C   LIG    1       -4.528   1.203   0.551  0.00  0.00    +0.210 C 
BRANCH  13  14
ATOM     14  O   LIG    1       -4.695  -0.216   0.561  0.00  0.00    -0.570 OA
ATOM     15  H   LIG    1       -4.322  -0.661  -0.212  0.00  0.00    +0.410 HD
ENDBRANCH  13  14
ENDBRANCH  12  13
ENDBRANCH   1  12
BRANCH   1  16
ATOM     16  C   LIG    1       -5.108   1.770   4.213  0.00  0.00    +0.270 C 
BRANCH  16  17
ATOM     17  C   LIG    1       -6.491   1.121   4.295  0.00  0.00    +0.210 C 
BRANCH  17  18
ATOM     18  O   LIG    1       -6.346  -0.293   4.450  0.00  0.00    -0.570 OA
ATOM     19  H   LIG    1       -7.185  -0.770   4.509  0.00  0.00    +0.400 HD
ENDBRANCH  17  18
ENDBRANCH  16  17
ENDBRANCH   1  16
TORSDOF 11
ENDMDL
MODEL     1153
REMARK  Name = ZINC000004298570
REMARK                            x       y       z     vdW  Elec       q    Type
REMARK                         _______ _______ _______ _____ _____    ______ ____
ROOT
ATOM      1  C   LIG    1        0.652  -0.570  -1.138  0.00  0.00    +0.190 C 
ATOM      2  C   LIG    1        2.147  -0.740  -0.826  0.00  0.00    -0.300 C 
ATOM      3  S   LIG    1        2.465  -2.541  -0.943  0.00  0.00    +2.410 S 
ATOM      4  C   LIG    1        0.708  -3.039  -0.728  0.00  0.00    -0.290 C 
ATOM      5  O   LIG    1        3.225  -2.965   0.179  0.00  0.00    -0.910 OA
ATOM      6  O   LIG    1        2.894  -2.865  -2.259  0.00  0.00    -0.910 OA
ATOM      7  C   LIG    1       -0.021  -1.900  -1.483  0.00  0.00    +0.200 C 
ENDROOT
BRANCH   7   8
ATOM      8  N   LIG    1       -1.430  -1.858  -1.071  0.00  0.00    -0.460 N 
ATOM      9  H   LIG    1       -1.876  -1.052  -1.482  0.00  0.00    +0.430 HD
ATOM     10  H   LIG    1       -1.485  -1.796  -0.065  0.00  0.00    +0.440 HD
BRANCH   8  11
ATOM     11  C   LIG    1       -2.110  -3.078  -1.525  0.00  0.00    +0.170 C 
BRANCH  11  12
ATOM     12  C   LIG    1       -3.556  -3.035  -1.103  0.00  0.00    +0.490 C 
ATOM     13  O   LIG    1       -4.301  -3.958  -1.383  0.00  0.00    -0.640 OA
ATOM     14  O   LIG    1       -3.981  -2.076  -0.481  0.00  0.00    -0.670 OA
ENDBRANCH  11  12
ENDBRANCH   8  11
ENDBRANCH   7   8
BRANCH   1  16
ATOM     15  C   LIG    1       -0.017   1.425   0.010  0.00  0.00    +0.250 C 
ATOM     16  O   LIG    1        0.002  -0.004   0.002  0.00  0.00    -0.390 OA
ENDBRANCH   1  16
TORSDOF 4
ENDMDL
MODEL     1154
REMARK  Name = ZINC000004298569
REMARK                            x       y       z     vdW  Elec       q    Type
REMARK                         _______ _______ _______ _____ _____    ______ ____
ROOT
ATOM      1  C   LIG    1        0.652  -0.570  -1.138  0.00  0.00    +0.180 C 
ATOM      2  C   LIG    1        2.152  -0.741  -0.825  0.00  0.00    -0.290 C 
ATOM      3  S   LIG    1        2.259  -2.490  -0.272  0.00  0.00    +2.410 S 
ATOM      4  C   LIG    1        0.964  -3.080  -1.436  0.00  0.00    -0.290 C 
ATOM      5  O   LIG    1        1.793  -2.602   1.065  0.00  0.00    -0.900 OA
ATOM      6  O   LIG    1        3.519  -3.035  -0.639  0.00  0.00    -0.910 OA
ATOM      7  C   LIG    1       -0.018  -1.895  -1.481  0.00  0.00    +0.200 C 
ENDROOT
BRANCH   7   8
ATOM      8  N   LIG    1       -0.586  -1.798  -2.833  0.00  0.00    -0.480 N 
ATOM      9  H   LIG    1        0.162  -1.757  -3.510  0.00  0.00    +0.430 HD
ATOM     10  H   LIG    1       -1.148  -0.963  -2.902  0.00  0.00    +0.430 HD
BRANCH   8  11
ATOM     11  C   LIG    1       -1.423  -2.976  -3.098  0.00  0.00    +0.170 C 
BRANCH  11  12
ATOM     12  C   LIG    1       -2.005  -2.877  -4.485  0.00  0.00    +0.490 C 
ATOM     13  O   LIG    1       -2.734  -3.759  -4.904  0.00  0.00    -0.630 OA
ATOM     14  O   LIG    1       -1.747  -1.914  -5.187  0.00  0.00    -0.680 OA
ENDBRANCH  11  12
ENDBRANCH   8  11
ENDBRANCH   7   8
BRANCH   1  16
ATOM     15  C   LIG    1       -0.017   1.425   0.010  0.00  0.00    +0.240 C 
ATOM     16  O   LIG    1        0.002  -0.004   0.002  0.00  0.00    -0.360 OA
ENDBRANCH   1  16
TORSDOF 4
ENDMDL
MODEL     1155
REMARK  Name = ZINC000004336690
REMARK                            x       y       z     vdW  Elec       q    Type
REMARK                         _______ _______ _______ _____ _____    ______ ____
ROOT
ATOM      1  S   LIG    1       -1.722  -1.394  -1.400  0.00  0.00    +2.650 S 
ATOM      2  O   LIG    1       -1.469  -0.532  -2.501  0.00  0.00    -0.930 OA
ATOM      3  O   LIG    1       -3.041  -1.825  -1.095  0.00  0.00    -0.940 OA
ENDROOT
BRANCH   1   4
ATOM      4  C   LIG    1       -0.581  -2.804  -1.420  0.00  0.00    -0.440 C 
ATOM      5  C   LIG    1        0.874  -2.304  -1.470  0.00  0.00    +0.130 C 
ATOM      6  C   LIG    1        1.792  -3.489  -1.827  0.00  0.00    -0.290 C 
ATOM      7  S   LIG    1        0.746  -4.623  -2.810  0.00  0.00    +2.400 S 
ATOM      8  O   LIG    1        0.587  -5.847  -2.105  0.00  0.00    -0.930 OA
ATOM      9  O   LIG    1        1.201  -4.635  -4.156  0.00  0.00    -0.930 OA
ATOM     10  C   LIG    1       -0.804  -3.650  -2.700  0.00  0.00    -0.280 C 
ENDBRANCH   1   4
BRANCH   1  11
ATOM     11  N   LIG    1       -1.264  -0.510  -0.077  0.00  0.00    -0.970 NA
ATOM     12  H   LIG    1       -1.895  -0.352   0.643  0.00  0.00    +0.400 HD
BRANCH  11  14
ATOM     13  C   LIG    1       -0.018   1.465   0.010  0.00  0.00    +0.220 C 
ATOM     14  N   LIG    1        0.002  -0.004   0.002  0.00  0.00    -0.290 NA
ATOM     15  C   LIG    1        0.706  -0.527   1.180  0.00  0.00    +0.200 C 
ENDBRANCH  11  14
ENDBRANCH   1  11
TORSDOF 3
ENDMDL
MODEL     1156
REMARK  Name = ZINC000036104507
REMARK                            x       y       z     vdW  Elec       q    Type
REMARK                         _______ _______ _______ _____ _____    ______ ____
ROOT
ATOM      1  N   LIG    1       -0.587  -4.091  -1.815  0.00  0.00    -0.530 N 
ATOM      2  C   LIG    1       -0.180  -4.592  -3.022  0.00  0.00    +0.330 A 
ATOM      3  C   LIG    1       -0.092  -5.928  -3.195  0.00  0.00    -0.240 A 
ATOM      4  C   LIG    1       -0.423  -6.786  -2.119  0.00  0.00    +0.550 A 
ATOM      5  N   LIG    1       -0.819  -6.253  -0.945  0.00  0.00    -0.660 N 
ATOM      6  H   LIG    1       -1.047  -6.834  -0.203  0.00  0.00    +0.430 HD
ATOM      7  O   LIG    1       -0.350  -7.995  -2.251  0.00  0.00    -0.500 OA
ATOM      8  C   LIG    1        0.354  -6.499  -4.517  0.00  0.00    +0.140 C 
ATOM      9  C   LIG    1       -0.893  -4.917  -0.798  0.00  0.00    +0.700 A 
ATOM     10  O   LIG    1       -1.252  -4.450   0.266  0.00  0.00    -0.530 OA
ENDROOT
BRANCH   1  11
ATOM     11  C   LIG    1       -0.682  -2.641  -1.627  0.00  0.00    +0.310 C 
BRANCH  11  12
ATOM     12  C   LIG    1        0.657  -2.104  -1.120  0.00  0.00    +0.220 C 
BRANCH  12  13
ATOM     13  N   LIG    1        1.727  -2.505  -2.043  0.00  0.00    -0.820 NA
ATOM     14  H   LIG    1        1.562  -2.140  -2.969  0.00  0.00    +0.360 HD
ATOM     15  H   LIG    1        1.830  -3.509  -2.063  0.00  0.00    +0.360 HD
ENDBRANCH  12  13
BRANCH  12  16
ATOM     16  C   LIG    1        0.598  -0.600  -1.043  0.00  0.00    +0.470 C 
ATOM     17  O   LIG    1        1.088   0.070  -1.921  0.00  0.00    -0.490 OA
BRANCH  16  19
ATOM     18  C   LIG    1       -0.018   1.448   0.010  0.00  0.00    +0.290 C 
ATOM     19  O   LIG    1        0.002  -0.004   0.002  0.00  0.00    -0.350 OA
ENDBRANCH  16  19
ENDBRANCH  12  16
ENDBRANCH  11  12
ENDBRANCH   1  11
TORSDOF 5
ENDMDL
MODEL     1157
REMARK  Name = ZINC000004521697
REMARK                            x       y       z     vdW  Elec       q    Type
REMARK                         _______ _______ _______ _____ _____    ______ ____
ROOT
ATOM      1  C   LIG    1        0.877  -0.392  -1.539  0.00  0.00    +0.170 C 
ATOM      2  O   LIG    1        0.099   0.051  -2.653  0.00  0.00    -0.340 OA
ATOM      3  C   LIG    1        0.711  -0.184  -3.923  0.00  0.00    +0.180 C 
ATOM      4  C   LIG    1        0.919  -1.688  -4.117  0.00  0.00    +0.170 C 
ATOM      5  C   LIG    1        1.776  -2.229  -2.969  0.00  0.00    +0.160 C 
ATOM      6  C   LIG    1        1.092  -1.904  -1.637  0.00  0.00    +0.160 C 
ENDROOT
BRANCH   1   8
ATOM      7  C   LIG    1       -0.022   1.810   0.012  0.00  0.00    +0.160 C 
ATOM      8  S   LIG    1        0.002  -0.004   0.002  0.00  0.00    -0.210 S 
ENDBRANCH   1   8
BRANCH   5   9
ATOM      9  O   LIG    1        1.916  -3.645  -3.103  0.00  0.00    -0.560 OA
ATOM     10  H   LIG    1        2.449  -4.055  -2.408  0.00  0.00    +0.400 HD
ENDBRANCH   5   9
BRANCH   4  11
ATOM     11  O   LIG    1       -0.348  -2.349  -4.121  0.00  0.00    -0.550 OA
ATOM     12  H   LIG    1       -0.291  -3.307  -4.240  0.00  0.00    +0.390 HD
ENDBRANCH   4  11
BRANCH   6  13
ATOM     13  O   LIG    1        1.917  -2.342  -0.556  0.00  0.00    -0.560 OA
ATOM     14  H   LIG    1        1.545  -2.168   0.319  0.00  0.00    +0.390 HD
ENDBRANCH   6  13
BRANCH   3  15
ATOM     15  C   LIG    1       -0.194   0.354  -5.033  0.00  0.00    +0.220 C 
BRANCH  15  16
ATOM     16  O   LIG    1       -0.295   1.774  -4.919  0.00  0.00    -0.570 OA
ATOM     17  H   LIG    1       -0.856   2.184  -5.593  0.00  0.00    +0.380 HD
ENDBRANCH  15  16
ENDBRANCH   3  15
TORSDOF 6
ENDMDL
MODEL     1158
REMARK  Name = ZINC000004543559
REMARK                            x       y       z     vdW  Elec       q    Type
REMARK                         _______ _______ _______ _____ _____    ______ ____
ROOT
ATOM      1  C1*   U A  1        0.071   5.388   0.412  0.00  0.00    +0.430 C 
ATOM      2  C2*   U A  1        1.121   5.937   1.411  0.00  0.00    +0.000 C 
ATOM      3  C3*   U A  1        0.576   7.356   1.707  0.00  0.00    +0.160 C 
ATOM      4  C4*   U A  1       -0.914   7.276   1.322  0.00  0.00    +0.180 C 
ATOM      5  O4*   U A  1       -1.177   5.926   0.900  0.00  0.00    -0.360 OA
ENDROOT
BRANCH   1  10
ATOM      6  O4    U A  1        0.002  -0.004   0.002  0.00  0.00    -0.500 OA
ATOM      7  C4    U A  1       -0.014   1.208   0.009  0.00  0.00    +0.520 C 
ATOM      8  C5    U A  1       -1.330   1.945   0.032  0.00  0.00    +0.090 C 
ATOM      9  C6    U A  1       -1.174   3.228   0.850  0.00  0.00    +0.310 C 
ATOM     10  N1    U A  1        0.048   3.923   0.441  0.00  0.00    -0.610 N 
ATOM     11  C2    U A  1        1.149   3.237   0.093  0.00  0.00    +0.720 C 
ATOM     12  O2    U A  1        2.176   3.843  -0.141  0.00  0.00    -0.550 OA
ATOM     13  N3    U A  1        1.141   1.897   0.001  0.00  0.00    -0.670 N 
ATOM     14  H3    U A  1        1.982   1.419  -0.079  0.00  0.00    +0.430 HD
ENDBRANCH   1  10
BRANCH   3  15
ATOM     15  O3*   U A  1        0.721   7.668   3.094  0.00  0.00    -0.560 OA
ATOM     16  H3*   U A  1        1.637   7.675   3.402  0.00  0.00    +0.390 HD
ENDBRANCH   3  15
BRANCH   4  17
ATOM     17  C5*   U A  1       -1.783   7.627   2.531  0.00  0.00    +0.220 C 
BRANCH  17  18
ATOM     18  O5*   U A  1       -3.156   7.664   2.136  0.00  0.00    -0.570 OA
ATOM     19  H5*   U A  1       -3.766   7.880   2.854  0.00  0.00    +0.380 HD
ENDBRANCH  17  18
ENDBRANCH   4  17
TORSDOF 4
ENDMDL
MODEL     1159
REMARK  Name = ZINC000004533525
REMARK                            x       y       z     vdW  Elec       q    Type
REMARK                         _______ _______ _______ _____ _____    ______ ____
ROOT
ATOM      1  CA  HIS A  1       -0.699   1.479   1.216  0.00  0.00    +0.180 C 
ENDROOT
BRANCH   1   2
ATOM      2  N   HIS A  1       -0.012   1.005   0.008  0.00  0.00    -0.620 N 
ATOM      3  H1  HIS A  1       -0.500   1.339  -0.810  0.00  0.00    +0.440 HD
ATOM      4  H2  HIS A  1        0.935   1.354   0.000  0.00  0.00    +0.430 HD
ATOM      5  H3  HIS A  1        0.002  -0.004   0.002  0.00  0.00    +0.440 HD
ENDBRANCH   1   2
BRANCH   1   6
ATOM      6  C   HIS A  1       -2.113   0.957   1.227  0.00  0.00    +0.490 C 
ATOM      7  N   SER A  2       -3.047   1.558   1.989  0.00  0.00    -0.650 N 
ATOM      8  H   SER A  2       -2.810   2.327   2.531  0.00  0.00    +0.400 HD
ATOM      9  O   HIS A  1       -2.410  -0.004   0.549  0.00  0.00    -0.530 OA
BRANCH   7  10
ATOM     10  CA  SER A  2       -4.422   1.051   2.000  0.00  0.00    +0.170 C 
BRANCH  10  11
ATOM     11  C   SER A  2       -5.186   1.648   0.846  0.00  0.00    +0.500 C 
ATOM     12  OXT SER A  2       -4.896   2.758   0.432  0.00  0.00    -0.680 OA
ATOM     13  O   SER A  2       -6.095   1.022   0.328  0.00  0.00    -0.680 OA
ENDBRANCH  10  11
BRANCH  10  14
ATOM     14  CB  SER A  2       -5.099   1.440   3.316  0.00  0.00    +0.190 C 
BRANCH  14  15
ATOM     15  OG  SER A  2       -5.220   2.862   3.388  0.00  0.00    -0.560 OA
ATOM     16  H   SER A  2       -5.641   3.180   4.197  0.00  0.00    +0.370 HD
ENDBRANCH  14  15
ENDBRANCH  10  14
ENDBRANCH   7  10
ENDBRANCH   1   6
BRANCH   1  17
ATOM     17  CB  HIS A  1        0.041   0.972   2.456  0.00  0.00    +0.180 C 
BRANCH  17  18
ATOM     18  CG  HIS A  1        1.414   1.591   2.509  0.00  0.00    -0.070 A 
ATOM     19  CD2 HIS A  1        2.519   1.147   1.882  0.00  0.00    +0.150 A 
ATOM     20  NE2 HIS A  1        3.530   1.976   2.186  0.00  0.00    -0.490 NA
ATOM     21  CE1 HIS A  1        3.092   2.915   2.979  0.00  0.00    +0.440 A 
ATOM     22  ND1 HIS A  1        1.775   2.716   3.201  0.00  0.00    -0.560 N 
ATOM     23  HD1 HIS A  1        1.195   3.264   3.752  0.00  0.00    +0.430 HD
ENDBRANCH  17  18
ENDBRANCH   1  17
TORSDOF 8
ENDMDL
MODEL     1160
REMARK  Name = ZINC000004533526
REMARK                            x       y       z     vdW  Elec       q    Type
REMARK                         _______ _______ _______ _____ _____    ______ ____
ROOT
ATOM      1  CA  HIS A  1       -0.699   1.479   1.216  0.00  0.00    +0.180 C 
ENDROOT
BRANCH   1   2
ATOM      2  N   HIS A  1       -0.012   1.005   0.008  0.00  0.00    -0.620 N 
ATOM      3  H1  HIS A  1       -0.500   1.339  -0.810  0.00  0.00    +0.430 HD
ATOM      4  H2  HIS A  1        0.935   1.354   0.000  0.00  0.00    +0.450 HD
ATOM      5  H3  HIS A  1        0.002  -0.004   0.002  0.00  0.00    +0.440 HD
ENDBRANCH   1   2
BRANCH   1   6
ATOM      6  C   HIS A  1        0.030   0.979   2.437  0.00  0.00    +0.500 C 
ATOM      7  N   SER A  2       -0.150   1.589   3.626  0.00  0.00    -0.650 N 
ATOM      8  H   SER A  2       -0.749   2.349   3.695  0.00  0.00    +0.410 HD
ATOM      9  O   HIS A  1        0.778   0.029   2.350  0.00  0.00    -0.540 OA
BRANCH   7  10
ATOM     10  CA  SER A  2        0.558   1.103   4.812  0.00  0.00    +0.160 C 
BRANCH  10  11
ATOM     11  C   SER A  2        1.931   1.723   4.866  0.00  0.00    +0.500 C 
ATOM     12  OXT SER A  2        2.752   1.317   5.671  0.00  0.00    -0.680 OA
ATOM     13  O   SER A  2        2.221   2.630   4.105  0.00  0.00    -0.680 OA
ENDBRANCH  10  11
BRANCH  10  14
ATOM     14  CB  SER A  2       -0.226   1.491   6.068  0.00  0.00    +0.190 C 
BRANCH  14  15
ATOM     15  OG  SER A  2       -0.247   2.914   6.196  0.00  0.00    -0.560 OA
ATOM     16  H   SER A  2       -0.728   3.232   6.973  0.00  0.00    +0.380 HD
ENDBRANCH  14  15
ENDBRANCH  10  14
ENDBRANCH   7  10
ENDBRANCH   1   6
BRANCH   1  17
ATOM     17  CB  HIS A  1       -2.135   0.949   1.227  0.00  0.00    +0.190 C 
BRANCH  17  18
ATOM     18  CG  HIS A  1       -2.899   1.546   0.074  0.00  0.00    -0.090 A 
ATOM     19  CD2 HIS A  1       -3.524   2.739   0.056  0.00  0.00    +0.200 A 
ATOM     20  NE2 HIS A  1       -4.083   2.897  -1.153  0.00  0.00    -0.490 NA
ATOM     21  CE1 HIS A  1       -3.828   1.847  -1.885  0.00  0.00    +0.440 A 
ATOM     22  ND1 HIS A  1       -3.087   0.983  -1.160  0.00  0.00    -0.580 N 
ATOM     23  HD1 HIS A  1       -2.755   0.120  -1.455  0.00  0.00    +0.420 HD
ENDBRANCH  17  18
ENDBRANCH   1  17
TORSDOF 8
ENDMDL
MODEL     1161
REMARK  Name = ZINC000004530759
REMARK                            x       y       z     vdW  Elec       q    Type
REMARK                         _______ _______ _______ _____ _____    ______ ____
ROOT
ATOM      1  C   LIG    1       -0.019   1.526   0.010  0.00  0.00    +0.090 C 
ATOM      2  C   LIG    1        0.002  -0.004   0.002  0.00  0.00    +0.250 C 
ATOM      3  O   LIG    1        0.740  -0.483  -1.136  0.00  0.00    -0.370 OA
ATOM      4  C   LIG    1        1.396  -1.693  -0.731  0.00  0.00    +0.340 C 
ATOM      5  O   LIG    1        2.803  -1.589  -0.922  0.00  0.00    -0.320 OA
ATOM      6  C   LIG    1        3.493  -1.551   0.329  0.00  0.00    +0.170 C 
ATOM      7  C   LIG    1        4.635  -2.594   0.298  0.00  0.00    +0.170 C 
ATOM      8  C   LIG    1        4.202  -3.661   1.327  0.00  0.00    +0.300 C 
ATOM      9  O   LIG    1        2.766  -3.531   1.413  0.00  0.00    -0.380 OA
ATOM     10  C   LIG    1        2.509  -2.098   1.397  0.00  0.00    +0.180 C 
ATOM     11  C   LIG    1        1.109  -1.832   0.783  0.00  0.00    +0.160 C 
ATOM     12  C   LIG    1       -1.427  -0.549  -0.028  0.00  0.00    +0.040 C 
ATOM     13  O   LIG    1        0.697  -0.497   1.166  0.00  0.00    -0.360 OA
ENDROOT
BRANCH   8  14
ATOM     14  O   LIG    1        4.560  -4.966   0.870  0.00  0.00    -0.540 OA
ATOM     15  H   LIG    1        4.312  -5.677   1.477  0.00  0.00    +0.390 HD
ENDBRANCH   8  14
BRANCH   7  16
ATOM     16  O   LIG    1        4.750  -3.170  -1.005  0.00  0.00    -0.520 OA
ATOM     17  H   LIG    1        5.452  -3.831  -1.082  0.00  0.00    +0.380 HD
ENDBRANCH   7  16
TORSDOF 2
ENDMDL
MODEL     1162
REMARK  Name = ZINC000004533743
REMARK                            x       y       z     vdW  Elec       q    Type
REMARK                         _______ _______ _______ _____ _____    ______ ____
ROOT
ATOM      1  CA  ALA A  2        0.738  -0.999  -3.621  0.00  0.00    +0.240 C 
ATOM      2  CB  ALA A  2        0.650  -2.524  -3.692  0.00  0.00    +0.070 C 
ENDROOT
BRANCH   1   4
ATOM      3  C   ALA A  1        0.707  -0.490  -1.238  0.00  0.00    +0.500 C 
ATOM      4  N   ALA A  2        0.053  -0.526  -2.415  0.00  0.00    -0.680 N 
ATOM      5  H   ALA A  2       -0.873  -0.239  -2.465  0.00  0.00    +0.420 HD
ATOM      6  O   ALA A  1        1.864  -0.849  -1.176  0.00  0.00    -0.530 OA
BRANCH   3   8
ATOM      7  CB  ALA A  1       -0.019   1.526   0.010  0.00  0.00    +0.130 C 
ATOM      8  CA  ALA A  1        0.002  -0.004   0.002  0.00  0.00    +0.180 C 
BRANCH   8   9
ATOM      9  N   ALA A  1        0.713  -0.491   1.192  0.00  0.00    -0.620 N 
ATOM     10  H1  ALA A  1        0.726  -1.500   1.187  0.00  0.00    +0.440 HD
ATOM     11  H2  ALA A  1        0.240  -0.165   2.022  0.00  0.00    +0.440 HD
ATOM     12  H3  ALA A  1        1.659  -0.141   1.185  0.00  0.00    +0.440 HD
ENDBRANCH   8   9
ENDBRANCH   3   8
ENDBRANCH   1   4
BRANCH   1  13
ATOM     13  C   ALA A  2        0.083  -0.400  -4.839  0.00  0.00    +0.500 C 
ATOM     14  N   ALA A  3        0.549  -0.695  -6.068  0.00  0.00    -0.680 N 
ATOM     15  H   ALA A  3        1.306  -1.293  -6.169  0.00  0.00    +0.410 HD
ATOM     16  O   ALA A  2       -0.863   0.348  -4.712  0.00  0.00    -0.560 OA
BRANCH  14  17
ATOM     17  CA  ALA A  3       -0.088  -0.113  -7.252  0.00  0.00    +0.160 C 
ATOM     18  CB  ALA A  3        0.504   1.272  -7.521  0.00  0.00    +0.020 C 
BRANCH  17  19
ATOM     19  C   ALA A  3        0.157  -1.004  -8.443  0.00  0.00    +0.490 C 
ATOM     20  OXT ALA A  3       -0.291  -0.698  -9.535  0.00  0.00    -0.680 OA
ATOM     21  O   ALA A  3        0.803  -2.029  -8.315  0.00  0.00    -0.690 OA
ENDBRANCH  17  19
ENDBRANCH  14  17
ENDBRANCH   1  13
TORSDOF 6
ENDMDL
MODEL     1163
REMARK  Name = ZINC000004543560
REMARK                            x       y       z     vdW  Elec       q    Type
REMARK                         _______ _______ _______ _____ _____    ______ ____
ROOT
ATOM      1  C1*   U A  1        0.071   5.388   0.412  0.00  0.00    +0.430 C 
ATOM      2  C2*   U A  1        1.121   5.937   1.411  0.00  0.00    +0.010 C 
ATOM      3  C3*   U A  1        0.576   7.356   1.707  0.00  0.00    +0.160 C 
ATOM      4  C4*   U A  1       -0.914   7.276   1.322  0.00  0.00    +0.190 C 
ATOM      5  O4*   U A  1       -1.177   5.926   0.900  0.00  0.00    -0.360 OA
ENDROOT
BRANCH   1  10
ATOM      6  O4    U A  1        0.002  -0.004   0.002  0.00  0.00    -0.500 OA
ATOM      7  C4    U A  1       -0.014   1.208   0.009  0.00  0.00    +0.520 C 
ATOM      8  C5    U A  1       -1.330   1.945   0.032  0.00  0.00    +0.090 C 
ATOM      9  C6    U A  1       -1.174   3.228   0.850  0.00  0.00    +0.310 C 
ATOM     10  N1    U A  1        0.048   3.923   0.441  0.00  0.00    -0.610 N 
ATOM     11  C2    U A  1        1.149   3.237   0.093  0.00  0.00    +0.720 C 
ATOM     12  O2    U A  1        2.176   3.843  -0.141  0.00  0.00    -0.550 OA
ATOM     13  N3    U A  1        1.141   1.897   0.001  0.00  0.00    -0.670 N 
ATOM     14  H3    U A  1        1.982   1.419  -0.079  0.00  0.00    +0.430 HD
ENDBRANCH   1  10
BRANCH   3  15
ATOM     15  O3*   U A  1        1.251   8.328   0.906  0.00  0.00    -0.560 OA
ATOM     16  H3*   U A  1        2.203   8.379   1.068  0.00  0.00    +0.390 HD
ENDBRANCH   3  15
BRANCH   4  17
ATOM     17  C5*   U A  1       -1.783   7.627   2.531  0.00  0.00    +0.210 C 
BRANCH  17  18
ATOM     18  O5*   U A  1       -3.156   7.664   2.136  0.00  0.00    -0.560 OA
ATOM     19  H5*   U A  1       -3.766   7.880   2.854  0.00  0.00    +0.380 HD
ENDBRANCH  17  18
ENDBRANCH   4  17
TORSDOF 4
ENDMDL
MODEL     1164
REMARK  Name = ZINC000004533527
REMARK                            x       y       z     vdW  Elec       q    Type
REMARK                         _______ _______ _______ _____ _____    ______ ____
ROOT
ATOM      1  CA  HIS A  1       -0.699   1.479   1.216  0.00  0.00    +0.180 C 
ENDROOT
BRANCH   1   2
ATOM      2  N   HIS A  1       -0.012   1.005   0.008  0.00  0.00    -0.620 N 
ATOM      3  H1  HIS A  1       -0.500   1.339  -0.810  0.00  0.00    +0.440 HD
ATOM      4  H2  HIS A  1        0.935   1.354   0.000  0.00  0.00    +0.430 HD
ATOM      5  H3  HIS A  1        0.002  -0.004   0.002  0.00  0.00    +0.440 HD
ENDBRANCH   1   2
BRANCH   1   6
ATOM      6  C   HIS A  1       -2.113   0.957   1.227  0.00  0.00    +0.490 C 
ATOM      7  N   SER A  2       -3.047   1.558   1.989  0.00  0.00    -0.650 N 
ATOM      8  H   SER A  2       -2.810   2.327   2.531  0.00  0.00    +0.400 HD
ATOM      9  O   HIS A  1       -2.410  -0.004   0.549  0.00  0.00    -0.530 OA
BRANCH   7  10
ATOM     10  CA  SER A  2       -4.422   1.051   2.000  0.00  0.00    +0.160 C 
BRANCH  10  11
ATOM     11  C   SER A  2       -4.536  -0.070   2.999  0.00  0.00    +0.500 C 
ATOM     12  OXT SER A  2       -5.545  -0.753   3.037  0.00  0.00    -0.680 OA
ATOM     13  O   SER A  2       -3.619  -0.295   3.771  0.00  0.00    -0.680 OA
ENDBRANCH  10  11
BRANCH  10  14
ATOM     14  CB  SER A  2       -5.379   2.180   2.388  0.00  0.00    +0.190 C 
BRANCH  14  15
ATOM     15  OG  SER A  2       -5.116   2.586   3.733  0.00  0.00    -0.560 OA
ATOM     16  H   SER A  2       -5.687   3.300   4.047  0.00  0.00    +0.380 HD
ENDBRANCH  14  15
ENDBRANCH  10  14
ENDBRANCH   7  10
ENDBRANCH   1   6
BRANCH   1  17
ATOM     17  CB  HIS A  1        0.041   0.972   2.456  0.00  0.00    +0.190 C 
BRANCH  17  18
ATOM     18  CG  HIS A  1        1.414   1.591   2.509  0.00  0.00    -0.060 A 
ATOM     19  CD2 HIS A  1        2.519   1.147   1.882  0.00  0.00    +0.140 A 
ATOM     20  NE2 HIS A  1        3.530   1.976   2.186  0.00  0.00    -0.490 NA
ATOM     21  CE1 HIS A  1        3.092   2.915   2.979  0.00  0.00    +0.430 A 
ATOM     22  ND1 HIS A  1        1.775   2.716   3.201  0.00  0.00    -0.560 N 
ATOM     23  HD1 HIS A  1        1.195   3.264   3.752  0.00  0.00    +0.430 HD
ENDBRANCH  17  18
ENDBRANCH   1  17
TORSDOF 8
ENDMDL
MODEL     1165
REMARK  Name = ZINC000004529964
REMARK                            x       y       z     vdW  Elec       q    Type
REMARK                         _______ _______ _______ _____ _____    ______ ____
ROOT
ATOM      1  C   LIG    1       -3.477  -0.967   0.030  0.00  0.00    +0.290 C 
ATOM      2  O   LIG    1       -3.856  -1.264  -1.315  0.00  0.00    -0.350 OA
ATOM      3  C   LIG    1       -4.935  -2.195  -1.425  0.00  0.00    +0.200 C 
ATOM      4  C   LIG    1       -6.179  -1.614  -0.748  0.00  0.00    +0.110 C 
ATOM      5  C   LIG    1       -5.854  -1.298   0.715  0.00  0.00    +0.200 C 
ATOM      6  C   LIG    1       -4.662  -0.337   0.766  0.00  0.00    +0.160 C 
ENDROOT
BRANCH   1   7
ATOM      7  N   LIG    1       -2.348  -0.027   0.024  0.00  0.00    -0.460 NA
ATOM      8  H   LIG    1       -2.399   0.605   0.810  0.00  0.00    +0.360 HD
BRANCH   7   9
ATOM      9  N   LIG    1       -1.156  -0.694   0.009  0.00  0.00    -0.520 N 
ATOM     10  H   LIG    1       -1.143  -1.664   0.004  0.00  0.00    +0.430 HD
BRANCH   9  11
ATOM     11  C   LIG    1        0.002  -0.004   0.002  0.00  0.00    +0.590 C 
ATOM     12  S   LIG    1        1.496  -0.840  -0.017  0.00  0.00    -0.620 S 
BRANCH  11  13
ATOM     13  N   LIG    1       -0.016   1.344   0.009  0.00  0.00    -0.790 N 
ATOM     14  H   LIG    1       -0.863   1.817   0.016  0.00  0.00    +0.400 HD
ATOM     15  H   LIG    1        0.817   1.840   0.004  0.00  0.00    +0.430 HD
ENDBRANCH  11  13
ENDBRANCH   9  11
ENDBRANCH   7   9
ENDBRANCH   1   7
BRANCH   5  16
ATOM     16  O   LIG    1       -6.988  -0.689   1.336  0.00  0.00    -0.540 OA
ATOM     17  H   LIG    1       -7.782  -1.241   1.334  0.00  0.00    +0.380 HD
ENDBRANCH   5  16
BRANCH   4  18
ATOM     18  O   LIG    1       -6.574  -0.416  -1.420  0.00  0.00    -0.520 OA
ATOM     19  H   LIG    1       -6.790  -0.542  -2.354  0.00  0.00    +0.370 HD
ENDBRANCH   4  18
BRANCH   6  20
ATOM     20  O   LIG    1       -5.016   0.896   0.136  0.00  0.00    -0.500 OA
ATOM     21  H   LIG    1       -4.306   1.553   0.132  0.00  0.00    +0.370 HD
ENDBRANCH   6  20
TORSDOF 7
ENDMDL
MODEL     1166
REMARK  Name = ZINC000002227422
REMARK                            x       y       z     vdW  Elec       q    Type
REMARK                         _______ _______ _______ _____ _____    ______ ____
ROOT
ATOM      1  O   LIG    1        1.471   0.187   4.377  0.00  0.00    -0.380 OA
ENDROOT
BRANCH   1   2
ATOM      2  C   LIG    1        1.469  -0.221   3.007  0.00  0.00    +0.190 C 
BRANCH   2   3
ATOM      3  C   LIG    1        0.025  -0.379   2.525  0.00  0.00    +0.180 C 
BRANCH   3   9
ATOM      4  C   LIG    1       -0.018   1.461   0.010  0.00  0.00    +0.400 C 
ATOM      5  N   LIG    1        0.002  -0.004   0.002  0.00  0.00    -0.310 N 
ATOM      6  N   LIG    1        0.008  -0.765  -1.040  0.00  0.00    -0.090 NA
ATOM      7  N   LIG    1        0.026  -1.994  -0.657  0.00  0.00    -0.070 NA
ATOM      8  N   LIG    1        0.032  -2.040   0.630  0.00  0.00    -0.290 NA
ATOM      9  C   LIG    1        0.023  -0.809   1.080  0.00  0.00    +0.180 A 
ENDBRANCH   3   9
ENDBRANCH   2   3
ENDBRANCH   1   2
BRANCH   1  10
ATOM     10  C   LIG    1        2.777   0.364   4.929  0.00  0.00    +0.190 C 
BRANCH  10  11
ATOM     11  C   LIG    1        2.659   0.798   6.391  0.00  0.00    +0.180 C 
BRANCH  11  12
ATOM     12  C   LIG    1        4.036   0.985   6.973  0.00  0.00    +0.180 A 
ATOM     13  N   LIG    1        4.764   0.073   7.570  0.00  0.00    -0.290 NA
ATOM     14  N   LIG    1        5.875   0.620   7.926  0.00  0.00    -0.070 NA
ATOM     15  N   LIG    1        5.875   1.857   7.570  0.00  0.00    -0.090 NA
ATOM     16  N   LIG    1        4.761   2.119   6.975  0.00  0.00    -0.310 N 
ATOM     17  C   LIG    1        4.356   3.411   6.415  0.00  0.00    +0.390 C 
ENDBRANCH  11  12
ENDBRANCH  10  11
ENDBRANCH   1  10
TORSDOF 6
ENDMDL
MODEL     1167
REMARK  Name = ZINC000033459040
REMARK                            x       y       z     vdW  Elec       q    Type
REMARK                         _______ _______ _______ _____ _____    ______ ____
ROOT
ATOM      1  C   LIG    1       -1.416  -2.058  -0.121  0.00  0.00    +0.160 C 
ATOM      2  O   LIG    1       -0.857  -2.450  -1.393  0.00  0.00    -0.350 OA
ATOM      3  C   LIG    1       -1.321  -3.783  -1.667  0.00  0.00    +0.390 C 
ATOM      4  N   LIG    1       -1.687  -3.879  -3.089  0.00  0.00    -0.660 N 
ATOM      5  H   LIG    1       -1.067  -3.837  -3.834  0.00  0.00    +0.450 HD
ATOM      6  C   LIG    1       -3.013  -4.034  -3.190  0.00  0.00    +0.510 C 
ATOM      7  O   LIG    1       -3.645  -4.074  -2.010  0.00  0.00    -0.260 OA
ATOM      8  S   LIG    1       -3.827  -4.167  -4.690  0.00  0.00    -0.500 S 
ATOM      9  C   LIG    1       -2.661  -3.962  -0.911  0.00  0.00    +0.150 C 
ATOM     10  C   LIG    1       -2.860  -2.618  -0.168  0.00  0.00    +0.190 C 
ENDROOT
BRANCH  10  11
ATOM     11  O   LIG    1       -3.699  -1.739  -0.921  0.00  0.00    -0.530 OA
ATOM     12  H   LIG    1       -4.591  -2.081  -1.072  0.00  0.00    +0.390 HD
ENDBRANCH  10  11
BRANCH   1  13
ATOM     13  C   LIG    1       -1.433  -0.534   0.013  0.00  0.00    +0.260 C 
BRANCH  13  14
ATOM     14  O   LIG    1       -2.066  -0.171   1.242  0.00  0.00    -0.530 OA
ATOM     15  H   LIG    1       -1.626  -0.521   2.029  0.00  0.00    +0.370 HD
ENDBRANCH  13  14
BRANCH  13  16
ATOM     16  C   LIG    1        0.002  -0.004   0.002  0.00  0.00    +0.160 C 
BRANCH  16  17
ATOM     17  O   LIG    1       -0.017   1.425   0.010  0.00  0.00    -0.560 OA
ATOM     18  H   LIG    1        0.861   1.830   0.004  0.00  0.00    +0.380 HD
ENDBRANCH  16  17
ENDBRANCH  13  16
ENDBRANCH   1  13
TORSDOF 5
ENDMDL
MODEL     1168
REMARK  Name = ZINC000014360284
REMARK                            x       y       z     vdW  Elec       q    Type
REMARK                         _______ _______ _______ _____ _____    ______ ____
ROOT
ATOM      1  N   ALA A  1        0.711  -0.489   1.189  0.00  0.00    -0.690 N 
ATOM      2  H   ALA A  1        0.213  -0.731   1.986  0.00  0.00    +0.420 HD
ATOM      3  C   UNK A  0        2.054  -0.600   1.174  0.00  0.00    +0.510 C 
ATOM      4  O   UNK A  0        2.676  -0.297   0.177  0.00  0.00    -0.520 OA
ENDROOT
BRANCH   3   5
ATOM      5  C   UNK A  0        2.777  -1.095   2.385  0.00  0.00    +0.510 C 
ATOM      6  N   ALA A  1        4.120  -1.205   2.369  0.00  0.00    -0.690 N 
ATOM      7  H   ALA A  1        4.617  -0.964   1.573  0.00  0.00    +0.420 HD
ATOM      8  O   UNK A  0        2.154  -1.397   3.381  0.00  0.00    -0.520 OA
BRANCH   6   9
ATOM      9  CA  ALA A  1        4.828  -1.691   3.556  0.00  0.00    +0.240 C 
ATOM     10  CB  ALA A  1        4.849  -3.220   3.548  0.00  0.00    +0.040 C 
BRANCH   9  11
ATOM     11  C   ALA A  1        6.264  -1.161   3.545  0.00  0.00    +0.200 C 
BRANCH  11  12
ATOM     12  O   ALA A  1        6.968  -1.715   2.432  0.00  0.00    -0.570 OA
ATOM     13  H   ALA A  1        7.886  -1.422   2.362  0.00  0.00    +0.390 HD
ENDBRANCH  11  12
ENDBRANCH   9  11
ENDBRANCH   6   9
ENDBRANCH   3   5
BRANCH   1  15
ATOM     14  CB  ALA A  1       -0.019   1.526   0.010  0.00  0.00    +0.040 C 
ATOM     15  CA  ALA A  1        0.002  -0.004   0.002  0.00  0.00    +0.240 C 
BRANCH  15  16
ATOM     16  C   ALA A  1       -1.433  -0.534   0.013  0.00  0.00    +0.200 C 
BRANCH  16  17
ATOM     17  O   ALA A  1       -2.137   0.021   1.126  0.00  0.00    -0.570 OA
ATOM     18  H   ALA A  1       -3.056  -0.272   1.196  0.00  0.00    +0.390 HD
ENDBRANCH  16  17
ENDBRANCH  15  16
ENDBRANCH   1  15
TORSDOF 7
ENDMDL
MODEL     1169
REMARK  Name = ZINC000004762108
REMARK                            x       y       z     vdW  Elec       q    Type
REMARK                         _______ _______ _______ _____ _____    ______ ____
ROOT
ATOM      1  N   ILE A  3        1.316  -2.496  -2.534  0.00  0.00    -0.680 N 
ATOM      2  H   ILE A  3        1.412  -1.908  -3.299  0.00  0.00    +0.400 HD
ATOM      3  C   GLY A  2        1.813  -3.748  -2.579  0.00  0.00    +0.500 C 
ATOM      4  O   GLY A  2        1.693  -4.483  -1.623  0.00  0.00    -0.550 OA
ENDROOT
BRANCH   1   5
ATOM      5  CA  ILE A  3        0.630  -2.023  -1.329  0.00  0.00    +0.160 C 
BRANCH   5   6
ATOM      6  C   ILE A  3       -0.817  -2.441  -1.377  0.00  0.00    +0.490 C 
ATOM      7  OXT ILE A  3       -1.424  -2.659  -0.343  0.00  0.00    -0.680 OA
ATOM      8  O   ILE A  3       -1.381  -2.562  -2.452  0.00  0.00    -0.690 OA
ENDBRANCH   5   6
BRANCH   5   9
ATOM      9  CB  ILE A  3        0.718  -0.497  -1.257  0.00  0.00    -0.010 C 
ATOM     10  CG2 ILE A  3        2.187  -0.073  -1.207  0.00  0.00    +0.020 C 
BRANCH   9  12
ATOM     11  CD1 ILE A  3       -0.019   1.526   0.010  0.00  0.00    +0.000 C 
ATOM     12  CG1 ILE A  3        0.002  -0.004   0.002  0.00  0.00    +0.020 C 
ENDBRANCH   9  12
ENDBRANCH   5   9
ENDBRANCH   1   5
BRANCH   3  13
ATOM     13  CA  GLY A  2        2.519  -4.234  -3.819  0.00  0.00    +0.320 C 
BRANCH  13  14
ATOM     14  N   GLY A  2        2.962  -5.615  -3.619  0.00  0.00    -0.680 N 
ATOM     15  H   GLY A  2        2.782  -6.066  -2.779  0.00  0.00    +0.420 HD
ATOM     16  C   GLY A  1        3.621  -6.261  -4.602  0.00  0.00    +0.490 C 
ATOM     17  O   GLY A  1        3.846  -5.698  -5.652  0.00  0.00    -0.540 OA
BRANCH  16  18
ATOM     18  CA  GLY A  1        4.077  -7.682  -4.395  0.00  0.00    +0.300 C 
BRANCH  18  19
ATOM     19  N   GLY A  1        4.765  -8.156  -5.604  0.00  0.00    -0.620 N 
ATOM     20  H1  GLY A  1        5.565  -7.569  -5.788  0.00  0.00    +0.440 HD
ATOM     21  H2  GLY A  1        4.132  -8.117  -6.388  0.00  0.00    +0.440 HD
ATOM     22  H3  GLY A  1        5.071  -9.108  -5.466  0.00  0.00    +0.440 HD
ENDBRANCH  18  19
ENDBRANCH  16  18
ENDBRANCH  13  14
ENDBRANCH   3  13
TORSDOF 8
ENDMDL
MODEL     1170
REMARK  Name = ZINC000004762118
REMARK                            x       y       z     vdW  Elec       q    Type
REMARK                         _______ _______ _______ _____ _____    ______ ____
ROOT
ATOM      1  N   ILE A  3        1.316  -2.496  -2.534  0.00  0.00    -0.680 N 
ATOM      2  H   ILE A  3        2.019  -1.960  -2.934  0.00  0.00    +0.400 HD
ATOM      3  C   GLY A  2        0.971  -3.675  -3.087  0.00  0.00    +0.500 C 
ATOM      4  O   GLY A  2        0.092  -4.345  -2.587  0.00  0.00    -0.550 OA
ENDROOT
BRANCH   1   5
ATOM      5  CA  ILE A  3        0.630  -2.023  -1.329  0.00  0.00    +0.150 C 
BRANCH   5   6
ATOM      6  C   ILE A  3        1.285  -2.622  -0.111  0.00  0.00    +0.500 C 
ATOM      7  OXT ILE A  3        2.341  -3.223  -0.219  0.00  0.00    -0.690 OA
ATOM      8  O   ILE A  3        0.760  -2.506   0.983  0.00  0.00    -0.680 OA
ENDBRANCH   5   6
BRANCH   5   9
ATOM      9  CB  ILE A  3        0.718  -0.497  -1.257  0.00  0.00    -0.020 C 
ATOM     10  CG2 ILE A  3        2.187  -0.073  -1.207  0.00  0.00    +0.010 C 
BRANCH   9  12
ATOM     11  CD1 ILE A  3       -0.019   1.526   0.010  0.00  0.00    -0.010 C 
ATOM     12  CG1 ILE A  3        0.002  -0.004   0.002  0.00  0.00    +0.030 C 
ENDBRANCH   9  12
ENDBRANCH   5   9
ENDBRANCH   1   5
BRANCH   3  13
ATOM     13  CA  GLY A  2        1.676  -4.161  -4.327  0.00  0.00    +0.320 C 
BRANCH  13  14
ATOM     14  N   GLY A  2        1.123  -5.457  -4.728  0.00  0.00    -0.680 N 
ATOM     15  H   GLY A  2        0.410  -5.862  -4.208  0.00  0.00    +0.420 HD
ATOM     16  C   GLY A  1        1.603  -6.087  -5.817  0.00  0.00    +0.490 C 
ATOM     17  O   GLY A  1        2.494  -5.582  -6.467  0.00  0.00    -0.540 OA
BRANCH  16  18
ATOM     18  CA  GLY A  1        1.034  -7.421  -6.229  0.00  0.00    +0.300 C 
BRANCH  18  19
ATOM     19  N   GLY A  1        1.722  -7.894  -7.438  0.00  0.00    -0.620 N 
ATOM     20  H1  GLY A  1        2.707  -7.994  -7.247  0.00  0.00    +0.440 HD
ATOM     21  H2  GLY A  1        1.589  -7.227  -8.183  0.00  0.00    +0.440 HD
ATOM     22  H3  GLY A  1        1.340  -8.787  -7.714  0.00  0.00    +0.440 HD
ENDBRANCH  18  19
ENDBRANCH  16  18
ENDBRANCH  13  14
ENDBRANCH   3  13
TORSDOF 8
ENDMDL
MODEL     1171
REMARK  Name = ZINC000004899432
REMARK                            x       y       z     vdW  Elec       q    Type
REMARK                         _______ _______ _______ _____ _____    ______ ____
ROOT
ATOM      1  C   SER A  1        0.030   0.979   2.437  0.00  0.00    +0.510 C 
ATOM      2  N   PRO A  2       -0.150   1.589   3.626  0.00  0.00    -0.560 N 
ATOM      3  CD  PRO A  2       -1.032   2.744   3.874  0.00  0.00    +0.240 C 
ATOM      4  CG  PRO A  2       -0.445   3.427   5.135  0.00  0.00    +0.040 C 
ATOM      5  CB  PRO A  2        0.012   2.201   5.968  0.00  0.00    +0.060 C 
ATOM      6  CA  PRO A  2        0.494   1.207   4.891  0.00  0.00    +0.140 C 
ATOM      7  O   SER A  1        0.778   0.029   2.350  0.00  0.00    -0.520 OA
ENDROOT
BRANCH   6   8
ATOM      8  C   PRO A  2        0.102  -0.196   5.275  0.00  0.00    +0.500 C 
ATOM      9  OXT PRO A  2        0.869  -0.888   5.923  0.00  0.00    -0.680 OA
ATOM     10  O   PRO A  2       -0.982  -0.640   4.938  0.00  0.00    -0.690 OA
ENDBRANCH   6   8
BRANCH   1  11
ATOM     11  CA  SER A  1       -0.699   1.479   1.216  0.00  0.00    +0.180 C 
BRANCH  11  12
ATOM     12  N   SER A  1       -0.012   1.005   0.008  0.00  0.00    -0.620 N 
ATOM     13  H1  SER A  1       -0.500   1.339  -0.810  0.00  0.00    +0.440 HD
ATOM     14  H2  SER A  1        0.935   1.354   0.000  0.00  0.00    +0.440 HD
ATOM     15  H3  SER A  1        0.002  -0.004   0.002  0.00  0.00    +0.440 HD
ENDBRANCH  11  12
BRANCH  11  16
ATOM     16  CB  SER A  1       -2.135   0.949   1.227  0.00  0.00    +0.250 C 
BRANCH  16  17
ATOM     17  OG  SER A  1       -2.859   1.515   0.133  0.00  0.00    -0.580 OA
ATOM     18  H   SER A  1       -3.780   1.223   0.078  0.00  0.00    +0.410 HD
ENDBRANCH  16  17
ENDBRANCH  11  16
ENDBRANCH   1  11
TORSDOF 5
ENDMDL
MODEL     1172
REMARK  Name = ZINC000004899435
REMARK                            x       y       z     vdW  Elec       q    Type
REMARK                         _______ _______ _______ _____ _____    ______ ____
ROOT
ATOM      1  CA  PRO A  1       -1.330   1.951   0.019  0.00  0.00    +0.150 C 
ATOM      2  CB  PRO A  1       -2.017   1.817  -1.357  0.00  0.00    +0.080 C 
ATOM      3  CG  PRO A  1       -2.646   3.219  -1.568  0.00  0.00    +0.180 C 
ATOM      4  CD  PRO A  1       -1.585   4.139  -0.915  0.00  0.00    +0.230 C 
ATOM      5  N   PRO A  1       -1.100   3.383   0.258  0.00  0.00    -0.550 N 
ATOM      6  C   PRO A  1       -0.539   3.918   1.361  0.00  0.00    +0.520 C 
ATOM      7  O   PRO A  1       -0.176   3.199   2.267  0.00  0.00    -0.520 OA
ENDROOT
BRANCH   6   8
ATOM      8  CA  PRO A  1       -0.363   5.411   1.467  0.00  0.00    +0.170 C 
ATOM      9  CB  PRO A  1        0.569   5.912   0.343  0.00  0.00    +0.100 C 
ATOM     10  CG  PRO A  1        1.410   7.008   1.049  0.00  0.00    +0.080 C 
ATOM     11  CD  PRO A  1        1.571   6.413   2.470  0.00  0.00    +0.270 C 
ATOM     12  N   PRO A  1        0.276   5.751   2.752  0.00  0.00    -0.500 N 
ATOM     13  H1  PRO A  1        0.434   4.907   3.283  0.00  0.00    +0.440 HD
ATOM     14  H2  PRO A  1       -0.318   6.376   3.276  0.00  0.00    +0.430 HD
ENDBRANCH   6   8
BRANCH   1  16
ATOM     15  O   PRO A  1        0.002  -0.004   0.002  0.00  0.00    -0.680 OA
ATOM     16  C   PRO A  1       -0.015   1.215   0.009  0.00  0.00    +0.500 C 
ATOM     17  OXT PRO A  1        1.033   1.839   0.002  0.00  0.00    -0.690 OA
ENDBRANCH   1  16
BRANCH   3  18
ATOM     18  OD  PRO A  1       -3.901   3.324  -0.893  0.00  0.00    -0.550 OA
ATOM     19  HD  PRO A  1       -4.333   4.183  -0.996  0.00  0.00    +0.380 HD
ENDBRANCH   3  18
TORSDOF 3
ENDMDL
MODEL     1173
REMARK  Name = ZINC000005320239
REMARK                            x       y       z     vdW  Elec       q    Type
REMARK                         _______ _______ _______ _____ _____    ______ ____
ROOT
ATOM      1  C   LIG    1        0.679  -2.115   1.088  0.00  0.00    +0.030 C 
ATOM      2  C   LIG    1       -0.741  -2.684   1.130  0.00  0.00    +0.120 C 
ATOM      3  C   LIG    1       -0.706  -4.157   1.427  0.00  0.00    +0.530 C 
ATOM      4  N   LIG    1        0.345  -4.748   2.014  0.00  0.00    -0.520 N 
ATOM      5  H   LIG    1        0.310  -5.698   2.206  0.00  0.00    +0.420 HD
ATOM      6  N   LIG    1        1.492  -4.019   2.357  0.00  0.00    -0.430 N 
ATOM      7  C   LIG    1        2.637  -4.652   2.680  0.00  0.00    +0.720 C 
ATOM      8  O   LIG    1        3.626  -4.009   2.976  0.00  0.00    -0.560 OA
ATOM      9  N   LIG    1        2.687  -5.999   2.676  0.00  0.00    -0.860 N 
ATOM     10  H   LIG    1        3.511  -6.455   2.908  0.00  0.00    +0.420 HD
ATOM     11  H   LIG    1        1.898  -6.513   2.440  0.00  0.00    +0.400 HD
ATOM     12  O   LIG    1       -1.663  -4.836   1.124  0.00  0.00    -0.520 OA
ATOM     13  C   LIG    1        1.426  -2.550   2.356  0.00  0.00    +0.370 C 
ENDROOT
BRANCH   1  14
ATOM     14  C   LIG    1        0.618  -0.611   1.029  0.00  0.00    +0.470 C 
ATOM     15  O   LIG    1        1.124   0.049   1.905  0.00  0.00    -0.490 OA
BRANCH  14  17
ATOM     16  C   LIG    1       -0.018   1.448   0.010  0.00  0.00    +0.280 C 
ATOM     17  O   LIG    1        0.002  -0.004   0.002  0.00  0.00    -0.350 OA
ENDBRANCH  14  17
ENDBRANCH   1  14
TORSDOF 2
ENDMDL
MODEL     1174
REMARK  Name = ZINC000002516284
REMARK                            x       y       z     vdW  Elec       q    Type
REMARK                         _______ _______ _______ _____ _____    ______ ____
ROOT
ATOM      1  C   VAL A  1       -1.413  -2.041   0.005  0.00  0.00    +0.490 C 
ATOM      2  N   THR A  2       -1.212  -2.705  -1.150  0.00  0.00    -0.660 N 
ATOM      3  H   THR A  2       -1.081  -2.214  -1.976  0.00  0.00    +0.400 HD
ATOM      4  O   VAL A  1       -1.577  -2.655   1.037  0.00  0.00    -0.530 OA
ENDROOT
BRANCH   1   5
ATOM      5  CA  VAL A  1       -1.433  -0.534   0.013  0.00  0.00    +0.170 C 
BRANCH   5   6
ATOM      6  N   VAL A  1       -2.121  -0.060   1.222  0.00  0.00    -0.620 N 
ATOM      7  H1  VAL A  1       -1.633  -0.394   2.039  0.00  0.00    +0.440 HD
ATOM      8  H2  VAL A  1       -3.067  -0.409   1.229  0.00  0.00    +0.440 HD
ATOM      9  H3  VAL A  1       -2.135   0.949   1.227  0.00  0.00    +0.430 HD
ENDBRANCH   5   6
BRANCH   5  11
ATOM     10  CG1 VAL A  1       -0.019   1.526   0.010  0.00  0.00    +0.050 C 
ATOM     11  CB  VAL A  1        0.002  -0.004   0.002  0.00  0.00    +0.020 C 
ATOM     12  CG2 VAL A  1        0.742  -0.511   1.242  0.00  0.00    +0.060 C 
ENDBRANCH   5  11
ENDBRANCH   1   5
BRANCH   2  13
ATOM     13  CA  THR A  2       -1.192  -4.170  -1.159  0.00  0.00    +0.140 C 
BRANCH  13  14
ATOM     14  C   THR A  2        0.190  -4.656  -0.806  0.00  0.00    +0.500 C 
ATOM     15  OXT THR A  2        1.165  -3.982  -1.095  0.00  0.00    -0.680 OA
ATOM     16  O   THR A  2        0.334  -5.722  -0.234  0.00  0.00    -0.680 OA
ENDBRANCH  13  14
BRANCH  13  17
ATOM     17  CB  THR A  2       -1.572  -4.678  -2.551  0.00  0.00    +0.230 C 
ATOM     18  CG2 THR A  2       -2.921  -4.084  -2.960  0.00  0.00    +0.010 C 
BRANCH  17  19
ATOM     19  OG1 THR A  2       -0.572  -4.281  -3.492  0.00  0.00    -0.540 OA
ATOM     20  HG1 THR A  2       -0.454  -3.324  -3.559  0.00  0.00    +0.360 HD
ENDBRANCH  17  19
ENDBRANCH  13  17
ENDBRANCH   2  13
TORSDOF 7
ENDMDL
MODEL     1175
REMARK  Name = ZINC000005065283
REMARK                            x       y       z     vdW  Elec       q    Type
REMARK                         _______ _______ _______ _____ _____    ______ ____
ROOT
ATOM      1  O   LIG    1        0.002  -0.004   0.002  0.00  0.00    -0.960 OA
ATOM      2  S   LIG    1       -0.017   1.417   0.010  0.00  0.00    +2.750 S 
ATOM      3  N   LIG    1       -0.051   1.977   1.606  0.00  0.00    -1.040 NA
ATOM      4  C   LIG    1        0.677   1.113   2.565  0.00  0.00    +0.620 C 
ATOM      5  N   LIG    1        1.959   1.592   2.007  0.00  0.00    -1.040 NA
ATOM      6  C   LIG    1        2.541   1.155   0.715  0.00  0.00    +0.620 C 
ATOM      7  S   LIG    1        2.361   3.178   2.427  0.00  0.00    +2.750 S 
ATOM      8  O   LIG    1        3.658   3.489   1.935  0.00  0.00    -0.960 OA
ATOM      9  O   LIG    1        1.877   3.465   3.732  0.00  0.00    -0.960 OA
ATOM     10  N   LIG    1        1.199   3.614   1.281  0.00  0.00    -1.040 NA
ATOM     11  C   LIG    1        1.668   3.480  -0.119  0.00  0.00    +0.620 C 
ATOM     12  C   LIG    1       -0.200   3.447   1.728  0.00  0.00    +0.620 C 
ATOM     13  O   LIG    1       -0.841   2.239  -0.806  0.00  0.00    -0.960 OA
ATOM     14  N   LIG    1        1.565   2.007  -0.002  0.00  0.00    -1.040 NA
ENDROOT
TORSDOF 0
ENDMDL
MODEL     1176
REMARK  Name = ZINC000005016686
REMARK                            x       y       z     vdW  Elec       q    Type
REMARK                         _______ _______ _______ _____ _____    ______ ____
ROOT
ATOM      1  C   LIG    1       -1.416  -2.035  -0.119  0.00  0.00    +0.530 C 
ATOM      2  N   LIG    1       -2.574  -2.724  -0.133  0.00  0.00    -0.580 N 
ATOM      3  O   LIG    1       -0.359  -2.623  -0.213  0.00  0.00    -0.520 OA
ENDROOT
BRANCH   1   4
ATOM      4  C   LIG    1       -1.433  -0.534   0.013  0.00  0.00    +0.050 C 
BRANCH   4   6
ATOM      5  C   LIG    1       -0.019   1.526   0.010  0.00  0.00    +0.020 C 
ATOM      6  C   LIG    1        0.002  -0.004   0.002  0.00  0.00    +0.000 C 
ATOM      7  C   LIG    1        0.742  -0.511   1.242  0.00  0.00    +0.020 C 
ENDBRANCH   4   6
ENDBRANCH   1   4
BRANCH   2   8
ATOM      8  C   LIG    1       -3.850  -2.013  -0.020  0.00  0.00    +0.320 C 
BRANCH   8   9
ATOM      9  C   LIG    1       -4.344  -1.645  -1.396  0.00  0.00    +0.490 C 
ATOM     10  O   LIG    1       -3.695  -1.947  -2.374  0.00  0.00    -0.530 OA
ATOM     11  N   LIG    1       -5.508  -0.981  -1.539  0.00  0.00    -0.850 N 
ATOM     12  H   LIG    1       -5.826  -0.745  -2.424  0.00  0.00    +0.410 HD
ATOM     13  H   LIG    1       -6.028  -0.740  -0.756  0.00  0.00    +0.400 HD
ENDBRANCH   8   9
ENDBRANCH   2   8
BRANCH   2  14
ATOM     14  C   LIG    1       -2.558  -4.183  -0.262  0.00  0.00    +0.330 C 
BRANCH  14  15
ATOM     15  C   LIG    1       -2.495  -4.807   1.109  0.00  0.00    +0.500 C 
ATOM     16  O   LIG    1       -2.468  -4.102   2.095  0.00  0.00    -0.530 OA
ATOM     17  N   LIG    1       -2.470  -6.148   1.238  0.00  0.00    -0.850 N 
ATOM     18  H   LIG    1       -2.430  -6.550   2.120  0.00  0.00    +0.400 HD
ATOM     19  H   LIG    1       -2.492  -6.712   0.449  0.00  0.00    +0.400 HD
ENDBRANCH  14  15
ENDBRANCH   2  14
TORSDOF 6
ENDMDL
MODEL     1177
REMARK  Name = ZINC000252666173
REMARK                            x       y       z     vdW  Elec       q    Type
REMARK                         _______ _______ _______ _____ _____    ______ ____
ROOT
ATOM      1  C   LIG    1        1.496  -2.371   2.466  0.00  0.00    +0.140 C 
ATOM      2  C   LIG    1        1.605  -3.716   2.612  0.00  0.00    -0.140 A 
ATOM      3  S   LIG    1        0.995  -4.977   1.528  0.00  0.00    +0.220 S 
ATOM      4  C   LIG    1        1.594  -6.330   2.515  0.00  0.00    +0.270 A 
ATOM      5  N   LIG    1        1.597  -7.633   2.480  0.00  0.00    -0.460 NA
ATOM      6  C   LIG    1        2.289  -8.173   3.652  0.00  0.00    +0.240 C 
ATOM      7  C   LIG    1        2.724  -6.926   4.437  0.00  0.00    +0.290 C 
ATOM      8  N   LIG    1        2.222  -5.794   3.608  0.00  0.00    -0.600 N 
ATOM      9  C   LIG    1        2.262  -4.456   3.705  0.00  0.00    +0.570 A 
ATOM     10  O   LIG    1        2.804  -3.890   4.635  0.00  0.00    -0.470 OA
ENDROOT
BRANCH   1  11
ATOM     11  C   LIG    1        0.801  -1.814   1.305  0.00  0.00    +0.490 C 
ATOM     12  O   LIG    1        0.321  -2.557   0.470  0.00  0.00    -0.480 OA
BRANCH  11  13
ATOM     13  O   LIG    1        0.693  -0.477   1.160  0.00  0.00    -0.340 OA
BRANCH  13  15
ATOM     14  C   LIG    1       -0.019   1.526   0.010  0.00  0.00    +0.070 C 
ATOM     15  C   LIG    1        0.002  -0.004   0.002  0.00  0.00    +0.200 C 
ENDBRANCH  13  15
ENDBRANCH  11  13
ENDBRANCH   1  11
TORSDOF 3
ENDMDL
MODEL     1178
REMARK  Name = ZINC000245204220
REMARK                            x       y       z     vdW  Elec       q    Type
REMARK                         _______ _______ _______ _____ _____    ______ ____
ROOT
ATOM      1  N   LIG    1        0.118  -0.099  -2.626  0.00  0.00    -0.470 N 
ATOM      2  H1  LIG    1       -0.193   0.855  -2.529  0.00  0.00    +0.410 HD
ATOM      3  H2  LIG    1       -0.666  -0.686  -2.866  0.00  0.00    +0.440 HD
ENDROOT
BRANCH   1   4
ATOM      4  C   LIG    1        1.132  -0.178  -3.686  0.00  0.00    +0.200 C 
ATOM      5  C   LIG    1        1.453  -1.665  -3.991  0.00  0.00    -0.250 C 
ATOM      6  S   LIG    1        2.246  -1.526  -5.644  0.00  0.00    +2.400 S 
ATOM      7  C   LIG    1        1.177  -0.159  -6.231  0.00  0.00    -0.320 C 
ATOM      8  O   LIG    1        1.983  -2.701  -6.399  0.00  0.00    -0.910 OA
ATOM      9  O   LIG    1        3.580  -1.059  -5.496  0.00  0.00    -0.910 OA
ATOM     10  C   LIG    1        0.595   0.475  -4.961  0.00  0.00    +0.210 C 
BRANCH  10  11
ATOM     11  O   LIG    1       -0.828   0.343  -4.986  0.00  0.00    -0.570 OA
ATOM     12  H   LIG    1       -1.251   0.790  -5.731  0.00  0.00    +0.410 HD
ENDBRANCH  10  11
ENDBRANCH   1   4
BRANCH   1  13
ATOM     13  CA  LIG    1        0.700  -0.556  -1.357  0.00  0.00    +0.070 C 
BRANCH  13  14
ATOM     14  C   LIG    1        0.959  -2.039  -1.427  0.00  0.00    +0.490 C 
ATOM     15  OXT LIG    1        1.942  -2.513  -0.885  0.00  0.00    -0.640 OA
ATOM     16  O   LIG    1        0.184  -2.765  -2.027  0.00  0.00    -0.660 OA
ENDBRANCH  13  14
BRANCH  13  18
ATOM     17  C   LIG    1       -0.439   1.251  -0.062  0.00  0.00    +0.030 C 
ATOM     18  C   LIG    1       -0.274  -0.262  -0.214  0.00  0.00    +0.070 C 
ENDBRANCH  13  18
ENDBRANCH   1  13
TORSDOF 5
ENDMDL
MODEL     1179
REMARK  Name = ZINC000005157275
REMARK                            x       y       z     vdW  Elec       q    Type
REMARK                         _______ _______ _______ _____ _____    ______ ____
ROOT
ATOM      1  C   LIG    1       -2.395   1.050   0.019  0.00  0.00    +0.160 C 
ATOM      2  C   LIG    1       -2.804   0.697  -1.424  0.00  0.00    +0.230 C 
ATOM      3  O   LIG    1       -4.110   1.254  -1.643  0.00  0.00    -0.340 OA
ATOM      4  C   LIG    1       -4.766   1.328  -0.360  0.00  0.00    +0.190 C 
ATOM      5  C   LIG    1       -5.720   2.544  -0.372  0.00  0.00    +0.160 C 
ATOM      6  C   LIG    1       -4.853   3.722   0.109  0.00  0.00    +0.230 C 
ATOM      7  O   LIG    1       -3.522   3.221   0.309  0.00  0.00    -0.340 OA
ATOM      8  C   LIG    1       -3.620   1.788   0.601  0.00  0.00    +0.200 C 
ENDROOT
BRANCH   1   9
ATOM      9  O   LIG    1       -1.250   1.905   0.018  0.00  0.00    -0.190 OA
BRANCH   9  11
ATOM     10  O   LIG    1        0.002  -0.004   0.002  0.00  0.00    -0.130 OA
ATOM     11  N   LIG    1       -0.014   1.214   0.009  0.00  0.00    +0.120 N 
ATOM     12  O   LIG    1        1.032   1.837   0.002  0.00  0.00    -0.060 OA
ENDBRANCH   9  11
ENDBRANCH   1   9
BRANCH   5  13
ATOM     13  O   LIG    1       -6.203   2.786  -1.696  0.00  0.00    -0.190 OA
BRANCH  13  14
ATOM     14  N   LIG    1       -7.446   3.462  -1.741  0.00  0.00    +0.120 N 
ATOM     15  O   LIG    1       -7.959   3.723  -2.814  0.00  0.00    -0.060 OA
ATOM     16  O   LIG    1       -8.004   3.781  -0.706  0.00  0.00    -0.130 OA
ENDBRANCH  13  14
ENDBRANCH   5  13
TORSDOF 4
ENDMDL
MODEL     1180
REMARK  Name = ZINC000005167367
REMARK                            x       y       z     vdW  Elec       q    Type
REMARK                         _______ _______ _______ _____ _____    ______ ____
ROOT
ATOM      1  C   LIG    1        0.673  -0.582   1.123  0.00  0.00    +0.350 C 
ATOM      2  O   LIG    1       -0.104  -0.373   2.304  0.00  0.00    -0.370 OA
ATOM      3  C   LIG    1       -1.419  -0.927   2.243  0.00  0.00    +0.150 C 
ATOM      4  C   LIG    1       -1.325  -2.443   2.056  0.00  0.00    +0.130 C 
ATOM      5  C   LIG    1       -0.526  -2.745   0.784  0.00  0.00    +0.190 C 
ATOM      6  C   LIG    1        0.852  -2.085   0.891  0.00  0.00    +0.260 C 
ENDROOT
BRANCH   6   7
ATOM      7  N   LIG    1        1.598  -2.305  -0.350  0.00  0.00    -0.710 N 
ATOM      8  H   LIG    1        1.123  -2.466  -1.180  0.00  0.00    +0.410 HD
ATOM      9  C   LIG    1        2.946  -2.285  -0.339  0.00  0.00    +0.510 C 
ATOM     10  O   LIG    1        3.541  -2.084   0.699  0.00  0.00    -0.550 OA
ATOM     11  C   LIG    1        3.713  -2.511  -1.616  0.00  0.00    +0.110 C 
ENDBRANCH   6   7
BRANCH   1  13
ATOM     12  C   LIG    1       -0.017   1.425   0.010  0.00  0.00    +0.210 C 
ATOM     13  O   LIG    1        0.002  -0.004   0.002  0.00  0.00    -0.400 OA
ENDBRANCH   1  13
BRANCH   5  14
ATOM     14  O   LIG    1       -0.372  -4.158   0.640  0.00  0.00    -0.550 OA
ATOM     15  H   LIG    1       -1.207  -4.640   0.573  0.00  0.00    +0.390 HD
ENDBRANCH   5  14
BRANCH   4  16
ATOM     16  O   LIG    1       -2.639  -2.993   1.938  0.00  0.00    -0.560 OA
ATOM     17  H   LIG    1       -3.202  -2.835   2.708  0.00  0.00    +0.390 HD
ENDBRANCH   4  16
BRANCH   3  18
ATOM     18  C   LIG    1       -2.164  -0.618   3.543  0.00  0.00    +0.200 C 
BRANCH  18  19
ATOM     19  O   LIG    1       -2.354   0.794   3.659  0.00  0.00    -0.560 OA
ATOM     20  H   LIG    1       -2.821   1.063   4.462  0.00  0.00    +0.380 HD
ENDBRANCH  18  19
ENDBRANCH   3  18
TORSDOF 6
ENDMDL
MODEL     1181
REMARK  Name = ZINC000005227360
REMARK                            x       y       z     vdW  Elec       q    Type
REMARK                         _______ _______ _______ _____ _____    ______ ____
ROOT
ATOM      1  C   LIG    1       -1.136  -2.159   0.001  0.00  0.00    +0.260 C 
ATOM      2  C   LIG    1       -1.020  -2.661  -1.440  0.00  0.00    +0.330 C 
ATOM      3  O   LIG    1       -2.166  -2.240  -2.183  0.00  0.00    -0.390 OA
ATOM      4  C   LIG    1       -3.405  -2.747  -1.682  0.00  0.00    +0.150 C 
ATOM      5  C   LIG    1       -3.616  -2.248  -0.250  0.00  0.00    +0.110 C 
ATOM      6  C   LIG    1       -2.433  -2.692   0.618  0.00  0.00    +0.190 C 
ENDROOT
BRANCH   1   9
ATOM      7  C   LIG    1       -0.018   1.503   0.010  0.00  0.00    +0.100 C 
ATOM      8  C   LIG    1        0.002  -0.004   0.002  0.00  0.00    +0.520 C 
ATOM      9  N   LIG    1       -1.156  -0.694   0.009  0.00  0.00    -0.720 N 
ATOM     10  H   LIG    1       -2.002  -0.220   0.020  0.00  0.00    +0.400 HD
ATOM     11  O   LIG    1        1.060  -0.596  -0.011  0.00  0.00    -0.520 OA
ENDBRANCH   1   9
BRANCH   5  12
ATOM     12  O   LIG    1       -4.826  -2.800   0.274  0.00  0.00    -0.550 OA
ATOM     13  H   LIG    1       -5.617  -2.562  -0.230  0.00  0.00    +0.390 HD
ENDBRANCH   5  12
BRANCH   2  14
ATOM     14  O   LIG    1        0.160  -2.122  -2.039  0.00  0.00    -0.520 OA
ATOM     15  H   LIG    1        0.298  -2.399  -2.955  0.00  0.00    +0.380 HD
ENDBRANCH   2  14
BRANCH   6  16
ATOM     16  O   LIG    1       -2.387  -4.119   0.672  0.00  0.00    -0.550 OA
ATOM     17  H   LIG    1       -3.182  -4.524   1.046  0.00  0.00    +0.400 HD
ENDBRANCH   6  16
BRANCH   4  18
ATOM     18  C   LIG    1       -4.552  -2.258  -2.568  0.00  0.00    +0.200 C 
BRANCH  18  19
ATOM     19  O   LIG    1       -4.417  -2.818  -3.875  0.00  0.00    -0.560 OA
ATOM     20  H   LIG    1       -5.112  -2.550  -4.492  0.00  0.00    +0.380 HD
ENDBRANCH  18  19
ENDBRANCH   4  18
TORSDOF 6
ENDMDL
MODEL     1182
REMARK  Name = ZINC000059201305
REMARK                            x       y       z     vdW  Elec       q    Type
REMARK                         _______ _______ _______ _____ _____    ______ ____
ROOT
ATOM      1  C   LIG    1        0.001  -4.173  -0.023  0.00  0.00    +0.390 C 
ATOM      2  O   LIG    1       -0.820  -4.641  -1.105  0.00  0.00    -0.340 OA
ATOM      3  C   LIG    1       -1.464  -5.852  -0.653  0.00  0.00    +0.190 C 
ATOM      4  C   LIG    1       -1.837  -5.536   0.818  0.00  0.00    +0.150 C 
ATOM      5  C   LIG    1       -0.621  -4.694   1.287  0.00  0.00    +0.130 C 
ATOM      6  F   LIG    1       -1.044  -3.628   2.089  0.00  0.00    -0.180 F 
ENDROOT
BRANCH   1  10
ATOM      7  C   LIG    1        0.002  -0.004   0.002  0.00  0.00    +0.500 A 
ATOM      8  N   LIG    1       -1.135  -0.687   0.004  0.00  0.00    -0.610 NA
ATOM      9  C   LIG    1       -1.129  -2.018  -0.004  0.00  0.00    +0.650 A 
ATOM     10  N   LIG    1        0.026  -2.708  -0.014  0.00  0.00    -0.530 N 
ATOM     11  C   LIG    1        1.220  -2.050  -0.016  0.00  0.00    +0.360 A 
ATOM     12  O   LIG    1       -2.189  -2.623  -0.003  0.00  0.00    -0.490 OA
ATOM     13  C   LIG    1        1.230  -0.697  -0.013  0.00  0.00    -0.160 A 
BRANCH   7  14
ATOM     14  N   LIG    1       -0.017   1.371   0.010  0.00  0.00    -0.820 N 
ATOM     15  H   LIG    1       -0.863   1.845   0.016  0.00  0.00    +0.410 HD
ATOM     16  H   LIG    1        0.817   1.868   0.004  0.00  0.00    +0.410 HD
ENDBRANCH   7  14
ENDBRANCH   1  10
BRANCH   4  17
ATOM     17  O   LIG    1       -3.044  -4.774   0.885  0.00  0.00    -0.510 OA
ATOM     18  H   LIG    1       -3.319  -4.552   1.785  0.00  0.00    +0.380 HD
ENDBRANCH   4  17
BRANCH   3  19
ATOM     19  C   LIG    1       -2.718  -6.137  -1.481  0.00  0.00    +0.220 C 
BRANCH  19  20
ATOM     20  O   LIG    1       -2.342  -6.438  -2.827  0.00  0.00    -0.570 OA
ATOM     21  H   LIG    1       -3.090  -6.630  -3.410  0.00  0.00    +0.380 HD
ENDBRANCH  19  20
ENDBRANCH   3  19
TORSDOF 5
ENDMDL
MODEL     1183
REMARK  Name = ZINC000017174506
REMARK                            x       y       z     vdW  Elec       q    Type
REMARK                         _______ _______ _______ _____ _____    ______ ____
ROOT
ATOM      1  C   LIG    1        0.001  -4.173  -0.023  0.00  0.00    +0.390 C 
ATOM      2  O   LIG    1       -0.820  -4.641  -1.105  0.00  0.00    -0.340 OA
ATOM      3  C   LIG    1       -1.464  -5.852  -0.653  0.00  0.00    +0.200 C 
ATOM      4  C   LIG    1       -1.837  -5.536   0.818  0.00  0.00    +0.170 C 
ATOM      5  C   LIG    1       -0.621  -4.694   1.287  0.00  0.00    +0.150 C 
ATOM      6  F   LIG    1       -1.044  -3.628   2.089  0.00  0.00    -0.180 F 
ENDROOT
BRANCH   1  10
ATOM      7  C   LIG    1        0.002  -0.004   0.002  0.00  0.00    +0.500 A 
ATOM      8  N   LIG    1       -1.135  -0.687   0.004  0.00  0.00    -0.610 NA
ATOM      9  C   LIG    1       -1.129  -2.018  -0.004  0.00  0.00    +0.670 A 
ATOM     10  N   LIG    1        0.026  -2.708  -0.014  0.00  0.00    -0.530 N 
ATOM     11  C   LIG    1        1.220  -2.050  -0.016  0.00  0.00    +0.380 A 
ATOM     12  O   LIG    1       -2.189  -2.623  -0.003  0.00  0.00    -0.530 OA
ATOM     13  C   LIG    1        1.230  -0.697  -0.013  0.00  0.00    -0.140 A 
BRANCH   7  14
ATOM     14  N   LIG    1       -0.017   1.371   0.010  0.00  0.00    -0.810 N 
ATOM     15  H   LIG    1       -0.863   1.845   0.016  0.00  0.00    +0.410 HD
ATOM     16  H   LIG    1        0.817   1.868   0.004  0.00  0.00    +0.420 HD
ENDBRANCH   7  14
ENDBRANCH   1  10
BRANCH   4  17
ATOM     17  O   LIG    1       -1.951  -6.736   1.584  0.00  0.00    -0.550 OA
ATOM     18  H   LIG    1       -2.183  -6.590   2.511  0.00  0.00    +0.390 HD
ENDBRANCH   4  17
BRANCH   3  19
ATOM     19  C   LIG    1       -2.718  -6.137  -1.481  0.00  0.00    +0.220 C 
BRANCH  19  20
ATOM     20  O   LIG    1       -2.342  -6.438  -2.827  0.00  0.00    -0.570 OA
ATOM     21  H   LIG    1       -3.090  -6.630  -3.410  0.00  0.00    +0.390 HD
ENDBRANCH  19  20
ENDBRANCH   3  19
TORSDOF 5
ENDMDL
MODEL     1184
REMARK  Name = ZINC000003795098
REMARK                            x       y       z     vdW  Elec       q    Type
REMARK                         _______ _______ _______ _____ _____    ______ ____
ROOT
ATOM      1  C1*   C A  1        0.001  -4.173  -0.023  0.00  0.00    +0.420 C 
ATOM      2  O4*   C A  1       -0.855  -4.660  -1.078  0.00  0.00    -0.340 OA
ATOM      3  C4*   C A  1       -1.233  -6.001  -0.726  0.00  0.00    +0.150 C 
ATOM      4  C3*   C A  1       -1.169  -6.107   0.810  0.00  0.00    +0.140 C 
ATOM      5  C2*   C A  1       -0.665  -4.715   1.268  0.00  0.00    +0.160 C 
ENDROOT
BRANCH   1   9
ATOM      6  C4    C A  1        0.002  -0.004   0.002  0.00  0.00    +0.500 A 
ATOM      7  N3    C A  1       -1.135  -0.687   0.004  0.00  0.00    -0.620 NA
ATOM      8  C2    C A  1       -1.129  -2.018  -0.004  0.00  0.00    +0.660 A 
ATOM      9  N1    C A  1        0.026  -2.708  -0.014  0.00  0.00    -0.530 N 
ATOM     10  C6    C A  1        1.220  -2.050  -0.016  0.00  0.00    +0.360 A 
ATOM     11  O2    C A  1       -2.189  -2.623  -0.003  0.00  0.00    -0.480 OA
ATOM     12  C5    C A  1        1.230  -0.697  -0.013  0.00  0.00    -0.160 A 
BRANCH   6  13
ATOM     13  N4    C A  1       -0.017   1.371   0.010  0.00  0.00    -0.820 N 
ATOM     14  H41   C A  1       -0.863   1.845   0.016  0.00  0.00    +0.410 HD
ATOM     15  H42   C A  1        0.817   1.868   0.004  0.00  0.00    +0.410 HD
ENDBRANCH   6  13
ENDBRANCH   1   9
BRANCH   4  16
ATOM     16  O3*   C A  1       -0.246  -7.126   1.203  0.00  0.00    -0.550 OA
ATOM     17  H3*   C A  1       -0.482  -8.011   0.893  0.00  0.00    +0.390 HD
ENDBRANCH   4  16
BRANCH   5  18
ATOM     18  O2*   C A  1       -1.757  -3.882   1.663  0.00  0.00    -0.500 OA
ATOM     19  H2*   C A  1       -2.264  -4.227   2.411  0.00  0.00    +0.370 HD
ENDBRANCH   5  18
BRANCH   3  20
ATOM     20  C5*   C A  1       -2.657  -6.285  -1.210  0.00  0.00    +0.210 C 
BRANCH  20  21
ATOM     21  O5*   C A  1       -2.683  -6.284  -2.639  0.00  0.00    -0.560 OA
ATOM     22  H5*   C A  1       -3.556  -6.457  -3.017  0.00  0.00    +0.380 HD
ENDBRANCH  20  21
ENDBRANCH   3  20
TORSDOF 6
ENDMDL
MODEL     1185
REMARK  Name = ZINC000005239365
REMARK                            x       y       z     vdW  Elec       q    Type
REMARK                         _______ _______ _______ _____ _____    ______ ____
ROOT
ATOM      1  C4    C A  1        0.002  -0.004   0.002  0.00  0.00    +0.500 A 
ATOM      2  N3    C A  1       -1.135  -0.687   0.004  0.00  0.00    -0.620 NA
ATOM      3  C2    C A  1       -1.129  -2.018  -0.004  0.00  0.00    +0.650 A 
ATOM      4  N1    C A  1        0.026  -2.708  -0.014  0.00  0.00    -0.530 N 
ATOM      5  C6    C A  1        1.220  -2.050  -0.016  0.00  0.00    +0.370 A 
ATOM      6  O2    C A  1       -2.189  -2.623  -0.003  0.00  0.00    -0.510 OA
ATOM      7  C5    C A  1        1.230  -0.697  -0.013  0.00  0.00    -0.150 A 
ENDROOT
BRANCH   4   8
ATOM      8  C1*   C A  1        0.001  -4.173  -0.023  0.00  0.00    +0.400 C 
ATOM      9  C2*   C A  1       -0.649  -4.707   1.273  0.00  0.00    +0.000 C 
ATOM     10  C3*   C A  1       -1.455  -5.941   0.807  0.00  0.00    +0.170 C 
ATOM     11  C4*   C A  1       -1.196  -6.005  -0.715  0.00  0.00    +0.180 C 
ATOM     12  O4*   C A  1       -0.845  -4.654  -1.089  0.00  0.00    -0.340 OA
BRANCH  10  13
ATOM     13  O3*   C A  1       -2.847  -5.759   1.073  0.00  0.00    -0.540 OA
ATOM     14  H3*   C A  1       -3.057  -5.653   2.011  0.00  0.00    +0.380 HD
ENDBRANCH  10  13
BRANCH  11  15
ATOM     15  C5*   C A  1       -2.459  -6.455  -1.451  0.00  0.00    +0.220 C 
BRANCH  15  16
ATOM     16  O5*   C A  1       -2.167  -6.620  -2.840  0.00  0.00    -0.570 OA
ATOM     17  H5*   C A  1       -2.925  -6.905  -3.370  0.00  0.00    +0.380 HD
ENDBRANCH  15  16
ENDBRANCH  11  15
ENDBRANCH   4   8
BRANCH   1  18
ATOM     18  N4    C A  1       -0.017   1.371   0.010  0.00  0.00    -0.820 N 
ATOM     19  H41   C A  1       -0.863   1.845   0.016  0.00  0.00    +0.410 HD
ATOM     20  H42   C A  1        0.817   1.868   0.004  0.00  0.00    +0.410 HD
ENDBRANCH   1  18
TORSDOF 5
ENDMDL
MODEL     1186
REMARK  Name = ZINC000012336757
REMARK                            x       y       z     vdW  Elec       q    Type
REMARK                         _______ _______ _______ _____ _____    ______ ____
ROOT
ATOM      1  C1*   C A  1        0.001  -4.173  -0.023  0.00  0.00    +0.400 C 
ATOM      2  O4*   C A  1       -0.845  -4.654  -1.089  0.00  0.00    -0.340 OA
ATOM      3  C4*   C A  1       -1.194  -6.005  -0.717  0.00  0.00    +0.140 C 
ATOM      4  C3*   C A  1       -1.457  -5.941   0.804  0.00  0.00    +0.130 C 
ATOM      5  C2*   C A  1       -0.649  -4.707   1.273  0.00  0.00    +0.160 C 
ENDROOT
BRANCH   1   9
ATOM      6  C4    C A  1        0.002  -0.004   0.002  0.00  0.00    +0.500 A 
ATOM      7  N3    C A  1       -1.135  -0.687   0.004  0.00  0.00    -0.620 NA
ATOM      8  C2    C A  1       -1.129  -2.018  -0.004  0.00  0.00    +0.660 A 
ATOM      9  N1    C A  1        0.026  -2.708  -0.014  0.00  0.00    -0.520 N 
ATOM     10  C6    C A  1        1.220  -2.050  -0.016  0.00  0.00    +0.360 A 
ATOM     11  O2    C A  1       -2.189  -2.623  -0.003  0.00  0.00    -0.480 OA
ATOM     12  C5    C A  1        1.230  -0.697  -0.013  0.00  0.00    -0.160 A 
BRANCH   6  13
ATOM     13  N4    C A  1       -0.017   1.371   0.010  0.00  0.00    -0.820 N 
ATOM     14  H41   C A  1       -0.863   1.845   0.016  0.00  0.00    +0.410 HD
ATOM     15  H42   C A  1        0.817   1.868   0.004  0.00  0.00    +0.410 HD
ENDBRANCH   6  13
ENDBRANCH   1   9
BRANCH   4  16
ATOM     16  O3*   C A  1       -2.850  -5.761   1.065  0.00  0.00    -0.530 OA
ATOM     17  H3*   C A  1       -3.407  -6.480   0.738  0.00  0.00    +0.380 HD
ENDBRANCH   4  16
BRANCH   5  18
ATOM     18  O2*   C A  1       -1.519  -3.725   1.839  0.00  0.00    -0.510 OA
ATOM     19  H2*   C A  1       -2.000  -4.030   2.621  0.00  0.00    +0.380 HD
ENDBRANCH   5  18
BRANCH   3  20
ATOM     20  C5*   C A  1       -2.456  -6.453  -1.458  0.00  0.00    +0.210 C 
BRANCH  20  21
ATOM     21  O5*   C A  1       -2.178  -6.548  -2.857  0.00  0.00    -0.560 OA
ATOM     22  H5*   C A  1       -2.934  -6.828  -3.390  0.00  0.00    +0.380 HD
ENDBRANCH  20  21
ENDBRANCH   3  20
TORSDOF 6
ENDMDL
MODEL     1187
REMARK  Name = ZINC000003830626
REMARK                            x       y       z     vdW  Elec       q    Type
REMARK                         _______ _______ _______ _____ _____    ______ ____
ROOT
ATOM      1  C1*   C A  1        0.001  -4.173  -0.023  0.00  0.00    +0.450 C 
ATOM      2  O4*   C A  1       -0.935  -4.653  -1.012  0.00  0.00    -0.330 OA
ATOM      3  C4*   C A  1       -2.238  -4.503  -0.408  0.00  0.00    +0.120 C 
ATOM      4  C3*   C A  1       -2.043  -4.931   1.063  0.00  0.00    +0.130 C 
ATOM      5  C2*   C A  1       -0.534  -4.709   1.324  0.00  0.00    +0.190 C 
ENDROOT
BRANCH   1   9
ATOM      6  C4    C A  1        0.127  -0.006   0.049  0.00  0.00    +0.500 A 
ATOM      7  N3    C A  1        0.982  -0.728   0.762  0.00  0.00    -0.610 NA
ATOM      8  C2    C A  1        0.937  -2.059   0.735  0.00  0.00    +0.670 A 
ATOM      9  N1    C A  1        0.026  -2.708  -0.014  0.00  0.00    -0.540 N 
ATOM     10  C6    C A  1       -0.873  -2.010  -0.763  0.00  0.00    +0.360 A 
ATOM     11  O2    C A  1        1.734  -2.700   1.400  0.00  0.00    -0.520 OA
ATOM     12  C5    C A  1       -0.843  -0.656  -0.742  0.00  0.00    -0.160 A 
BRANCH   6  13
ATOM     13  N4    C A  1        0.183   1.367   0.085  0.00  0.00    -0.820 N 
ATOM     14  H41   C A  1        0.849   1.812   0.632  0.00  0.00    +0.410 HD
ATOM     15  H42   C A  1       -0.446   1.892  -0.435  0.00  0.00    +0.410 HD
ENDBRANCH   6  13
ENDBRANCH   1   9
BRANCH   4  16
ATOM     16  O3*   C A  1       -2.386  -6.308   1.233  0.00  0.00    -0.550 OA
ATOM     17  H3*   C A  1       -3.308  -6.513   1.025  0.00  0.00    +0.380 HD
ENDBRANCH   4  16
BRANCH   5  18
ATOM     18  O2*   C A  1       -0.341  -3.748   2.363  0.00  0.00    -0.530 OA
ATOM     19  H2*   C A  1       -0.714  -4.010   3.216  0.00  0.00    +0.390 HD
ENDBRANCH   5  18
BRANCH   3  20
ATOM     20  C5*   C A  1       -3.254  -5.413  -1.101  0.00  0.00    +0.210 C 
BRANCH  20  21
ATOM     21  O5*   C A  1       -3.451  -4.971  -2.446  0.00  0.00    -0.560 OA
ATOM     22  H5*   C A  1       -4.084  -5.503  -2.946  0.00  0.00    +0.390 HD
ENDBRANCH  20  21
ENDBRANCH   3  20
TORSDOF 6
ENDMDL
MODEL     1188
REMARK  Name = ZINC000013546396
REMARK                            x       y       z     vdW  Elec       q    Type
REMARK                         _______ _______ _______ _____ _____    ______ ____
ROOT
ATOM      1  C   LIG    1        0.001  -4.173  -0.023  0.00  0.00    +0.390 C 
ATOM      2  O   LIG    1       -0.845  -4.654  -1.089  0.00  0.00    -0.330 OA
ATOM      3  C   LIG    1       -1.194  -6.005  -0.717  0.00  0.00    +0.190 C 
ATOM      4  C   LIG    1       -1.457  -5.941   0.804  0.00  0.00    +0.170 C 
ATOM      5  C   LIG    1       -0.649  -4.707   1.273  0.00  0.00    +0.140 C 
ATOM      6  F   LIG    1        0.328  -5.084   2.200  0.00  0.00    -0.190 F 
ENDROOT
BRANCH   1  10
ATOM      7  C   LIG    1        0.002  -0.004   0.002  0.00  0.00    +0.500 A 
ATOM      8  N   LIG    1       -1.135  -0.687   0.004  0.00  0.00    -0.610 NA
ATOM      9  C   LIG    1       -1.129  -2.018  -0.004  0.00  0.00    +0.650 A 
ATOM     10  N   LIG    1        0.026  -2.708  -0.014  0.00  0.00    -0.530 N 
ATOM     11  C   LIG    1        1.220  -2.050  -0.016  0.00  0.00    +0.380 A 
ATOM     12  O   LIG    1       -2.189  -2.623  -0.003  0.00  0.00    -0.510 OA
ATOM     13  C   LIG    1        1.230  -0.697  -0.013  0.00  0.00    -0.140 A 
BRANCH   7  14
ATOM     14  N   LIG    1       -0.017   1.371   0.010  0.00  0.00    -0.810 N 
ATOM     15  H   LIG    1       -0.863   1.845   0.016  0.00  0.00    +0.410 HD
ATOM     16  H   LIG    1        0.817   1.868   0.004  0.00  0.00    +0.420 HD
ENDBRANCH   7  14
ENDBRANCH   1  10
BRANCH   4  17
ATOM     17  O   LIG    1       -2.850  -5.761   1.065  0.00  0.00    -0.530 OA
ATOM     18  H   LIG    1       -3.071  -5.713   2.005  0.00  0.00    +0.390 HD
ENDBRANCH   4  17
BRANCH   3  19
ATOM     19  C   LIG    1       -2.456  -6.453  -1.458  0.00  0.00    +0.230 C 
BRANCH  19  20
ATOM     20  O   LIG    1       -2.178  -6.548  -2.857  0.00  0.00    -0.570 OA
ATOM     21  H   LIG    1       -2.934  -6.828  -3.390  0.00  0.00    +0.380 HD
ENDBRANCH  19  20
ENDBRANCH   3  19
TORSDOF 5
ENDMDL
MODEL     1189
REMARK  Name = ZINC000003869838
REMARK                            x       y       z     vdW  Elec       q    Type
REMARK                         _______ _______ _______ _____ _____    ______ ____
ROOT
ATOM      1  C4    C A  1        0.002  -0.004   0.002  0.00  0.00    +0.500 A 
ATOM      2  N3    C A  1       -1.135  -0.687   0.004  0.00  0.00    -0.620 NA
ATOM      3  C2    C A  1       -1.129  -2.018  -0.004  0.00  0.00    +0.660 A 
ATOM      4  N1    C A  1        0.026  -2.708  -0.014  0.00  0.00    -0.540 N 
ATOM      5  C6    C A  1        1.220  -2.050  -0.016  0.00  0.00    +0.380 A 
ATOM      6  O2    C A  1       -2.189  -2.623  -0.003  0.00  0.00    -0.520 OA
ATOM      7  C5    C A  1        1.230  -0.697  -0.013  0.00  0.00    -0.150 A 
ENDROOT
BRANCH   4   8
ATOM      8  C1*   C A  1        0.001  -4.173  -0.023  0.00  0.00    +0.400 C 
ATOM      9  C2*   C A  1       -0.648  -4.707   1.279  0.00  0.00    -0.000 C 
ATOM     10  C3*   C A  1       -1.153  -6.098   0.807  0.00  0.00    +0.170 C 
ATOM     11  C4*   C A  1       -1.544  -5.824  -0.661  0.00  0.00    +0.210 C 
ATOM     12  O4*   C A  1       -0.838  -4.650  -1.086  0.00  0.00    -0.350 OA
BRANCH  10  13
ATOM     13  O3*   C A  1       -2.287  -6.513   1.571  0.00  0.00    -0.550 OA
ATOM     14  H3*   C A  1       -2.109  -6.614   2.516  0.00  0.00    +0.390 HD
ENDBRANCH  10  13
BRANCH  11  15
ATOM     15  C5*   C A  1       -1.146  -7.014  -1.536  0.00  0.00    +0.180 C 
BRANCH  15  16
ATOM     16  O5*   C A  1       -1.615  -6.804  -2.869  0.00  0.00    -0.560 OA
ATOM     17  H5*   C A  1       -1.397  -7.521  -3.480  0.00  0.00    +0.380 HD
ENDBRANCH  15  16
ENDBRANCH  11  15
ENDBRANCH   4   8
BRANCH   1  18
ATOM     18  N4    C A  1       -0.017   1.371   0.010  0.00  0.00    -0.820 N 
ATOM     19  H41   C A  1       -0.863   1.845   0.016  0.00  0.00    +0.410 HD
ATOM     20  H42   C A  1        0.817   1.868   0.004  0.00  0.00    +0.410 HD
ENDBRANCH   1  18
TORSDOF 5
ENDMDL
MODEL     1190
REMARK  Name = ZINC000018286013
REMARK                            x       y       z     vdW  Elec       q    Type
REMARK                         _______ _______ _______ _____ _____    ______ ____
ROOT
ATOM      1  C4    C A  1        0.002  -0.004   0.002  0.00  0.00    +0.500 A 
ATOM      2  N3    C A  1       -1.135  -0.687   0.004  0.00  0.00    -0.620 NA
ATOM      3  C2    C A  1       -1.129  -2.018  -0.004  0.00  0.00    +0.660 A 
ATOM      4  N1    C A  1        0.026  -2.708  -0.014  0.00  0.00    -0.530 N 
ATOM      5  C6    C A  1        1.220  -2.050  -0.016  0.00  0.00    +0.380 A 
ATOM      6  O2    C A  1       -2.189  -2.623  -0.003  0.00  0.00    -0.520 OA
ATOM      7  C5    C A  1        1.230  -0.697  -0.013  0.00  0.00    -0.150 A 
ENDROOT
BRANCH   4   8
ATOM      8  C1*   C A  1        0.001  -4.173  -0.023  0.00  0.00    +0.400 C 
ATOM      9  C2*   C A  1       -0.649  -4.707   1.273  0.00  0.00    +0.010 C 
ATOM     10  C3*   C A  1       -1.455  -5.941   0.807  0.00  0.00    +0.170 C 
ATOM     11  C4*   C A  1       -1.196  -6.005  -0.715  0.00  0.00    +0.180 C 
ATOM     12  O4*   C A  1       -0.845  -4.654  -1.089  0.00  0.00    -0.340 OA
BRANCH  10  13
ATOM     13  O3*   C A  1       -0.976  -7.123   1.450  0.00  0.00    -0.560 OA
ATOM     14  H3*   C A  1       -1.060  -7.109   2.413  0.00  0.00    +0.390 HD
ENDBRANCH  10  13
BRANCH  11  15
ATOM     15  C5*   C A  1       -2.459  -6.455  -1.451  0.00  0.00    +0.210 C 
BRANCH  15  16
ATOM     16  O5*   C A  1       -2.167  -6.620  -2.840  0.00  0.00    -0.570 OA
ATOM     17  H5*   C A  1       -2.925  -6.905  -3.370  0.00  0.00    +0.380 HD
ENDBRANCH  15  16
ENDBRANCH  11  15
ENDBRANCH   4   8
BRANCH   1  18
ATOM     18  N4    C A  1       -0.017   1.371   0.010  0.00  0.00    -0.810 N 
ATOM     19  H41   C A  1       -0.863   1.845   0.016  0.00  0.00    +0.410 HD
ATOM     20  H42   C A  1        0.817   1.868   0.004  0.00  0.00    +0.420 HD
ENDBRANCH   1  18
TORSDOF 5
ENDMDL
MODEL     1191
REMARK  Name = ZINC000001078621
REMARK                            x       y       z     vdW  Elec       q    Type
REMARK                         _______ _______ _______ _____ _____    ______ ____
ROOT
ATOM      1  C1*   C A  1        0.001  -4.173  -0.023  0.00  0.00    +0.430 C 
ATOM      2  O4*   C A  1        1.344  -4.685   0.008  0.00  0.00    -0.340 OA
ATOM      3  C4*   C A  1        1.678  -4.908   1.395  0.00  0.00    +0.130 C 
ATOM      4  C3*   C A  1        0.373  -5.494   1.992  0.00  0.00    +0.130 C 
ATOM      5  C2*   C A  1       -0.720  -4.692   1.237  0.00  0.00    +0.190 C 
ENDROOT
BRANCH   1   9
ATOM      6  C4    C A  1        0.002  -0.004   0.002  0.00  0.00    +0.500 A 
ATOM      7  N3    C A  1       -1.135  -0.687   0.004  0.00  0.00    -0.620 NA
ATOM      8  C2    C A  1       -1.129  -2.018  -0.004  0.00  0.00    +0.680 A 
ATOM      9  N1    C A  1        0.026  -2.708  -0.014  0.00  0.00    -0.530 N 
ATOM     10  C6    C A  1        1.220  -2.050  -0.016  0.00  0.00    +0.370 A 
ATOM     11  O2    C A  1       -2.189  -2.623  -0.003  0.00  0.00    -0.530 OA
ATOM     12  C5    C A  1        1.230  -0.697  -0.013  0.00  0.00    -0.170 A 
BRANCH   6  13
ATOM     13  N4    C A  1       -0.017   1.371   0.010  0.00  0.00    -0.820 N 
ATOM     14  H41   C A  1       -0.863   1.845   0.016  0.00  0.00    +0.410 HD
ATOM     15  H42   C A  1        0.817   1.868   0.004  0.00  0.00    +0.410 HD
ENDBRANCH   6  13
ENDBRANCH   1   9
BRANCH   4  16
ATOM     16  O3*   C A  1        0.303  -5.254   3.398  0.00  0.00    -0.540 OA
ATOM     17  H3*   C A  1        1.019  -5.663   3.904  0.00  0.00    +0.390 HD
ENDBRANCH   4  16
BRANCH   5  18
ATOM     18  O2*   C A  1       -1.183  -3.602   2.036  0.00  0.00    -0.530 OA
ATOM     19  H2*   C A  1       -1.591  -3.871   2.870  0.00  0.00    +0.390 HD
ENDBRANCH   5  18
BRANCH   3  20
ATOM     20  C5*   C A  1        2.828  -5.910   1.517  0.00  0.00    +0.200 C 
BRANCH  20  21
ATOM     21  O5*   C A  1        4.018  -5.338   0.973  0.00  0.00    -0.560 OA
ATOM     22  H5*   C A  1        4.790  -5.920   1.017  0.00  0.00    +0.390 HD
ENDBRANCH  20  21
ENDBRANCH   3  20
TORSDOF 6
ENDMDL
MODEL     1192
REMARK  Name = ZINC000005314679
REMARK                            x       y       z     vdW  Elec       q    Type
REMARK                         _______ _______ _______ _____ _____    ______ ____
ROOT
ATOM      1  C   LIG    1       -2.683  -2.582   0.014  0.00  0.00    +0.170 A 
ATOM      2  N   LIG    1       -3.155  -3.232   1.041  0.00  0.00    -0.330 NA
ATOM      3  C   LIG    1       -4.432  -3.644   1.082  0.00  0.00    +0.290 A 
ATOM      4  N   LIG    1       -5.127  -4.304   1.992  0.00  0.00    -0.170 NA
ATOM      5  N   LIG    1       -6.334  -4.471   1.581  0.00  0.00    -0.290 NA
ATOM      6  C   LIG    1       -6.485  -3.929   0.385  0.00  0.00    +0.480 A 
ATOM      7  N   LIG    1       -5.289  -3.390   0.034  0.00  0.00    -0.330 N 
ATOM      8  N   LIG    1       -4.841  -2.698  -1.095  0.00  0.00    -0.490 N 
ATOM      9  H   LIG    1       -5.442  -2.518  -1.836  0.00  0.00    +0.440 HD
ATOM     10  C   LIG    1       -3.555  -2.280  -1.131  0.00  0.00    +0.540 A 
ATOM     11  O   LIG    1       -3.126  -1.674  -2.095  0.00  0.00    -0.470 OA
ENDROOT
BRANCH   6  12
ATOM     12  N   LIG    1       -7.640  -3.914  -0.366  0.00  0.00    -0.810 N 
ATOM     13  H   LIG    1       -7.647  -3.487  -1.237  0.00  0.00    +0.410 HD
ATOM     14  H   LIG    1       -8.447  -4.330  -0.023  0.00  0.00    +0.440 HD
ENDBRANCH   6  12
BRANCH   1  15
ATOM     15  C   LIG    1       -1.244  -2.135   0.003  0.00  0.00    +0.130 C 
ATOM     16  C   LIG    1       -0.531  -2.680   1.242  0.00  0.00    +0.090 C 
BRANCH  15  17
ATOM     17  C   LIG    1       -1.185  -0.630   0.010  0.00  0.00    +0.480 C 
ATOM     18  O   LIG    1       -2.208   0.015   0.023  0.00  0.00    -0.500 OA
BRANCH  17  20
ATOM     19  C   LIG    1       -0.018   1.448   0.010  0.00  0.00    +0.290 C 
ATOM     20  O   LIG    1        0.002  -0.004   0.002  0.00  0.00    -0.350 OA
ENDBRANCH  17  20
ENDBRANCH  15  17
ENDBRANCH   1  15
TORSDOF 4
ENDMDL
MODEL     1193
REMARK  Name = ZINC000005314683
REMARK                            x       y       z     vdW  Elec       q    Type
REMARK                         _______ _______ _______ _____ _____    ______ ____
ROOT
ATOM      1  C   LIG    1       -2.683  -2.582   0.014  0.00  0.00    +0.170 A 
ATOM      2  N   LIG    1       -3.171  -3.231  -1.007  0.00  0.00    -0.330 NA
ATOM      3  C   LIG    1       -4.449  -3.643  -1.027  0.00  0.00    +0.290 A 
ATOM      4  N   LIG    1       -5.159  -4.302  -1.926  0.00  0.00    -0.170 NA
ATOM      5  N   LIG    1       -6.358  -4.471  -1.496  0.00  0.00    -0.290 NA
ATOM      6  C   LIG    1       -6.490  -3.931  -0.296  0.00  0.00    +0.480 A 
ATOM      7  N   LIG    1       -5.288  -3.392   0.035  0.00  0.00    -0.330 N 
ATOM      8  N   LIG    1       -4.822  -2.701   1.159  0.00  0.00    -0.490 N 
ATOM      9  H   LIG    1       -5.410  -2.522   1.909  0.00  0.00    +0.440 HD
ATOM     10  C   LIG    1       -3.533  -2.292   1.179  0.00  0.00    +0.540 A 
ATOM     11  O   LIG    1       -3.088  -1.688   2.136  0.00  0.00    -0.470 OA
ENDROOT
BRANCH   6  12
ATOM     12  N   LIG    1       -7.632  -3.918   0.473  0.00  0.00    -0.810 N 
ATOM     13  H   LIG    1       -7.625  -3.493   1.345  0.00  0.00    +0.410 HD
ATOM     14  H   LIG    1       -8.444  -4.333   0.143  0.00  0.00    +0.440 HD
ENDBRANCH   6  12
BRANCH   1  15
ATOM     15  C   LIG    1       -1.244  -2.135   0.003  0.00  0.00    +0.130 C 
ATOM     16  C   LIG    1       -0.555  -2.666  -1.256  0.00  0.00    +0.090 C 
BRANCH  15  17
ATOM     17  C   LIG    1       -1.185  -0.630   0.010  0.00  0.00    +0.480 C 
ATOM     18  O   LIG    1       -2.208   0.015   0.023  0.00  0.00    -0.500 OA
BRANCH  17  20
ATOM     19  C   LIG    1       -0.018   1.448   0.010  0.00  0.00    +0.290 C 
ATOM     20  O   LIG    1        0.002  -0.004   0.002  0.00  0.00    -0.350 OA
ENDBRANCH  17  20
ENDBRANCH  15  17
ENDBRANCH   1  15
TORSDOF 4
ENDMDL
MODEL     1194
REMARK  Name = ZINC000019322529
REMARK                            x       y       z     vdW  Elec       q    Type
REMARK                         _______ _______ _______ _____ _____    ______ ____
ROOT
ATOM      1  C   LIG    1        1.169   2.057   0.002  0.00  0.00    +0.630 C 
ATOM      2  N   LIG    1        2.293   1.414  -0.018  0.00  0.00    -0.640 NA
ATOM      3  C   LIG    1        3.590   2.081  -0.010  0.00  0.00    +0.400 C 
ATOM      4  N   LIG    1        3.463   3.472  -0.463  0.00  0.00    -0.570 NA
ATOM      5  C   LIG    1        2.391   4.156   0.284  0.00  0.00    +0.440 C 
ATOM      6  N   LIG    1        1.137   3.433   0.010  0.00  0.00    -0.750 N 
ATOM      7  H   LIG    1        0.311   3.914  -0.155  0.00  0.00    +0.410 HD
ENDROOT
BRANCH   1   8
ATOM      8  N   LIG    1       -0.016   1.351   0.009  0.00  0.00    -0.590 N 
ATOM      9  H   LIG    1       -0.863   1.824   0.016  0.00  0.00    +0.440 HD
BRANCH   8  11
ATOM     10  N   LIG    1        0.018  -1.140  -0.004  0.00  0.00    -0.400 NA
ATOM     11  C   LIG    1        0.002  -0.004   0.002  0.00  0.00    +0.430 C 
ENDBRANCH   8  11
ENDBRANCH   1   8
BRANCH   4  12
ATOM     12  C   LIG    1        4.738   4.189  -0.327  0.00  0.00    +0.240 C 
BRANCH  12  13
ATOM     13  C   LIG    1        5.094   4.320   1.155  0.00  0.00    +0.130 C 
BRANCH  13  14
ATOM     14  N   LIG    1        6.369   5.037   1.290  0.00  0.00    -0.530 NA
ATOM     15  C   LIG    1        7.373   4.508   0.356  0.00  0.00    +0.140 C 
ATOM     16  C   LIG    1        8.664   5.320   0.488  0.00  0.00    +0.220 C 
ATOM     17  O   LIG    1        9.112   5.276   1.845  0.00  0.00    -0.380 OA
ATOM     18  C   LIG    1        8.159   5.784   2.783  0.00  0.00    +0.220 C 
ATOM     19  C   LIG    1        6.863   4.976   2.674  0.00  0.00    +0.150 C 
ENDBRANCH  13  14
ENDBRANCH  12  13
ENDBRANCH   4  12
TORSDOF 5
ENDMDL
MODEL     1195
REMARK  Name = ZINC000036365591
REMARK                            x       y       z     vdW  Elec       q    Type
REMARK                         _______ _______ _______ _____ _____    ______ ____
ROOT
ATOM      1  O   LIG    1        0.002  -0.004   0.002  0.00  0.00    -0.460 OA
ATOM      2  C   LIG    1       -0.014   1.208   0.009  0.00  0.00    +0.520 C 
ATOM      3  C   LIG    1       -1.235   2.107   0.032  0.00  0.00    +0.320 C 
ATOM      4  N   LIG    1       -0.664   3.465   0.031  0.00  0.00    -0.730 N 
ATOM      5  H   LIG    1       -1.157   4.301   0.043  0.00  0.00    +0.450 HD
ATOM      6  C   LIG    1        0.673   3.321   0.011  0.00  0.00    +0.700 C 
ATOM      7  O   LIG    1        1.453   4.253   0.005  0.00  0.00    -0.540 OA
ATOM      8  N   LIG    1        1.048   2.037   0.003  0.00  0.00    -0.570 N 
ENDROOT
BRANCH   8   9
ATOM      9  C   LIG    1        2.443   1.587  -0.018  0.00  0.00    +0.280 C 
ATOM     10  C   LIG    1        3.198   2.154   1.197  0.00  0.00    +0.080 C 
ATOM     11  C   LIG    1        4.711   1.957   0.974  0.00  0.00    -0.300 C 
ATOM     12  S   LIG    1        4.929   1.959  -0.842  0.00  0.00    +2.400 S 
ATOM     13  O   LIG    1        5.398   0.685  -1.261  0.00  0.00    -0.930 OA
ATOM     14  O   LIG    1        5.628   3.134  -1.230  0.00  0.00    -0.920 OA
ATOM     15  C   LIG    1        3.158   2.133  -1.281  0.00  0.00    -0.310 C 
ENDBRANCH   8   9
TORSDOF 1
ENDMDL
MODEL     1196
REMARK  Name = ZINC000005613089
REMARK                            x       y       z     vdW  Elec       q    Type
REMARK                         _______ _______ _______ _____ _____    ______ ____
ROOT
ATOM      1  C   LIG    1        0.686  -0.688   0.980  0.00  0.00    +0.420 C 
ATOM      2  N   LIG    1        1.357  -0.143   1.981  0.00  0.00    -0.550 NA
ATOM      3  C   LIG    1        2.061  -1.072   2.807  0.00  0.00    +0.190 C 
ATOM      4  C   LIG    1        2.531  -0.798   4.218  0.00  0.00    -0.260 C 
ATOM      5  S   LIG    1        2.869  -2.492   4.860  0.00  0.00    +2.390 S 
ATOM      6  C   LIG    1        2.184  -3.408   3.412  0.00  0.00    -0.260 C 
ATOM      7  O   LIG    1        2.059  -2.734   6.003  0.00  0.00    -0.920 OA
ATOM      8  O   LIG    1        4.273  -2.700   4.929  0.00  0.00    -0.920 OA
ATOM      9  C   LIG    1        1.165  -2.364   2.903  0.00  0.00    +0.040 C 
ATOM     10  S   LIG    1        0.813  -2.466   1.120  0.00  0.00    -0.140 S 
ENDROOT
BRANCH   1  11
ATOM     11  N   LIG    1        0.002  -0.004   0.002  0.00  0.00    -0.530 N 
ATOM     12  H   LIG    1       -0.467  -0.492  -0.693  0.00  0.00    +0.420 HD
BRANCH  11  13
ATOM     13  N   LIG    1       -0.016   1.362   0.009  0.00  0.00    -0.590 NA
ATOM     14  H   LIG    1       -0.555   1.720  -0.765  0.00  0.00    +0.360 HD
ATOM     15  H   LIG    1        0.920   1.736   0.003  0.00  0.00    +0.350 HD
ENDBRANCH  11  13
ENDBRANCH   1  11
TORSDOF 2
ENDMDL
MODEL     1197
REMARK  Name = ZINC000005645040
REMARK                            x       y       z     vdW  Elec       q    Type
REMARK                         _______ _______ _______ _____ _____    ______ ____
ROOT
ATOM      1  C   LIG    1       -0.019   1.526   0.010  0.00  0.00    +0.070 C 
ATOM      2  C   LIG    1        0.002  -0.004   0.002  0.00  0.00    +0.250 C 
ATOM      3  O   LIG    1        0.684  -0.469  -1.169  0.00  0.00    -0.360 OA
ATOM      4  C   LIG    1        1.797  -1.274  -0.735  0.00  0.00    +0.360 C 
ATOM      5  O   LIG    1        2.959  -0.443  -0.631  0.00  0.00    -0.360 OA
ATOM      6  C   LIG    1        3.620  -0.646   0.617  0.00  0.00    +0.190 C 
ATOM      7  C   LIG    1        4.985  -1.325   0.377  0.00  0.00    +0.170 C 
ATOM      8  C   LIG    1        4.858  -2.691   1.086  0.00  0.00    +0.310 C 
ATOM      9  O   LIG    1        3.441  -2.962   1.111  0.00  0.00    -0.390 OA
ATOM     10  C   LIG    1        2.797  -1.688   1.421  0.00  0.00    +0.190 C 
ATOM     11  C   LIG    1        1.407  -1.660   0.724  0.00  0.00    +0.160 C 
ATOM     12  C   LIG    1       -1.432  -0.537   0.004  0.00  0.00    +0.050 C 
ATOM     13  O   LIG    1        0.696  -0.483   1.165  0.00  0.00    -0.350 OA
ENDROOT
BRANCH   8  14
ATOM     14  O   LIG    1        5.547  -3.701   0.346  0.00  0.00    -0.540 OA
ATOM     15  H   LIG    1        5.501  -4.581   0.745  0.00  0.00    +0.390 HD
ENDBRANCH   8  14
BRANCH   7  16
ATOM     16  O   LIG    1        6.037  -0.552   0.960  0.00  0.00    -0.550 OA
ATOM     17  H   LIG    1        6.918  -0.932   0.839  0.00  0.00    +0.390 HD
ENDBRANCH   7  16
TORSDOF 2
ENDMDL
MODEL     1198
REMARK  Name = ZINC000005645041
REMARK                            x       y       z     vdW  Elec       q    Type
REMARK                         _______ _______ _______ _____ _____    ______ ____
ROOT
ATOM      1  C   LIG    1       -0.019   1.526   0.010  0.00  0.00    +0.080 C 
ATOM      2  C   LIG    1        0.002  -0.004   0.002  0.00  0.00    +0.250 C 
ATOM      3  O   LIG    1        0.704  -0.474  -1.157  0.00  0.00    -0.380 OA
ATOM      4  C   LIG    1        1.314  -1.718  -0.773  0.00  0.00    +0.350 C 
ATOM      5  O   LIG    1        2.625  -1.807  -1.344  0.00  0.00    -0.330 OA
ATOM      6  C   LIG    1        3.535  -1.124  -0.480  0.00  0.00    +0.160 C 
ATOM      7  C   LIG    1        4.905  -1.823  -0.470  0.00  0.00    +0.190 C 
ATOM      8  C   LIG    1        4.919  -2.650   0.825  0.00  0.00    +0.320 C 
ATOM      9  O   LIG    1        3.651  -2.490   1.465  0.00  0.00    -0.380 OA
ATOM     10  C   LIG    1        2.992  -1.297   0.958  0.00  0.00    +0.170 C 
ATOM     11  C   LIG    1        1.476  -1.620   0.759  0.00  0.00    +0.160 C 
ATOM     12  C   LIG    1       -1.431  -0.541  -0.006  0.00  0.00    +0.040 C 
ATOM     13  O   LIG    1        0.693  -0.486   1.160  0.00  0.00    -0.360 OA
ENDROOT
BRANCH   8  14
ATOM     14  O   LIG    1        5.958  -2.181   1.687  0.00  0.00    -0.560 OA
ATOM     15  H   LIG    1        6.021  -2.661   2.524  0.00  0.00    +0.390 HD
ENDBRANCH   8  14
BRANCH   7  16
ATOM     16  O   LIG    1        5.956  -0.855  -0.455  0.00  0.00    -0.540 OA
ATOM     17  H   LIG    1        6.844  -1.238  -0.449  0.00  0.00    +0.390 HD
ENDBRANCH   7  16
TORSDOF 2
ENDMDL
MODEL     1199
REMARK  Name = ZINC000004143197
REMARK                            x       y       z     vdW  Elec       q    Type
REMARK                         _______ _______ _______ _____ _____    ______ ____
ROOT
ATOM      1  O   LIG    1        0.002  -0.004   0.002  0.00  0.00    -0.540 OA
ATOM      2  C   LIG    1       -0.014   1.209   0.009  0.00  0.00    +0.520 C 
ATOM      3  C   LIG    1       -1.323   1.955   0.032  0.00  0.00    +0.220 C 
ATOM      4  O   LIG    1       -1.453   2.652   1.272  0.00  0.00    -0.350 OA
ATOM      5  C   LIG    1       -2.728   2.492   1.898  0.00  0.00    +0.180 C 
ATOM      6  C   LIG    1       -2.619   2.885   3.374  0.00  0.00    +0.180 C 
ATOM      7  O   LIG    1       -1.245   3.085   3.710  0.00  0.00    -0.340 OA
ATOM      8  C   LIG    1       -1.034   3.604   5.024  0.00  0.00    +0.180 C 
ATOM      9  C   LIG    1        0.417   3.353   5.441  0.00  0.00    +0.190 C 
ATOM     10  O   LIG    1        0.969   2.312   4.632  0.00  0.00    -0.350 OA
ATOM     11  C   LIG    1        2.397   2.284   4.614  0.00  0.00    +0.220 C 
ATOM     12  C   LIG    1        2.887   2.475   3.201  0.00  0.00    +0.510 C 
ATOM     13  N   LIG    1        2.865   1.401   2.350  0.00  0.00    -0.720 N 
ATOM     14  H   LIG    1        2.545   0.524   2.616  0.00  0.00    +0.410 HD
ATOM     15  C   LIG    1        3.376   1.693   0.987  0.00  0.00    +0.270 C 
ATOM     16  C   LIG    1        2.394   1.115  -0.033  0.00  0.00    +0.270 C 
ATOM     17  O   LIG    1        3.290   3.555   2.825  0.00  0.00    -0.530 OA
ATOM     18  N   LIG    1        1.151   1.916   0.001  0.00  0.00    -0.720 N 
ATOM     19  H   LIG    1        1.164   2.886   0.013  0.00  0.00    +0.410 HD
ENDROOT
TORSDOF 0
ENDMDL
MODEL     1200
REMARK  Name = ZINC000005725583
REMARK                            x       y       z     vdW  Elec       q    Type
REMARK                         _______ _______ _______ _____ _____    ______ ____
ROOT
ATOM      1  C   LIG    1       -0.555  -0.726   0.198  0.00  0.00    +0.110 C 
ATOM      2  C   LIG    1        0.355  -0.935  -1.016  0.00  0.00    +0.190 C 
ATOM      3  O   LIG    1       -0.222  -0.298  -2.158  0.00  0.00    -0.370 OA
ATOM      4  C   LIG    1       -1.504  -0.811  -2.526  0.00  0.00    +0.300 C 
ATOM      5  C   LIG    1       -2.488  -0.597  -1.373  0.00  0.00    +0.210 C 
ATOM      6  C   LIG    1       -1.947  -1.284  -0.114  0.00  0.00    +0.170 C 
ENDROOT
BRANCH   1   7
ATOM      7  O   LIG    1       -0.653   0.670   0.486  0.00  0.00    -0.550 OA
ATOM      8  H   LIG    1        0.194   1.090   0.691  0.00  0.00    +0.380 HD
ENDBRANCH   1   7
BRANCH   5   9
ATOM      9  O   LIG    1       -3.756  -1.160  -1.717  0.00  0.00    -0.550 OA
ATOM     10  H   LIG    1       -4.430  -1.060  -1.030  0.00  0.00    +0.390 HD
ENDBRANCH   5   9
BRANCH   4  11
ATOM     11  O   LIG    1       -1.396  -2.208  -2.807  0.00  0.00    -0.550 OA
ATOM     12  H   LIG    1       -0.786  -2.418  -3.528  0.00  0.00    +0.390 HD
ENDBRANCH   4  11
BRANCH   6  13
ATOM     13  O   LIG    1       -2.824  -1.029   0.985  0.00  0.00    -0.560 OA
ATOM     14  H   LIG    1       -2.542  -1.435   1.816  0.00  0.00    +0.380 HD
ENDBRANCH   6  13
BRANCH   4  15
ATOM     15  C   LIG    1       -2.009  -0.078  -3.771  0.00  0.00    +0.210 C 
BRANCH  15  16
ATOM     16  N   LIG    1       -1.180  -0.447  -4.926  0.00  0.00    -0.540 NA
ATOM     17  C   LIG    1        0.246  -0.254  -4.633  0.00  0.00    +0.160 C 
ATOM     18  C   LIG    1        1.084  -0.783  -5.800  0.00  0.00    +0.020 C 
ATOM     19  C   LIG    1        0.700  -0.033  -7.078  0.00  0.00    +0.000 C 
ATOM     20  C   LIG    1       -0.799  -0.209  -7.334  0.00  0.00    +0.020 C 
ATOM     21  C   LIG    1       -1.582   0.303  -6.123  0.00  0.00    +0.170 C 
ENDBRANCH  15  16
ENDBRANCH   4  15
TORSDOF 6
ENDMDL
MODEL     1201
REMARK  Name = ZINC000005765078
REMARK                            x       y       z     vdW  Elec       q    Type
REMARK                         _______ _______ _______ _____ _____    ______ ____
ROOT
ATOM      1  C5M   T A  1       -0.018   1.503   0.010  0.00  0.00    +0.130 C 
ATOM      2  C5    T A  1        0.002  -0.004   0.002  0.00  0.00    -0.260 A 
ATOM      3  C6    T A  1       -1.153  -0.704   0.004  0.00  0.00    +0.350 A 
ATOM      4  N1    T A  1       -1.116  -2.072  -0.004  0.00  0.00    -0.530 N 
ATOM      5  C2    T A  1        0.060  -2.726  -0.013  0.00  0.00    +0.690 A 
ATOM      6  N3    T A  1        1.226  -2.053  -0.016  0.00  0.00    -0.660 N 
ATOM      7  H3    T A  1        2.064  -2.540  -0.023  0.00  0.00    +0.430 HD
ATOM      8  O2    T A  1        0.069  -3.942  -0.020  0.00  0.00    -0.510 OA
ATOM      9  C4    T A  1        1.232  -0.705  -0.013  0.00  0.00    +0.550 A 
ATOM     10  O4    T A  1        2.287  -0.095  -0.016  0.00  0.00    -0.510 OA
ENDROOT
BRANCH   4  11
ATOM     11  C1*   T A  1       -2.369  -2.831  -0.002  0.00  0.00    +0.420 C 
ATOM     12  C2*   T A  1       -2.499  -3.656  -1.301  0.00  0.00    +0.000 C 
ATOM     13  C3*   T A  1       -3.160  -4.976  -0.844  0.00  0.00    +0.170 C 
ATOM     14  C4*   T A  1       -3.351  -4.791   0.678  0.00  0.00    +0.190 C 
ATOM     15  O4*   T A  1       -2.362  -3.810   1.060  0.00  0.00    -0.350 OA
BRANCH  13  16
ATOM     16  O3*   T A  1       -2.302  -6.086  -1.112  0.00  0.00    -0.550 OA
ATOM     17  H3*   T A  1       -2.102  -6.210  -2.050  0.00  0.00    +0.380 HD
ENDBRANCH  13  16
BRANCH  14  18
ATOM     18  C5*   T A  1       -3.106  -6.112   1.410  0.00  0.00    +0.220 C 
BRANCH  18  19
ATOM     19  O5*   T A  1       -3.400  -5.950   2.799  0.00  0.00    -0.570 OA
ATOM     20  H5*   T A  1       -3.266  -6.750   3.325  0.00  0.00    +0.380 HD
ENDBRANCH  18  19
ENDBRANCH  14  18
ENDBRANCH   4  11
TORSDOF 4
ENDMDL
MODEL     1202
REMARK  Name = ZINC000053193391
REMARK                            x       y       z     vdW  Elec       q    Type
REMARK                         _______ _______ _______ _____ _____    ______ ____
ROOT
ATOM      1  C   LIG    1       -1.136  -2.159   0.001  0.00  0.00    +0.230 C 
ATOM      2  C   LIG    1       -0.993  -2.676   1.435  0.00  0.00    +0.320 C 
ATOM      3  O   LIG    1       -1.032  -4.105   1.430  0.00  0.00    -0.400 OA
ATOM      4  C   LIG    1       -2.252  -4.653   0.927  0.00  0.00    +0.150 C 
ATOM      5  C   LIG    1       -2.446  -4.215  -0.526  0.00  0.00    +0.130 C 
ATOM      6  C   LIG    1       -2.444  -2.685  -0.596  0.00  0.00    +0.180 C 
ENDROOT
BRANCH   1   9
ATOM      7  C   LIG    1       -0.018   1.503   0.010  0.00  0.00    +0.100 C 
ATOM      8  C   LIG    1        0.002  -0.004   0.002  0.00  0.00    +0.520 C 
ATOM      9  N   LIG    1       -1.156  -0.694   0.009  0.00  0.00    -0.710 N 
ATOM     10  H   LIG    1       -2.002  -0.220   0.020  0.00  0.00    +0.400 HD
ATOM     11  O   LIG    1        1.060  -0.596  -0.011  0.00  0.00    -0.530 OA
ENDBRANCH   1   9
BRANCH   2  12
ATOM     12  N   LIG    1        0.288  -2.223   1.994  0.00  0.00    -0.790 NA
ATOM     13  H   LIG    1        1.059  -2.512   1.411  0.00  0.00    +0.360 HD
ATOM     14  H   LIG    1        0.406  -2.552   2.940  0.00  0.00    +0.350 HD
ENDBRANCH   2  12
BRANCH   5  15
ATOM     15  O   LIG    1       -3.692  -4.716  -1.014  0.00  0.00    -0.560 OA
ATOM     16  H   LIG    1       -3.763  -5.680  -0.995  0.00  0.00    +0.390 HD
ENDBRANCH   5  15
BRANCH   6  17
ATOM     17  O   LIG    1       -2.553  -2.268  -1.959  0.00  0.00    -0.550 OA
ATOM     18  H   LIG    1       -3.358  -2.573  -2.400  0.00  0.00    +0.390 HD
ENDBRANCH   6  17
BRANCH   4  19
ATOM     19  C   LIG    1       -2.191  -6.181   0.997  0.00  0.00    +0.200 C 
BRANCH  19  20
ATOM     20  O   LIG    1       -2.126  -6.593   2.363  0.00  0.00    -0.560 OA
ATOM     21  H   LIG    1       -2.085  -7.552   2.483  0.00  0.00    +0.380 HD
ENDBRANCH  19  20
ENDBRANCH   4  19
TORSDOF 6
ENDMDL
MODEL     1203
REMARK  Name = ZINC000005784089
REMARK                            x       y       z     vdW  Elec       q    Type
REMARK                         _______ _______ _______ _____ _____    ______ ____
ROOT
ATOM      1  C1* LIG    1        0.139  -4.130  -0.024  0.00  0.00    +0.460 C 
ATOM      2  O4* LIG    1        0.586  -4.638   1.252  0.00  0.00    -0.350 OA
ATOM      3  C4* LIG    1        1.070  -5.973   1.026  0.00  0.00    +0.190 C 
ATOM      4  C3* LIG    1        1.534  -6.050  -0.442  0.00  0.00    +0.140 C 
ATOM      5  C2* LIG    1        1.209  -4.649  -1.019  0.00  0.00    +0.140 C 
ENDROOT
BRANCH   1   9
ATOM      6  C   LIG    1        0.002  -0.004   0.002  0.00  0.00    +0.470 A 
ATOM      7  N   LIG    1       -1.131  -0.697   0.004  0.00  0.00    -0.580 NA
ATOM      8  C   LIG    1       -1.076  -2.031  -0.004  0.00  0.00    +0.630 A 
ATOM      9  N   LIG    1        0.110  -2.666  -0.014  0.00  0.00    -0.380 N 
ATOM     10  N   LIG    1        1.219  -2.014  -0.016  0.00  0.00    -0.150 NA
ATOM     11  O   LIG    1       -2.110  -2.680  -0.003  0.00  0.00    -0.510 OA
ATOM     12  C   LIG    1        1.229  -0.709  -0.013  0.00  0.00    +0.170 A 
BRANCH   6  13
ATOM     13  N   LIG    1       -0.017   1.371   0.010  0.00  0.00    -0.790 N 
ATOM     14  H   LIG    1       -0.863   1.845   0.016  0.00  0.00    +0.420 HD
ATOM     15  H   LIG    1        0.817   1.867   0.004  0.00  0.00    +0.420 HD
ENDBRANCH   6  13
ENDBRANCH   1   9
BRANCH   4  16
ATOM     16  O3* LIG    1        0.808  -7.060  -1.144  0.00  0.00    -0.540 OA
ATOM     17  H3* LIG    1        1.060  -7.152  -2.073  0.00  0.00    +0.390 HD
ENDBRANCH   4  16
BRANCH   5  18
ATOM     18  O2* LIG    1        0.677  -4.752  -2.341  0.00  0.00    -0.540 OA
ATOM     19  H2* LIG    1        1.283  -5.155  -2.978  0.00  0.00    +0.390 HD
ENDBRANCH   5  18
BRANCH   3  20
ATOM     20  C5* LIG    1        2.244  -6.267   1.962  0.00  0.00    +0.210 C 
BRANCH  20  21
ATOM     21  O5* LIG    1        1.780  -6.293   3.314  0.00  0.00    -0.560 OA
ATOM     22  H5* LIG    1        2.472  -6.474   3.964  0.00  0.00    +0.390 HD
ENDBRANCH  20  21
ENDBRANCH   3  20
TORSDOF 6
ENDMDL
MODEL     1204
REMARK  Name = ZINC000247814728
REMARK                            x       y       z     vdW  Elec       q    Type
REMARK                         _______ _______ _______ _____ _____    ______ ____
ROOT
ATOM      1  C   LIG    1        1.169  -4.307   1.857  0.00  0.00    +0.240 C 
ATOM      2  C   LIG    1       -0.106  -4.873   2.529  0.00  0.00    -0.010 C 
ATOM      3  C   LIG    1        0.266  -6.327   2.883  0.00  0.00    +0.170 C 
ATOM      4  C   LIG    1        1.801  -6.376   2.984  0.00  0.00    +0.000 C 
ATOM      5  C   LIG    1        2.311  -4.949   2.684  0.00  0.00    +0.040 C 
ENDROOT
BRANCH   1   7
ATOM      6  C   LIG    1        0.633  -2.085   1.012  0.00  0.00    +0.510 C 
ATOM      7  N   LIG    1        1.208  -2.846   1.964  0.00  0.00    -0.720 N 
ATOM      8  H   LIG    1        1.647  -2.427   2.721  0.00  0.00    +0.400 HD
ATOM      9  O   LIG    1        0.084  -2.609   0.067  0.00  0.00    -0.510 OA
BRANCH   6  10
ATOM     10  C   LIG    1        0.673  -0.582   1.123  0.00  0.00    +0.200 C 
BRANCH  10  12
ATOM     11  C   LIG    1       -0.017   1.425   0.010  0.00  0.00    +0.210 C 
ATOM     12  O   LIG    1        0.002  -0.004   0.002  0.00  0.00    -0.370 OA
ENDBRANCH  10  12
ENDBRANCH   6  10
ENDBRANCH   1   7
BRANCH   3  13
ATOM     13  O   LIG    1       -0.319  -6.692   4.135  0.00  0.00    -0.550 OA
ATOM     14  H   LIG    1       -1.286  -6.661   4.141  0.00  0.00    +0.370 HD
ENDBRANCH   3  13
BRANCH   4  15
ATOM     15  C   LIG    1        2.221  -6.800   4.393  0.00  0.00    +0.190 C 
BRANCH  15  16
ATOM     16  O   LIG    1        1.820  -8.152   4.622  0.00  0.00    -0.560 OA
ATOM     17  H   LIG    1        2.054  -8.489   5.498  0.00  0.00    +0.380 HD
ENDBRANCH  15  16
ENDBRANCH   4  15
TORSDOF 6
ENDMDL
MODEL     1205
REMARK  Name = ZINC000005883957
REMARK                            x       y       z     vdW  Elec       q    Type
REMARK                         _______ _______ _______ _____ _____    ______ ____
ROOT
ATOM      1  C   LIG    1       -1.136  -2.159   0.001  0.00  0.00    +0.250 C 
ATOM      2  C   LIG    1       -0.993  -2.676   1.435  0.00  0.00    +0.320 C 
ATOM      3  O   LIG    1       -1.032  -4.105   1.430  0.00  0.00    -0.390 OA
ATOM      4  C   LIG    1       -2.252  -4.653   0.927  0.00  0.00    +0.150 C 
ATOM      5  C   LIG    1       -2.446  -4.215  -0.526  0.00  0.00    +0.130 C 
ATOM      6  C   LIG    1       -2.444  -2.685  -0.596  0.00  0.00    +0.200 C 
ENDROOT
BRANCH   1   9
ATOM      7  C   LIG    1       -0.018   1.503   0.010  0.00  0.00    +0.100 C 
ATOM      8  C   LIG    1        0.002  -0.004   0.002  0.00  0.00    +0.510 C 
ATOM      9  N   LIG    1       -1.156  -0.694   0.009  0.00  0.00    -0.720 N 
ATOM     10  H   LIG    1       -2.002  -0.220   0.020  0.00  0.00    +0.410 HD
ATOM     11  O   LIG    1        1.060  -0.596  -0.011  0.00  0.00    -0.520 OA
ENDBRANCH   1   9
BRANCH   5  12
ATOM     12  O   LIG    1       -3.692  -4.716  -1.014  0.00  0.00    -0.560 OA
ATOM     13  H   LIG    1       -3.763  -5.680  -0.995  0.00  0.00    +0.390 HD
ENDBRANCH   5  12
BRANCH   2  14
ATOM     14  O   LIG    1        0.253  -2.235   1.979  0.00  0.00    -0.520 OA
ATOM     15  H   LIG    1        0.411  -2.527   2.887  0.00  0.00    +0.380 HD
ENDBRANCH   2  14
BRANCH   6  16
ATOM     16  O   LIG    1       -3.551  -2.172   0.148  0.00  0.00    -0.560 OA
ATOM     17  H   LIG    1       -4.413  -2.471  -0.171  0.00  0.00    +0.390 HD
ENDBRANCH   6  16
BRANCH   4  18
ATOM     18  C   LIG    1       -2.191  -6.181   0.997  0.00  0.00    +0.200 C 
BRANCH  18  19
ATOM     19  O   LIG    1       -2.126  -6.593   2.363  0.00  0.00    -0.560 OA
ATOM     20  H   LIG    1       -2.085  -7.552   2.483  0.00  0.00    +0.380 HD
ENDBRANCH  18  19
ENDBRANCH   4  18
TORSDOF 6
ENDMDL
MODEL     1206
REMARK  Name = ZINC000084201016
REMARK                            x       y       z     vdW  Elec       q    Type
REMARK                         _______ _______ _______ _____ _____    ______ ____
ROOT
ATOM      1  C   UNK A  1       -1.416  -2.035  -0.119  0.00  0.00    +0.490 C 
ATOM      2  N   THR A  2       -1.251  -2.603  -1.330  0.00  0.00    -0.660 N 
ATOM      3  H   THR A  2       -1.144  -2.046  -2.117  0.00  0.00    +0.410 HD
ATOM      4  O   UNK A  1       -1.550  -2.732   0.864  0.00  0.00    -0.540 OA
ENDROOT
BRANCH   1   5
ATOM      5  C   UNK A  1       -1.433  -0.534   0.013  0.00  0.00    +0.170 C 
BRANCH   5   6
ATOM      6  N   UNK A  1       -2.083  -0.161   1.276  0.00  0.00    -0.620 N 
ATOM      7  H   UNK A  1       -1.571  -0.560   2.049  0.00  0.00    +0.440 HD
ATOM      8  H   UNK A  1       -3.030  -0.510   1.284  0.00  0.00    +0.440 HD
ATOM      9  H   UNK A  1       -2.095   0.844   1.365  0.00  0.00    +0.430 HD
ENDBRANCH   5   6
BRANCH   5  11
ATOM     10  C   UNK A  1       -0.019   1.526   0.010  0.00  0.00    +0.040 C 
ATOM     11  C   UNK A  1        0.002  -0.004   0.002  0.00  0.00    +0.070 C 
ENDBRANCH   5  11
ENDBRANCH   1   5
BRANCH   2  12
ATOM     12  CA  THR A  2       -1.234  -4.062  -1.459  0.00  0.00    +0.130 C 
BRANCH  12  13
ATOM     13  C   THR A  2        0.157  -4.574  -1.190  0.00  0.00    +0.490 C 
ATOM     14  OXT THR A  2        1.124  -3.878  -1.451  0.00  0.00    -0.680 OA
ATOM     15  O   THR A  2        0.317  -5.684  -0.710  0.00  0.00    -0.670 OA
ENDBRANCH  12  13
BRANCH  12  16
ATOM     16  CB  THR A  2       -1.657  -4.454  -2.876  0.00  0.00    +0.200 C 
ATOM     17  CG2 THR A  2       -1.760  -5.978  -2.974  0.00  0.00    +0.020 C 
BRANCH  16  18
ATOM     18  OG1 THR A  2       -0.685  -3.981  -3.811  0.00  0.00    -0.570 OA
ATOM     19  HG1 THR A  2        0.203  -4.337  -3.669  0.00  0.00    +0.390 HD
ENDBRANCH  16  18
ENDBRANCH  12  16
ENDBRANCH   2  12
TORSDOF 7
ENDMDL
MODEL     1207
REMARK  Name = ZINC000084201019
REMARK                            x       y       z     vdW  Elec       q    Type
REMARK                         _______ _______ _______ _____ _____    ______ ____
ROOT
ATOM      1  C   UNK A  1       -1.416  -2.035  -0.119  0.00  0.00    +0.500 C 
ATOM      2  N   THR A  2       -1.251  -2.603  -1.330  0.00  0.00    -0.660 N 
ATOM      3  H   THR A  2       -1.144  -2.046  -2.117  0.00  0.00    +0.400 HD
ATOM      4  O   UNK A  1       -1.550  -2.732   0.864  0.00  0.00    -0.530 OA
ENDROOT
BRANCH   1   5
ATOM      5  C   UNK A  1       -1.433  -0.534   0.013  0.00  0.00    +0.170 C 
BRANCH   5   6
ATOM      6  N   UNK A  1       -2.083  -0.161   1.276  0.00  0.00    -0.620 N 
ATOM      7  H   UNK A  1       -1.571  -0.560   2.049  0.00  0.00    +0.440 HD
ATOM      8  H   UNK A  1       -3.030  -0.510   1.284  0.00  0.00    +0.440 HD
ATOM      9  H   UNK A  1       -2.095   0.844   1.365  0.00  0.00    +0.430 HD
ENDBRANCH   5   6
BRANCH   5  11
ATOM     10  C   UNK A  1       -0.019   1.526   0.010  0.00  0.00    +0.040 C 
ATOM     11  C   UNK A  1        0.002  -0.004   0.002  0.00  0.00    +0.070 C 
ENDBRANCH   5  11
ENDBRANCH   1   5
BRANCH   2  12
ATOM     12  CA  THR A  2       -1.234  -4.062  -1.459  0.00  0.00    +0.140 C 
BRANCH  12  13
ATOM     13  C   THR A  2       -2.648  -4.573  -1.571  0.00  0.00    +0.500 C 
ATOM     14  OXT THR A  2       -2.871  -5.770  -1.504  0.00  0.00    -0.680 OA
ATOM     15  O   THR A  2       -3.568  -3.789  -1.730  0.00  0.00    -0.690 OA
ENDBRANCH  12  13
BRANCH  12  16
ATOM     16  CB  THR A  2       -0.449  -4.455  -2.711  0.00  0.00    +0.230 C 
ATOM     17  CG2 THR A  2        0.986  -3.936  -2.597  0.00  0.00    +0.010 C 
BRANCH  16  18
ATOM     18  OG1 THR A  2       -1.071  -3.882  -3.863  0.00  0.00    -0.540 OA
ATOM     19  HG1 THR A  2       -1.118  -2.917  -3.846  0.00  0.00    +0.360 HD
ENDBRANCH  16  18
ENDBRANCH  12  16
ENDBRANCH   2  12
TORSDOF 7
ENDMDL
MODEL     1208
REMARK  Name = ZINC000006072044
REMARK                            x       y       z     vdW  Elec       q    Type
REMARK                         _______ _______ _______ _____ _____    ______ ____
ROOT
ATOM      1  C   LIG    1       -0.018   1.503   0.010  0.00  0.00    +0.130 C 
ATOM      2  C   LIG    1        0.002  -0.004   0.002  0.00  0.00    -0.240 A 
ATOM      3  C   LIG    1       -1.147  -0.711   0.004  0.00  0.00    +0.330 A 
ATOM      4  N   LIG    1       -1.100  -2.077  -0.004  0.00  0.00    -0.530 N 
ATOM      5  C   LIG    1        0.083  -2.734  -0.018  0.00  0.00    +0.580 A 
ATOM      6  O   LIG    1       -0.067  -4.076  -0.033  0.00  0.00    -0.250 OA
ATOM      7  C   LIG    1       -1.476  -4.422  -0.047  0.00  0.00    +0.220 C 
ATOM      8  C   LIG    1       -1.853  -5.116   1.282  0.00  0.00    +0.170 C 
ATOM      9  C   LIG    1       -3.143  -4.359   1.690  0.00  0.00    +0.160 C 
ATOM     10  O   LIG    1       -2.876  -2.999   1.289  0.00  0.00    -0.350 OA
ATOM     11  N   LIG    1        1.220  -2.050  -0.019  0.00  0.00    -0.580 NA
ATOM     12  C   LIG    1       -2.201  -3.056   0.004  0.00  0.00    +0.410 C 
ATOM     13  C   LIG    1        1.230  -0.714  -0.013  0.00  0.00    +0.530 A 
ATOM     14  O   LIG    1        2.290  -0.107  -0.012  0.00  0.00    -0.490 OA
ENDROOT
BRANCH   8  15
ATOM     15  O   LIG    1       -2.118  -6.505   1.074  0.00  0.00    -0.540 OA
ATOM     16  H   LIG    1       -2.359  -6.985   1.878  0.00  0.00    +0.400 HD
ENDBRANCH   8  15
BRANCH   9  17
ATOM     17  C   LIG    1       -3.362  -4.445   3.202  0.00  0.00    +0.210 C 
BRANCH  17  18
ATOM     18  O   LIG    1       -4.613  -3.842   3.537  0.00  0.00    -0.560 OA
ATOM     19  H   LIG    1       -4.819  -3.860   4.482  0.00  0.00    +0.390 HD
ENDBRANCH  17  18
ENDBRANCH   9  17
TORSDOF 3
ENDMDL
MODEL     1209
REMARK  Name = ZINC000006072455
REMARK                            x       y       z     vdW  Elec       q    Type
REMARK                         _______ _______ _______ _____ _____    ______ ____
ROOT
ATOM      1  C5M   T A  1       -0.018   1.503   0.010  0.00  0.00    +0.140 C 
ATOM      2  C5    T A  1        0.002  -0.004   0.002  0.00  0.00    -0.260 A 
ATOM      3  C6    T A  1       -1.153  -0.704   0.004  0.00  0.00    +0.360 A 
ATOM      4  N1    T A  1       -1.116  -2.072  -0.004  0.00  0.00    -0.540 N 
ATOM      5  C2    T A  1        0.060  -2.726  -0.013  0.00  0.00    +0.700 A 
ATOM      6  N3    T A  1        1.226  -2.053  -0.016  0.00  0.00    -0.660 N 
ATOM      7  H3    T A  1        2.064  -2.540  -0.023  0.00  0.00    +0.430 HD
ATOM      8  O2    T A  1        0.069  -3.942  -0.020  0.00  0.00    -0.540 OA
ATOM      9  C4    T A  1        1.232  -0.705  -0.013  0.00  0.00    +0.550 A 
ATOM     10  O4    T A  1        2.287  -0.095  -0.016  0.00  0.00    -0.510 OA
ENDROOT
BRANCH   4  11
ATOM     11  C1*   T A  1       -2.369  -2.831  -0.002  0.00  0.00    +0.440 C 
ATOM     12  C2*   T A  1       -2.448  -3.713  -1.266  0.00  0.00    +0.020 C 
ATOM     13  C3*   T A  1       -3.947  -3.595  -1.657  0.00  0.00    +0.170 C 
ATOM     14  C4*   T A  1       -4.247  -2.136  -1.230  0.00  0.00    +0.190 C 
ATOM     15  O4*   T A  1       -3.483  -1.931  -0.029  0.00  0.00    -0.350 OA
BRANCH  13  16
ATOM     16  O3*   T A  1       -4.127  -3.768  -3.064  0.00  0.00    -0.550 OA
ATOM     17  H3*   T A  1       -3.848  -4.633  -3.393  0.00  0.00    +0.390 HD
ENDBRANCH  13  16
BRANCH  14  18
ATOM     18  C5*   T A  1       -5.741  -1.964  -0.946  0.00  0.00    +0.210 C 
BRANCH  18  19
ATOM     19  O5*   T A  1       -6.017  -0.589  -0.667  0.00  0.00    -0.570 OA
ATOM     20  H5*   T A  1       -6.947  -0.406  -0.477  0.00  0.00    +0.390 HD
ENDBRANCH  18  19
ENDBRANCH  14  18
ENDBRANCH   4  11
TORSDOF 4
ENDMDL
MODEL     1210
REMARK  Name = ZINC000000870372
REMARK                            x       y       z     vdW  Elec       q    Type
REMARK                         _______ _______ _______ _____ _____    ______ ____
ROOT
ATOM      1  C   LIG    1        2.607  -0.574  -0.020  0.00  0.00    +0.610 C 
ATOM      2  N   LIG    1        3.531  -1.555  -0.024  0.00  0.00    -0.690 N 
ATOM      3  H   LIG    1        3.252  -2.484  -0.023  0.00  0.00    +0.420 HD
ATOM      4  O   LIG    1        2.956   0.590  -0.022  0.00  0.00    -0.520 OA
ENDROOT
BRANCH   1  10
ATOM      5  C   LIG    1        0.002  -0.004   0.002  0.00  0.00    +0.370 A 
ATOM      6  N   LIG    1       -1.011  -0.839   0.001  0.00  0.00    -0.370 NA
ATOM      7  O   LIG    1       -0.599  -1.975  -0.006  0.00  0.00    +0.310 OA
ATOM      8  N   LIG    1        0.602  -2.106  -0.012  0.00  0.00    -0.010 N 
ATOM      9  O   LIG    1        1.292  -3.342  -0.021  0.00  0.00    -0.420 OA
ATOM     10  C   LIG    1        1.170  -0.914  -0.014  0.00  0.00    -0.080 A 
BRANCH   5  11
ATOM     11  N   LIG    1       -0.017   1.384   0.010  0.00  0.00    -0.780 N 
ATOM     12  H   LIG    1       -0.863   1.857   0.016  0.00  0.00    +0.430 HD
ATOM     13  H   LIG    1        0.817   1.880   0.004  0.00  0.00    +0.440 HD
ENDBRANCH   5  11
ENDBRANCH   1  10
BRANCH   2  14
ATOM     14  C   LIG    1        4.957  -1.218  -0.030  0.00  0.00    +0.290 C 
BRANCH  14  15
ATOM     15  C   LIG    1        5.785  -2.505  -0.034  0.00  0.00    +0.140 C 
ATOM     16  C   LIG    1        7.298  -2.171  -0.005  0.00  0.00    +0.030 C 
ATOM     17  C   LIG    1        7.874  -3.469   0.623  0.00  0.00    +0.010 C 
ATOM     18  C   LIG    1        6.755  -3.884   1.602  0.00  0.00    +0.190 C 
ATOM     19  O   LIG    1        5.542  -3.257   1.165  0.00  0.00    -0.380 OA
ENDBRANCH  14  15
ENDBRANCH   2  14
TORSDOF 4
ENDMDL
MODEL     1211
REMARK  Name = ZINC000000870371
REMARK                            x       y       z     vdW  Elec       q    Type
REMARK                         _______ _______ _______ _____ _____    ______ ____
ROOT
ATOM      1  C   LIG    1        2.607  -0.574  -0.020  0.00  0.00    +0.610 C 
ATOM      2  N   LIG    1        3.531  -1.555  -0.024  0.00  0.00    -0.690 N 
ATOM      3  H   LIG    1        3.252  -2.484  -0.023  0.00  0.00    +0.420 HD
ATOM      4  O   LIG    1        2.956   0.590  -0.022  0.00  0.00    -0.520 OA
ENDROOT
BRANCH   1  10
ATOM      5  C   LIG    1        0.002  -0.004   0.002  0.00  0.00    +0.370 A 
ATOM      6  N   LIG    1       -1.011  -0.839   0.001  0.00  0.00    -0.370 NA
ATOM      7  O   LIG    1       -0.599  -1.975  -0.006  0.00  0.00    +0.310 OA
ATOM      8  N   LIG    1        0.602  -2.106  -0.012  0.00  0.00    -0.010 N 
ATOM      9  O   LIG    1        1.292  -3.342  -0.021  0.00  0.00    -0.420 OA
ATOM     10  C   LIG    1        1.170  -0.914  -0.014  0.00  0.00    -0.080 A 
BRANCH   5  11
ATOM     11  N   LIG    1       -0.017   1.384   0.010  0.00  0.00    -0.780 N 
ATOM     12  H   LIG    1       -0.863   1.857   0.016  0.00  0.00    +0.430 HD
ATOM     13  H   LIG    1        0.817   1.880   0.004  0.00  0.00    +0.440 HD
ENDBRANCH   5  11
ENDBRANCH   1  10
BRANCH   2  14
ATOM     14  C   LIG    1        4.957  -1.218  -0.030  0.00  0.00    +0.280 C 
BRANCH  14  15
ATOM     15  C   LIG    1        5.785  -2.505  -0.034  0.00  0.00    +0.160 C 
ATOM     16  C   LIG    1        7.286  -2.162   0.082  0.00  0.00    +0.020 C 
ATOM     17  C   LIG    1        7.934  -3.192  -0.883  0.00  0.00    +0.010 C 
ATOM     18  C   LIG    1        6.841  -3.300  -1.976  0.00  0.00    +0.200 C 
ATOM     19  O   LIG    1        5.592  -3.203  -1.269  0.00  0.00    -0.370 OA
ENDBRANCH  14  15
ENDBRANCH   2  14
TORSDOF 4
ENDMDL
MODEL     1212
REMARK  Name = ZINC000017173868
REMARK                            x       y       z     vdW  Elec       q    Type
REMARK                         _______ _______ _______ _____ _____    ______ ____
ROOT
ATOM      1  C1* LIG    1        0.139  -4.130  -0.024  0.00  0.00    +0.460 C 
ATOM      2  O4* LIG    1        0.586  -4.638   1.252  0.00  0.00    -0.350 OA
ATOM      3  C4* LIG    1        1.070  -5.973   1.026  0.00  0.00    +0.190 C 
ATOM      4  C3* LIG    1        1.534  -6.050  -0.442  0.00  0.00    +0.140 C 
ATOM      5  C2* LIG    1        1.209  -4.649  -1.019  0.00  0.00    +0.130 C 
ENDROOT
BRANCH   1   9
ATOM      6  C   LIG    1        0.002  -0.004   0.002  0.00  0.00    +0.470 A 
ATOM      7  N   LIG    1       -1.131  -0.697   0.004  0.00  0.00    -0.590 NA
ATOM      8  C   LIG    1       -1.076  -2.031  -0.004  0.00  0.00    +0.630 A 
ATOM      9  N   LIG    1        0.110  -2.666  -0.014  0.00  0.00    -0.380 N 
ATOM     10  N   LIG    1        1.219  -2.014  -0.016  0.00  0.00    -0.100 NA
ATOM     11  O   LIG    1       -2.110  -2.680  -0.003  0.00  0.00    -0.520 OA
ATOM     12  C   LIG    1        1.229  -0.709  -0.013  0.00  0.00    +0.150 A 
BRANCH   6  13
ATOM     13  N   LIG    1       -0.017   1.371   0.010  0.00  0.00    -0.800 N 
ATOM     14  H   LIG    1       -0.863   1.845   0.016  0.00  0.00    +0.420 HD
ATOM     15  H   LIG    1        0.817   1.867   0.004  0.00  0.00    +0.420 HD
ENDBRANCH   6  13
ENDBRANCH   1   9
BRANCH   4  16
ATOM     16  O3* LIG    1        0.808  -7.060  -1.144  0.00  0.00    -0.550 OA
ATOM     17  H3* LIG    1        1.060  -7.152  -2.073  0.00  0.00    +0.390 HD
ENDBRANCH   4  16
BRANCH   5  18
ATOM     18  O2* LIG    1        2.366  -3.809  -1.002  0.00  0.00    -0.520 OA
ATOM     19  H2* LIG    1        3.100  -4.140  -1.538  0.00  0.00    +0.380 HD
ENDBRANCH   5  18
BRANCH   3  20
ATOM     20  C5* LIG    1        2.244  -6.267   1.962  0.00  0.00    +0.210 C 
BRANCH  20  21
ATOM     21  O5* LIG    1        1.780  -6.293   3.314  0.00  0.00    -0.560 OA
ATOM     22  H5* LIG    1        2.472  -6.474   3.964  0.00  0.00    +0.380 HD
ENDBRANCH  20  21
ENDBRANCH   3  20
TORSDOF 6
ENDMDL
MODEL     1213
REMARK  Name = ZINC000000057290
REMARK                            x       y       z     vdW  Elec       q    Type
REMARK                         _______ _______ _______ _____ _____    ______ ____
ROOT
ATOM      1  C4    C A  1        0.002  -0.004   0.002  0.00  0.00    +0.510 A 
ATOM      2  N3    C A  1       -1.135  -0.687   0.004  0.00  0.00    -0.620 NA
ATOM      3  C2    C A  1       -1.129  -2.018  -0.004  0.00  0.00    +0.660 A 
ATOM      4  N1    C A  1        0.026  -2.708  -0.014  0.00  0.00    -0.530 N 
ATOM      5  C6    C A  1        1.220  -2.050  -0.016  0.00  0.00    +0.390 A 
ATOM      6  O2    C A  1       -2.189  -2.623  -0.003  0.00  0.00    -0.540 OA
ATOM      7  C5    C A  1        1.230  -0.697  -0.013  0.00  0.00    -0.160 A 
ENDROOT
BRANCH   4   8
ATOM      8  C1*   C A  1        0.001  -4.173  -0.023  0.00  0.00    +0.410 C 
ATOM      9  C2*   C A  1       -0.679  -4.715   1.260  0.00  0.00    +0.010 C 
ATOM     10  C3*   C A  1       -0.064  -6.130   1.381  0.00  0.00    +0.170 C 
ATOM     11  C4*   C A  1        1.230  -6.051   0.546  0.00  0.00    +0.190 C 
ATOM     12  O4*   C A  1        1.341  -4.705   0.052  0.00  0.00    -0.360 OA
BRANCH  10  13
ATOM     13  O3*   C A  1        0.236  -6.430   2.745  0.00  0.00    -0.550 OA
ATOM     14  H3*   C A  1       -0.537  -6.435   3.326  0.00  0.00    +0.390 HD
ENDBRANCH  10  13
BRANCH  11  15
ATOM     15  C5*   C A  1        2.436  -6.391   1.423  0.00  0.00    +0.220 C 
BRANCH  15  16
ATOM     16  O5*   C A  1        3.615  -6.430   0.617  0.00  0.00    -0.570 OA
ATOM     17  H5*   C A  1        4.421  -6.640   1.108  0.00  0.00    +0.380 HD
ENDBRANCH  15  16
ENDBRANCH  11  15
ENDBRANCH   4   8
BRANCH   1  18
ATOM     18  N4    C A  1       -0.017   1.371   0.010  0.00  0.00    -0.810 N 
ATOM     19  H41   C A  1       -0.863   1.845   0.016  0.00  0.00    +0.410 HD
ATOM     20  H42   C A  1        0.817   1.868   0.004  0.00  0.00    +0.420 HD
ENDBRANCH   1  18
TORSDOF 5
ENDMDL
MODEL     1214
REMARK  Name = ZINC000021951912
REMARK                            x       y       z     vdW  Elec       q    Type
REMARK                         _______ _______ _______ _____ _____    ______ ____
ROOT
ATOM      1  C   LIG    1       -0.018   1.461   0.010  0.00  0.00    +0.360 C 
ATOM      2  N   LIG    1        0.002  -0.004   0.002  0.00  0.00    -0.410 N 
ATOM      3  C   LIG    1        0.009  -0.800  -1.085  0.00  0.00    +0.500 A 
ATOM      4  N   LIG    1        0.028  -2.054  -0.714  0.00  0.00    -0.500 NA
ATOM      5  C   LIG    1        0.034  -2.132   0.619  0.00  0.00    +0.320 A 
ATOM      6  N   LIG    1        0.053  -3.184   1.520  0.00  0.00    -0.510 N 
ATOM      7  C   LIG    1        0.063  -4.565   1.032  0.00  0.00    +0.350 C 
ATOM      8  C   LIG    1        0.052  -2.939   2.844  0.00  0.00    +0.710 A 
ATOM      9  O   LIG    1        0.064  -3.876   3.620  0.00  0.00    -0.530 OA
ATOM     10  N   LIG    1        0.042  -1.686   3.330  0.00  0.00    -0.550 N 
ATOM     11  C   LIG    1        0.028  -0.620   2.503  0.00  0.00    +0.600 A 
ATOM     12  O   LIG    1        0.019   0.510   2.955  0.00  0.00    -0.510 OA
ATOM     13  C   LIG    1        0.024  -0.831   1.107  0.00  0.00    -0.160 A 
ENDROOT
BRANCH  10  14
ATOM     14  C   LIG    1        0.046  -1.474   4.780  0.00  0.00    +0.330 C 
BRANCH  14  15
ATOM     15  C   LIG    1       -1.395  -1.415   5.290  0.00  0.00    +0.020 C 
BRANCH  15  16
ATOM     16  C   LIG    1       -1.391  -1.194   6.804  0.00  0.00    +0.180 C 
BRANCH  16  17
ATOM     17  O   LIG    1       -2.737  -1.138   7.281  0.00  0.00    -0.570 OA
ATOM     18  H   LIG    1       -2.811  -1.000   8.235  0.00  0.00    +0.380 HD
ENDBRANCH  16  17
ENDBRANCH  15  16
ENDBRANCH  14  15
ENDBRANCH  10  14
TORSDOF 4
ENDMDL
MODEL     1215
REMARK  Name = ZINC000000004253
REMARK                            x       y       z     vdW  Elec       q    Type
REMARK                         _______ _______ _______ _____ _____    ______ ____
ROOT
ATOM      1  C4    C A  1        0.002  -0.004   0.002  0.00  0.00    +0.510 A 
ATOM      2  N3    C A  1       -1.135  -0.687   0.004  0.00  0.00    -0.620 NA
ATOM      3  C2    C A  1       -1.129  -2.018  -0.004  0.00  0.00    +0.660 A 
ATOM      4  N1    C A  1        0.026  -2.708  -0.014  0.00  0.00    -0.530 N 
ATOM      5  C6    C A  1        1.220  -2.050  -0.016  0.00  0.00    +0.390 A 
ATOM      6  O2    C A  1       -2.189  -2.623  -0.003  0.00  0.00    -0.540 OA
ATOM      7  C5    C A  1        1.230  -0.697  -0.013  0.00  0.00    -0.160 A 
ENDROOT
BRANCH   4   8
ATOM      8  C1*   C A  1        0.001  -4.173  -0.023  0.00  0.00    +0.410 C 
ATOM      9  C2*   C A  1       -0.679  -4.715   1.260  0.00  0.00    +0.010 C 
ATOM     10  C3*   C A  1       -0.064  -6.130   1.381  0.00  0.00    +0.160 C 
ATOM     11  C4*   C A  1        1.230  -6.051   0.546  0.00  0.00    +0.190 C 
ATOM     12  O4*   C A  1        1.341  -4.705   0.052  0.00  0.00    -0.360 OA
BRANCH  10  13
ATOM     13  O3*   C A  1       -0.952  -7.109   0.840  0.00  0.00    -0.560 OA
ATOM     14  H3*   C A  1       -1.805  -7.160   1.294  0.00  0.00    +0.390 HD
ENDBRANCH  10  13
BRANCH  11  15
ATOM     15  C5*   C A  1        2.436  -6.391   1.423  0.00  0.00    +0.210 C 
BRANCH  15  16
ATOM     16  O5*   C A  1        3.615  -6.430   0.617  0.00  0.00    -0.560 OA
ATOM     17  H5*   C A  1        4.421  -6.640   1.108  0.00  0.00    +0.390 HD
ENDBRANCH  15  16
ENDBRANCH  11  15
ENDBRANCH   4   8
BRANCH   1  18
ATOM     18  N4    C A  1       -0.017   1.371   0.010  0.00  0.00    -0.810 N 
ATOM     19  H41   C A  1       -0.863   1.845   0.016  0.00  0.00    +0.410 HD
ATOM     20  H42   C A  1        0.817   1.868   0.004  0.00  0.00    +0.420 HD
ENDBRANCH   1  18
TORSDOF 5
ENDMDL
MODEL     1216
REMARK  Name = ZINC000952963366
REMARK                            x       y       z     vdW  Elec       q    Type
REMARK                         _______ _______ _______ _____ _____    ______ ____
ROOT
ATOM      1  N   LIG    1       -0.795  -0.498  -1.363  0.00  0.00    -1.000 NA
ATOM      2  C   LIG    1       -2.244  -0.730  -1.326  0.00  0.00    +0.300 C 
ATOM      3  C   LIG    1       -2.872   0.101  -2.446  0.00  0.00    +0.040 C 
ATOM      4  C   LIG    1       -2.317  -0.345  -3.799  0.00  0.00    +0.000 C 
ATOM      5  C   LIG    1       -2.731   0.710  -4.820  0.00  0.00    +0.520 C 
ATOM      6  N   LIG    1       -1.722   1.583  -5.001  0.00  0.00    -0.730 N 
ATOM      7  H   LIG    1       -1.765   2.359  -5.580  0.00  0.00    +0.410 HD
ATOM      8  C   LIG    1       -0.543   1.204  -4.204  0.00  0.00    +0.260 C 
ATOM      9  O   LIG    1       -3.805   0.755  -5.382  0.00  0.00    -0.520 OA
ATOM     10  C   LIG    1       -0.787  -0.292  -3.830  0.00  0.00    -0.010 C 
ATOM     11  C   LIG    1       -0.062  -0.697  -2.604  0.00  0.00    +0.310 C 
ENDROOT
BRANCH   1  12
ATOM     12  S   LIG    1        0.002  -0.004   0.002  0.00  0.00    +2.790 S 
ATOM     13  O   LIG    1       -0.792  -0.422   1.104  0.00  0.00    -0.970 OA
ATOM     14  O   LIG    1        1.360  -0.386  -0.166  0.00  0.00    -0.970 OA
BRANCH  12  15
ATOM     15  N   LIG    1       -0.020   1.652   0.011  0.00  0.00    -1.260 NA
ATOM     16  H   LIG    1       -0.867   2.125   0.018  0.00  0.00    +0.420 HD
ATOM     17  H   LIG    1        0.813   2.148   0.006  0.00  0.00    +0.420 HD
ENDBRANCH  12  15
ENDBRANCH   1  12
TORSDOF 2
ENDMDL
MODEL     1217
REMARK  Name = ZINC000031554596
REMARK                            x       y       z     vdW  Elec       q    Type
REMARK                         _______ _______ _______ _____ _____    ______ ____
ROOT
ATOM      1  C   LIG    1       -0.018   1.461   0.010  0.00  0.00    +0.360 C 
ATOM      2  N   LIG    1        0.002  -0.004   0.002  0.00  0.00    -0.410 N 
ATOM      3  C   LIG    1        0.009  -0.800  -1.085  0.00  0.00    +0.500 A 
ATOM      4  N   LIG    1        0.028  -2.054  -0.714  0.00  0.00    -0.500 NA
ATOM      5  C   LIG    1        0.034  -2.132   0.619  0.00  0.00    +0.320 A 
ATOM      6  N   LIG    1        0.053  -3.184   1.520  0.00  0.00    -0.510 N 
ATOM      7  C   LIG    1        0.063  -4.565   1.032  0.00  0.00    +0.350 C 
ATOM      8  C   LIG    1        0.052  -2.939   2.844  0.00  0.00    +0.710 A 
ATOM      9  O   LIG    1        0.064  -3.876   3.620  0.00  0.00    -0.510 OA
ATOM     10  N   LIG    1        0.042  -1.686   3.330  0.00  0.00    -0.550 N 
ATOM     11  C   LIG    1        0.028  -0.620   2.503  0.00  0.00    +0.600 A 
ATOM     12  O   LIG    1        0.019   0.510   2.955  0.00  0.00    -0.520 OA
ATOM     13  C   LIG    1        0.024  -0.831   1.107  0.00  0.00    -0.160 A 
ENDROOT
BRANCH  10  14
ATOM     14  C   LIG    1        0.046  -1.474   4.780  0.00  0.00    +0.350 C 
BRANCH  14  15
ATOM     15  C   LIG    1       -1.395  -1.415   5.290  0.00  0.00    +0.180 C 
BRANCH  15  16
ATOM     16  O   LIG    1       -2.022  -2.684   5.095  0.00  0.00    -0.560 OA
ATOM     17  H   LIG    1       -2.940  -2.720   5.397  0.00  0.00    +0.380 HD
ENDBRANCH  15  16
ENDBRANCH  14  15
ENDBRANCH  10  14
TORSDOF 3
ENDMDL
MODEL     1218
REMARK  Name = ZINC000952963379
REMARK                            x       y       z     vdW  Elec       q    Type
REMARK                         _______ _______ _______ _____ _____    ______ ____
ROOT
ATOM      1  N   LIG    1       -0.795  -0.498  -1.363  0.00  0.00    -1.010 NA
ATOM      2  C   LIG    1       -2.242  -0.725  -1.310  0.00  0.00    +0.290 C 
ATOM      3  C   LIG    1       -2.946  -0.065  -2.514  0.00  0.00    +0.060 C 
ATOM      4  C   LIG    1       -2.206  -0.532  -3.749  0.00  0.00    -0.020 C 
ATOM      5  C   LIG    1       -2.673  -0.072  -5.090  0.00  0.00    +0.530 C 
ATOM      6  N   LIG    1       -1.580   0.063  -5.891  0.00  0.00    -0.750 N 
ATOM      7  H   LIG    1       -1.613   0.274  -6.837  0.00  0.00    +0.410 HD
ATOM      8  C   LIG    1       -0.334  -0.157  -5.120  0.00  0.00    +0.280 C 
ATOM      9  O   LIG    1       -3.823   0.143  -5.409  0.00  0.00    -0.520 OA
ATOM     10  C   LIG    1       -0.777   0.083  -3.683  0.00  0.00    -0.020 C 
ATOM     11  C   LIG    1       -0.036  -0.696  -2.617  0.00  0.00    +0.320 C 
ENDROOT
BRANCH   1  12
ATOM     12  S   LIG    1        0.002  -0.004   0.002  0.00  0.00    +2.790 S 
ATOM     13  O   LIG    1       -0.792  -0.422   1.104  0.00  0.00    -0.970 OA
ATOM     14  O   LIG    1        1.360  -0.386  -0.166  0.00  0.00    -0.980 OA
BRANCH  12  15
ATOM     15  N   LIG    1       -0.020   1.652   0.011  0.00  0.00    -1.260 NA
ATOM     16  H   LIG    1       -0.867   2.125   0.018  0.00  0.00    +0.420 HD
ATOM     17  H   LIG    1        0.813   2.148   0.006  0.00  0.00    +0.420 HD
ENDBRANCH  12  15
ENDBRANCH   1  12
TORSDOF 2
ENDMDL
MODEL     1219
REMARK  Name = ZINC000952963383
REMARK                            x       y       z     vdW  Elec       q    Type
REMARK                         _______ _______ _______ _____ _____    ______ ____
ROOT
ATOM      1  N   LIG    1       -0.795  -0.498  -1.363  0.00  0.00    -1.010 NA
ATOM      2  C   LIG    1       -2.242  -0.725  -1.310  0.00  0.00    +0.280 C 
ATOM      3  C   LIG    1       -2.612  -2.061  -1.987  0.00  0.00    +0.060 C 
ATOM      4  C   LIG    1       -1.953  -2.046  -3.350  0.00  0.00    -0.020 C 
ATOM      5  C   LIG    1       -2.150  -3.211  -4.262  0.00  0.00    +0.530 C 
ATOM      6  N   LIG    1       -1.007  -3.375  -4.983  0.00  0.00    -0.750 N 
ATOM      7  H   LIG    1       -0.898  -4.013  -5.705  0.00  0.00    +0.410 HD
ATOM      8  C   LIG    1        0.048  -2.445  -4.516  0.00  0.00    +0.280 C 
ATOM      9  O   LIG    1       -3.150  -3.890  -4.345  0.00  0.00    -0.520 OA
ATOM     10  C   LIG    1       -0.415  -2.085  -3.111  0.00  0.00    -0.020 C 
ATOM     11  C   LIG    1       -0.036  -0.696  -2.617  0.00  0.00    +0.320 C 
ENDROOT
BRANCH   1  12
ATOM     12  S   LIG    1        0.002  -0.004   0.002  0.00  0.00    +2.790 S 
ATOM     13  O   LIG    1       -0.792  -0.422   1.104  0.00  0.00    -0.970 OA
ATOM     14  O   LIG    1        1.360  -0.386  -0.166  0.00  0.00    -0.980 OA
BRANCH  12  15
ATOM     15  N   LIG    1       -0.020   1.652   0.011  0.00  0.00    -1.260 NA
ATOM     16  H   LIG    1       -0.867   2.125   0.018  0.00  0.00    +0.420 HD
ATOM     17  H   LIG    1        0.813   2.148   0.006  0.00  0.00    +0.420 HD
ENDBRANCH  12  15
ENDBRANCH   1  12
TORSDOF 2
ENDMDL
MODEL     1220
REMARK  Name = ZINC000952963380
REMARK                            x       y       z     vdW  Elec       q    Type
REMARK                         _______ _______ _______ _____ _____    ______ ____
ROOT
ATOM      1  N   LIG    1       -0.795  -0.498  -1.363  0.00  0.00    -1.000 NA
ATOM      2  C   LIG    1       -2.244  -0.730  -1.326  0.00  0.00    +0.300 C 
ATOM      3  C   LIG    1       -2.498  -2.143  -1.853  0.00  0.00    +0.040 C 
ATOM      4  C   LIG    1       -1.997  -2.259  -3.294  0.00  0.00    +0.000 C 
ATOM      5  C   LIG    1       -1.988  -3.743  -3.644  0.00  0.00    +0.520 C 
ATOM      6  N   LIG    1       -0.750  -4.240  -3.462  0.00  0.00    -0.730 N 
ATOM      7  H   LIG    1       -0.509  -5.171  -3.590  0.00  0.00    +0.410 HD
ATOM      8  C   LIG    1        0.190  -3.187  -3.044  0.00  0.00    +0.270 C 
ATOM      9  O   LIG    1       -2.949  -4.377  -4.026  0.00  0.00    -0.530 OA
ATOM     10  C   LIG    1       -0.527  -1.852  -3.418  0.00  0.00    -0.010 C 
ATOM     11  C   LIG    1       -0.062  -0.697  -2.604  0.00  0.00    +0.300 C 
ENDROOT
BRANCH   1  12
ATOM     12  S   LIG    1        0.002  -0.004   0.002  0.00  0.00    +2.790 S 
ATOM     13  O   LIG    1       -0.792  -0.422   1.104  0.00  0.00    -0.970 OA
ATOM     14  O   LIG    1        1.360  -0.386  -0.166  0.00  0.00    -0.980 OA
BRANCH  12  15
ATOM     15  N   LIG    1       -0.020   1.652   0.011  0.00  0.00    -1.250 NA
ATOM     16  H   LIG    1       -0.867   2.125   0.018  0.00  0.00    +0.420 HD
ATOM     17  H   LIG    1        0.813   2.148   0.006  0.00  0.00    +0.420 HD
ENDBRANCH  12  15
ENDBRANCH   1  12
TORSDOF 2
ENDMDL
MODEL     1221
REMARK  Name = ZINC000001708208
REMARK                            x       y       z     vdW  Elec       q    Type
REMARK                         _______ _______ _______ _____ _____    ______ ____
ROOT
ATOM      1  CG  CYS A  1       -2.115  -0.576   1.344  0.00  0.00    +0.080 C 
ENDROOT
BRANCH   1   2
ATOM      2  CB  CYS A  1       -2.135   0.949   1.227  0.00  0.00    +0.100 C 
BRANCH   2   3
ATOM      3  CA  CYS A  1       -0.699   1.479   1.216  0.00  0.00    +0.090 C 
BRANCH   3   4
ATOM      4  N   CYS A  1       -0.012   1.005   0.008  0.00  0.00    -0.610 N 
ATOM      5  H1  CYS A  1       -0.500   1.339  -0.810  0.00  0.00    +0.430 HD
ATOM      6  H2  CYS A  1        0.935   1.354   0.000  0.00  0.00    +0.440 HD
ATOM      7  H3  CYS A  1        0.002  -0.004   0.002  0.00  0.00    +0.410 HD
ENDBRANCH   3   4
BRANCH   3   8
ATOM      8  C   CYS A  1       -0.720   2.985   1.224  0.00  0.00    +0.490 C 
ATOM      9  OXT CYS A  1       -1.079   3.585   2.223  0.00  0.00    -0.630 OA
ATOM     10  O   CYS A  1       -0.376   3.605   0.232  0.00  0.00    -0.670 OA
ENDBRANCH   3   8
ENDBRANCH   2   3
ENDBRANCH   1   2
BRANCH   1  11
ATOM     11  SG  CYS A  1       -3.816  -1.204   1.357  0.00  0.00    -0.260 S 
BRANCH  11  12
ATOM     12  CB  CYS A  1       -3.588  -2.998   1.500  0.00  0.00    +0.130 C 
BRANCH  12  13
ATOM     13  CA  CYS A  1       -4.955  -3.686   1.524  0.00  0.00    +0.110 C 
BRANCH  13  14
ATOM     14  N   CYS A  1       -5.629  -3.481   0.235  0.00  0.00    -0.610 N 
ATOM     15  H1  CYS A  1       -6.531  -3.934   0.251  0.00  0.00    +0.440 HD
ATOM     16  H2  CYS A  1       -5.068  -3.875  -0.505  0.00  0.00    +0.430 HD
ATOM     17  H3  CYS A  1       -5.753  -2.492   0.074  0.00  0.00    +0.420 HD
ENDBRANCH  13  14
BRANCH  13  18
ATOM     18  C   CYS A  1       -4.771  -5.162   1.765  0.00  0.00    +0.490 C 
ATOM     19  OXT CYS A  1       -4.995  -5.958   0.870  0.00  0.00    -0.660 OA
ATOM     20  O   CYS A  1       -4.397  -5.559   2.856  0.00  0.00    -0.630 OA
ENDBRANCH  13  18
ENDBRANCH  12  13
ENDBRANCH  11  12
ENDBRANCH   1  11
TORSDOF 9
ENDMDL
MODEL     1222
REMARK  Name = ZINC000004125097
REMARK                            x       y       z     vdW  Elec       q    Type
REMARK                         _______ _______ _______ _____ _____    ______ ____
ROOT
ATOM      1  N   LIG    1        1.398  -2.528   2.296  0.00  0.00    -0.630 N 
ATOM      2  C   LIG    1        1.061  -2.257   3.592  0.00  0.00    +0.730 C 
ATOM      3  N   LIG    1        1.746  -3.056   4.479  0.00  0.00    -0.720 N 
ATOM      4  H   LIG    1        1.865  -2.925   5.433  0.00  0.00    +0.430 HD
ATOM      5  C   LIG    1        2.232  -4.105   3.681  0.00  0.00    +0.380 C 
ATOM      6  N   LIG    1        3.171  -5.145   3.657  0.00  0.00    -0.720 N 
ATOM      7  H   LIG    1        3.625  -5.551   4.412  0.00  0.00    +0.430 HD
ATOM      8  C   LIG    1        3.307  -5.461   2.329  0.00  0.00    +0.730 C 
ATOM      9  N   LIG    1        2.761  -4.508   1.516  0.00  0.00    -0.740 N 
ATOM     10  H   LIG    1        2.529  -4.599   0.579  0.00  0.00    +0.430 HD
ATOM     11  O   LIG    1        3.849  -6.470   1.923  0.00  0.00    -0.530 OA
ATOM     12  O   LIG    1        0.253  -1.411   3.923  0.00  0.00    -0.510 OA
ATOM     13  C   LIG    1        2.626  -3.322   2.368  0.00  0.00    +0.430 C 
ENDROOT
BRANCH   1  14
ATOM     14  C   LIG    1        0.679  -2.115   1.088  0.00  0.00    +0.320 C 
ATOM     15  C   LIG    1       -0.742  -2.682   1.123  0.00  0.00    +0.080 C 
BRANCH  14  16
ATOM     16  C   LIG    1        0.618  -0.611   1.029  0.00  0.00    +0.440 C 
ATOM     17  O   LIG    1        1.124   0.049   1.905  0.00  0.00    -0.480 OA
BRANCH  16  19
ATOM     18  C   LIG    1       -0.018   1.448   0.010  0.00  0.00    +0.260 C 
ATOM     19  O   LIG    1        0.002  -0.004   0.002  0.00  0.00    -0.360 OA
ENDBRANCH  16  19
ENDBRANCH  14  16
ENDBRANCH   1  14
TORSDOF 3
ENDMDL
MODEL     1223
REMARK  Name = ZINC000004125096
REMARK                            x       y       z     vdW  Elec       q    Type
REMARK                         _______ _______ _______ _____ _____    ______ ____
ROOT
ATOM      1  N   LIG    1        1.398  -2.528   2.296  0.00  0.00    -0.620 N 
ATOM      2  C   LIG    1        1.032  -2.240   3.551  0.00  0.00    +0.710 C 
ATOM      3  N   LIG    1        1.857  -2.732   4.484  0.00  0.00    -0.740 N 
ATOM      4  H   LIG    1        1.750  -2.622   5.442  0.00  0.00    +0.430 HD
ATOM      5  C   LIG    1        2.952  -3.463   3.830  0.00  0.00    +0.480 C 
ATOM      6  N   LIG    1        4.212  -2.728   4.006  0.00  0.00    -0.740 N 
ATOM      7  H   LIG    1        4.689  -2.626   4.845  0.00  0.00    +0.430 HD
ATOM      8  C   LIG    1        4.599  -2.221   2.829  0.00  0.00    +0.710 C 
ATOM      9  N   LIG    1        3.768  -2.501   1.817  0.00  0.00    -0.740 N 
ATOM     10  H   LIG    1        3.888  -2.217   0.898  0.00  0.00    +0.430 HD
ATOM     11  O   LIG    1        5.614  -1.566   2.691  0.00  0.00    -0.570 OA
ATOM     12  O   LIG    1        0.040  -1.591   3.820  0.00  0.00    -0.550 OA
ATOM     13  C   LIG    1        2.631  -3.327   2.319  0.00  0.00    +0.480 C 
ENDROOT
BRANCH   1  14
ATOM     14  C   LIG    1        0.679  -2.115   1.088  0.00  0.00    +0.320 C 
ATOM     15  C   LIG    1       -0.742  -2.682   1.123  0.00  0.00    +0.090 C 
BRANCH  14  16
ATOM     16  C   LIG    1        0.618  -0.611   1.029  0.00  0.00    +0.440 C 
ATOM     17  O   LIG    1        1.124   0.049   1.905  0.00  0.00    -0.480 OA
BRANCH  16  19
ATOM     18  C   LIG    1       -0.018   1.448   0.010  0.00  0.00    +0.260 C 
ATOM     19  O   LIG    1        0.002  -0.004   0.002  0.00  0.00    -0.360 OA
ENDBRANCH  16  19
ENDBRANCH  14  16
ENDBRANCH   1  14
TORSDOF 3
ENDMDL
MODEL     1224
REMARK  Name = ZINC000013542904
REMARK                            x       y       z     vdW  Elec       q    Type
REMARK                         _______ _______ _______ _____ _____    ______ ____
ROOT
ATOM      1  C   LIG    1        0.002  -0.004   0.002  0.00  0.00    +0.500 A 
ATOM      2  N   LIG    1       -1.135  -0.686   0.004  0.00  0.00    -0.590 NA
ATOM      3  C   LIG    1       -1.130  -2.018  -0.004  0.00  0.00    +0.660 A 
ATOM      4  N   LIG    1        0.025  -2.709  -0.013  0.00  0.00    -0.530 N 
ATOM      5  C   LIG    1        1.221  -2.052  -0.015  0.00  0.00    +0.370 A 
ATOM      6  O   LIG    1       -2.190  -2.622  -0.002  0.00  0.00    -0.530 OA
ATOM      7  C   LIG    1        1.232  -0.697  -0.013  0.00  0.00    -0.090 A 
ATOM      8  F   LIG    1        2.401  -0.020  -0.015  0.00  0.00    -0.120 F 
ENDROOT
BRANCH   4   9
ATOM      9  C1* LIG    1       -0.002  -4.174  -0.021  0.00  0.00    +0.430 C 
ATOM     10  C2* LIG    1       -0.728  -4.691   1.239  0.00  0.00    +0.010 C 
ATOM     11  C3* LIG    1        0.126  -5.929   1.627  0.00  0.00    +0.170 C 
ATOM     12  C4* LIG    1        1.540  -5.454   1.205  0.00  0.00    +0.190 C 
ATOM     13  O4* LIG    1        1.335  -4.685   0.007  0.00  0.00    -0.360 OA
BRANCH  11  14
ATOM     14  O3* LIG    1        0.064  -6.178   3.033  0.00  0.00    -0.550 OA
ATOM     15  H3* LIG    1       -0.825  -6.373   3.359  0.00  0.00    +0.390 HD
ENDBRANCH  11  14
BRANCH  12  16
ATOM     16  C5* LIG    1        2.440  -6.657   0.918  0.00  0.00    +0.210 C 
BRANCH  16  17
ATOM     17  O5* LIG    1        3.767  -6.204   0.644  0.00  0.00    -0.570 OA
ATOM     18  H5* LIG    1        4.394  -6.915   0.453  0.00  0.00    +0.390 HD
ENDBRANCH  16  17
ENDBRANCH  12  16
ENDBRANCH   4   9
BRANCH   1  19
ATOM     19  N   LIG    1       -0.017   1.372   0.010  0.00  0.00    -0.800 N 
ATOM     20  H   LIG    1       -0.863   1.846   0.016  0.00  0.00    +0.420 HD
ATOM     21  H   LIG    1        0.817   1.868   0.004  0.00  0.00    +0.420 HD
ENDBRANCH   1  19
TORSDOF 5
ENDMDL
MODEL     1225
REMARK  Name = ZINC000005234411
REMARK                            x       y       z     vdW  Elec       q    Type
REMARK                         _______ _______ _______ _____ _____    ______ ____
ROOT
ATOM      1  C   LIG    1        0.673  -0.582   1.123  0.00  0.00    +0.310 C 
ATOM      2  O   LIG    1        2.059  -0.237   1.079  0.00  0.00    -0.380 OA
ATOM      3  C   LIG    1        2.823  -0.747   2.174  0.00  0.00    +0.150 C 
ATOM      4  C   LIG    1        2.762  -2.276   2.169  0.00  0.00    +0.130 C 
ATOM      5  C   LIG    1        1.299  -2.722   2.247  0.00  0.00    +0.180 C 
ATOM      6  C   LIG    1        0.526  -2.106   1.076  0.00  0.00    +0.250 C 
ENDROOT
BRANCH   6   7
ATOM      7  N   LIG    1       -0.890  -2.465   1.181  0.00  0.00    -0.720 N 
ATOM      8  H   LIG    1       -1.272  -2.684   2.045  0.00  0.00    +0.400 HD
ATOM      9  C   LIG    1       -1.662  -2.493   0.076  0.00  0.00    +0.510 C 
ATOM     10  O   LIG    1       -1.184  -2.220  -1.004  0.00  0.00    -0.520 OA
ATOM     11  C   LIG    1       -3.119  -2.863   0.184  0.00  0.00    +0.100 C 
ENDBRANCH   6   7
BRANCH   1  13
ATOM     12  C   LIG    1       -0.017   1.425   0.010  0.00  0.00    +0.210 C 
ATOM     13  O   LIG    1        0.002  -0.004   0.002  0.00  0.00    -0.340 OA
ENDBRANCH   1  13
BRANCH   5  14
ATOM     14  O   LIG    1        1.228  -4.147   2.171  0.00  0.00    -0.550 OA
ATOM     15  H   LIG    1        1.702  -4.602   2.880  0.00  0.00    +0.390 HD
ENDBRANCH   5  14
BRANCH   4  16
ATOM     16  O   LIG    1        3.478  -2.786   3.296  0.00  0.00    -0.560 OA
ATOM     17  H   LIG    1        4.412  -2.538   3.313  0.00  0.00    +0.390 HD
ENDBRANCH   4  16
BRANCH   3  18
ATOM     18  C   LIG    1        4.278  -0.293   2.037  0.00  0.00    +0.200 C 
BRANCH  18  19
ATOM     19  O   LIG    1        4.347   1.129   2.156  0.00  0.00    -0.560 OA
ATOM     20  H   LIG    1        5.241   1.488   2.079  0.00  0.00    +0.390 HD
ENDBRANCH  18  19
ENDBRANCH   3  18
TORSDOF 6
ENDMDL
MODEL     1226
REMARK  Name = ZINC000006668365
REMARK                            x       y       z     vdW  Elec       q    Type
REMARK                         _______ _______ _______ _____ _____    ______ ____
ROOT
ATOM      1  C   LIG    1       -0.018   1.461   0.010  0.00  0.00    +0.370 C 
ATOM      2  N   LIG    1        0.002  -0.004   0.002  0.00  0.00    -0.400 N 
ATOM      3  C   LIG    1        0.009  -0.823  -1.095  0.00  0.00    +0.250 A 
ATOM      4  N   LIG    1        0.028  -2.060  -0.650  0.00  0.00    -0.250 NA
ATOM      5  N   LIG    1        0.034  -2.055   0.635  0.00  0.00    -0.170 NA
ATOM      6  C   LIG    1        0.024  -0.826   1.078  0.00  0.00    -0.340 A 
ENDROOT
BRANCH   3   7
ATOM      7  C   LIG    1       -0.003  -0.397  -2.511  0.00  0.00    +0.140 A 
ATOM      8  N   LIG    1       -0.017   0.839  -2.940  0.00  0.00    -0.250 NA
ATOM      9  O   LIG    1       -0.024   0.806  -4.356  0.00  0.00    +0.050 OA
ATOM     10  N   LIG    1       -0.014  -0.552  -4.755  0.00  0.00    -0.340 NA
ATOM     11  C   LIG    1        0.004  -1.288  -3.679  0.00  0.00    +0.360 A 
BRANCH  11  12
ATOM     12  N   LIG    1        0.019  -2.676  -3.642  0.00  0.00    -0.800 N 
ATOM     13  H   LIG    1        0.032  -3.139  -2.789  0.00  0.00    +0.430 HD
ATOM     14  H   LIG    1        0.016  -3.183  -4.469  0.00  0.00    +0.420 HD
ENDBRANCH  11  12
ENDBRANCH   3   7
BRANCH   6  15
ATOM     15  S   LIG    1        0.027  -0.327   2.768  0.00  0.00    +2.530 S 
ATOM     16  O   LIG    1       -0.565  -1.421   3.457  0.00  0.00    -0.890 OA
ATOM     17  O   LIG    1       -0.591   0.952   2.758  0.00  0.00    -0.920 OA
ATOM     18  C   LIG    1        1.784  -0.182   3.194  0.00  0.00    -0.210 C 
ENDBRANCH   6  15
TORSDOF 3
ENDMDL
MODEL     1227
REMARK  Name = ZINC000029866006
REMARK                            x       y       z     vdW  Elec       q    Type
REMARK                         _______ _______ _______ _____ _____    ______ ____
ROOT
ATOM      1  C   LIG    1        0.002  -0.004   0.002  0.00  0.00    +0.480 A 
ATOM      2  N   LIG    1       -1.054  -0.782   0.002  0.00  0.00    -0.370 NA
ATOM      3  N   LIG    1       -0.582  -2.105  -0.007  0.00  0.00    -0.480 N 
ATOM      4  H   LIG    1       -1.119  -2.913  -0.009  0.00  0.00    +0.440 HD
ATOM      5  C   LIG    1        0.759  -2.031  -0.012  0.00  0.00    +0.320 A 
ATOM      6  N   LIG    1        1.099  -0.767  -0.013  0.00  0.00    -0.540 NA
ENDROOT
BRANCH   1   7
ATOM      7  N   LIG    1       -0.017   1.392   0.010  0.00  0.00    -0.820 N 
ATOM      8  H   LIG    1       -0.863   1.865   0.016  0.00  0.00    +0.410 HD
ATOM      9  H   LIG    1        0.817   1.888   0.004  0.00  0.00    +0.420 HD
ENDBRANCH   1   7
BRANCH   5  10
ATOM     10  C   LIG    1        1.708  -3.202  -0.022  0.00  0.00    +0.190 C 
BRANCH  10  11
ATOM     11  C   LIG    1        2.653  -3.072  -1.190  0.00  0.00    +0.520 C 
ATOM     12  N   LIG    1        3.596  -4.011  -1.401  0.00  0.00    -0.620 N 
ATOM     13  C   LIG    1        3.719  -5.175  -0.508  0.00  0.00    +0.250 C 
ATOM     14  C   LIG    1        3.752  -6.443  -1.369  0.00  0.00    +0.220 C 
ATOM     15  O   LIG    1        4.760  -6.304  -2.374  0.00  0.00    -0.380 OA
ATOM     16  C   LIG    1        4.527  -5.233  -3.292  0.00  0.00    +0.220 C 
ATOM     17  C   LIG    1        4.529  -3.906  -2.533  0.00  0.00    +0.260 C 
ATOM     18  O   LIG    1        2.564  -2.123  -1.939  0.00  0.00    -0.510 OA
ENDBRANCH  10  11
ENDBRANCH   5  10
TORSDOF 3
ENDMDL
MODEL     1228
REMARK  Name = ZINC000006759619
REMARK                            x       y       z     vdW  Elec       q    Type
REMARK                         _______ _______ _______ _____ _____    ______ ____
ROOT
ATOM      1  N   LIG    1        0.002  -0.004   0.002  0.00  0.00    -0.420 N 
ATOM      2  C   LIG    1        1.104  -0.767  -0.007  0.00  0.00    +0.540 C 
ATOM      3  N   LIG    1        0.852  -2.083  -0.012  0.00  0.00    -0.670 N 
ATOM      4  H   LIG    1        1.523  -2.784  -0.019  0.00  0.00    +0.450 HD
ATOM      5  C   LIG    1       -0.604  -2.294  -0.006  0.00  0.00    +0.260 C 
ATOM      6  C   LIG    1       -0.995  -3.099   1.248  0.00  0.00    -0.290 C 
ATOM      7  S   LIG    1       -1.306  -1.790   2.500  0.00  0.00    +2.380 S 
ATOM      8  C   LIG    1       -2.015  -0.607   1.286  0.00  0.00    -0.270 C 
ATOM      9  O   LIG    1       -0.070  -1.293   2.993  0.00  0.00    -0.900 OA
ATOM     10  O   LIG    1       -2.317  -2.218   3.402  0.00  0.00    -0.920 OA
ATOM     11  S   LIG    1        2.688  -0.119  -0.010  0.00  0.00    -0.610 S 
ATOM     12  C   LIG    1       -1.184  -0.874   0.009  0.00  0.00    +0.280 C 
ENDROOT
BRANCH   1  13
ATOM     13  N   LIG    1       -0.016   1.362   0.009  0.00  0.00    -0.570 NA
ATOM     14  H   LIG    1       -0.555   1.720  -0.765  0.00  0.00    +0.350 HD
ATOM     15  H   LIG    1        0.920   1.736   0.003  0.00  0.00    +0.390 HD
ENDBRANCH   1  13
TORSDOF 1
ENDMDL
MODEL     1229
REMARK  Name = ZINC000006759620
REMARK                            x       y       z     vdW  Elec       q    Type
REMARK                         _______ _______ _______ _____ _____    ______ ____
ROOT
ATOM      1  N   LIG    1        0.002  -0.004   0.002  0.00  0.00    -0.410 N 
ATOM      2  C   LIG    1        1.104  -0.767  -0.007  0.00  0.00    +0.530 C 
ATOM      3  N   LIG    1        0.852  -2.083  -0.013  0.00  0.00    -0.660 N 
ATOM      4  H   LIG    1        1.523  -2.784  -0.019  0.00  0.00    +0.450 HD
ATOM      5  C   LIG    1       -0.604  -2.294  -0.008  0.00  0.00    +0.250 C 
ATOM      6  C   LIG    1       -1.006  -3.087  -1.266  0.00  0.00    -0.290 C 
ATOM      7  S   LIG    1       -2.570  -2.272  -1.785  0.00  0.00    +2.400 S 
ATOM      8  C   LIG    1       -2.026  -0.594  -1.270  0.00  0.00    -0.300 C 
ATOM      9  O   LIG    1       -3.638  -2.709  -0.956  0.00  0.00    -0.910 OA
ATOM     10  O   LIG    1       -2.694  -2.326  -3.200  0.00  0.00    -0.910 OA
ATOM     11  S   LIG    1        2.688  -0.119  -0.009  0.00  0.00    -0.620 S 
ATOM     12  C   LIG    1       -1.184  -0.874   0.009  0.00  0.00    +0.290 C 
ENDROOT
BRANCH   1  13
ATOM     13  N   LIG    1       -0.016   1.362   0.009  0.00  0.00    -0.560 NA
ATOM     14  H   LIG    1       -0.555   1.720  -0.765  0.00  0.00    +0.350 HD
ATOM     15  H   LIG    1        0.920   1.736   0.003  0.00  0.00    +0.390 HD
ENDBRANCH   1  13
TORSDOF 1
ENDMDL
MODEL     1230
REMARK  Name = ZINC000006759621
REMARK                            x       y       z     vdW  Elec       q    Type
REMARK                         _______ _______ _______ _____ _____    ______ ____
ROOT
ATOM      1  N   LIG    1        0.002  -0.004   0.002  0.00  0.00    -0.410 N 
ATOM      2  C   LIG    1        1.101  -0.817  -0.007  0.00  0.00    +0.530 C 
ATOM      3  N   LIG    1        0.795  -2.112  -0.328  0.00  0.00    -0.660 N 
ATOM      4  H   LIG    1        1.358  -2.895  -0.224  0.00  0.00    +0.450 HD
ATOM      5  C   LIG    1       -0.538  -2.059  -0.852  0.00  0.00    +0.190 C 
ATOM      6  C   LIG    1       -1.560  -3.158  -0.854  0.00  0.00    -0.260 C 
ATOM      7  S   LIG    1       -3.157  -2.239  -0.914  0.00  0.00    +2.400 S 
ATOM      8  C   LIG    1       -2.434  -0.550  -0.724  0.00  0.00    -0.280 C 
ATOM      9  O   LIG    1       -3.930  -2.558   0.234  0.00  0.00    -0.900 OA
ATOM     10  O   LIG    1       -3.727  -2.366  -2.210  0.00  0.00    -0.910 OA
ATOM     11  S   LIG    1        2.686  -0.275   0.345  0.00  0.00    -0.560 S 
ATOM     12  C   LIG    1       -1.136  -0.895   0.008  0.00  0.00    +0.230 C 
ENDROOT
BRANCH   1  13
ATOM     13  N   LIG    1       -0.016   1.362   0.009  0.00  0.00    -0.560 NA
ATOM     14  H   LIG    1       -0.555   1.720  -0.765  0.00  0.00    +0.350 HD
ATOM     15  H   LIG    1        0.920   1.736   0.003  0.00  0.00    +0.390 HD
ENDBRANCH   1  13
TORSDOF 1
ENDMDL
MODEL     1231
REMARK  Name = ZINC000006759618
REMARK                            x       y       z     vdW  Elec       q    Type
REMARK                         _______ _______ _______ _____ _____    ______ ____
ROOT
ATOM      1  N   LIG    1        0.002  -0.004   0.002  0.00  0.00    -0.410 N 
ATOM      2  C   LIG    1        1.099  -0.823  -0.007  0.00  0.00    +0.540 C 
ATOM      3  N   LIG    1        0.788  -2.121   0.284  0.00  0.00    -0.670 N 
ATOM      4  H   LIG    1        1.346  -2.903   0.149  0.00  0.00    +0.450 HD
ATOM      5  C   LIG    1       -0.548  -2.083   0.833  0.00  0.00    +0.220 C 
ATOM      6  C   LIG    1       -1.563  -3.194   0.607  0.00  0.00    -0.280 C 
ATOM      7  S   LIG    1       -3.141  -2.288   0.926  0.00  0.00    +2.400 S 
ATOM      8  C   LIG    1       -2.499  -0.605   0.529  0.00  0.00    -0.260 C 
ATOM      9  O   LIG    1       -3.457  -2.362   2.310  0.00  0.00    -0.910 OA
ATOM     10  O   LIG    1       -4.108  -2.666  -0.043  0.00  0.00    -0.910 OA
ATOM     11  S   LIG    1        2.687  -0.279  -0.345  0.00  0.00    -0.580 S 
ATOM     12  C   LIG    1       -1.122  -0.892   0.008  0.00  0.00    +0.210 C 
ENDROOT
BRANCH   1  13
ATOM     13  N   LIG    1       -0.016   1.362   0.009  0.00  0.00    -0.560 NA
ATOM     14  H   LIG    1       -0.555   1.720  -0.765  0.00  0.00    +0.360 HD
ATOM     15  H   LIG    1        0.920   1.736   0.003  0.00  0.00    +0.390 HD
ENDBRANCH   1  13
TORSDOF 1
ENDMDL
MODEL     1232
REMARK  Name = ZINC000328599441
REMARK                            x       y       z     vdW  Elec       q    Type
REMARK                         _______ _______ _______ _____ _____    ______ ____
ROOT
ATOM      1  C   LIG    1        0.422   1.432  -0.041  0.00  0.00    +0.360 C 
ATOM      2  N   LIG    1        0.213  -0.018  -0.023  0.00  0.00    -0.540 N 
ATOM      3  C   LIG    1        0.016  -0.680  -1.177  0.00  0.00    +0.710 A 
ATOM      4  N   LIG    1       -0.179  -2.011  -1.193  0.00  0.00    -0.660 N 
ATOM      5  H   LIG    1       -0.319  -2.465  -2.038  0.00  0.00    +0.440 HD
ATOM      6  C   LIG    1       -0.181  -2.720  -0.047  0.00  0.00    +0.570 A 
ATOM      7  C   LIG    1        0.022  -2.059   1.179  0.00  0.00    -0.170 A 
ATOM      8  O   LIG    1       -0.358  -3.926  -0.072  0.00  0.00    -0.510 OA
ATOM      9  O   LIG    1        0.013  -0.064  -2.226  0.00  0.00    -0.520 OA
ATOM     10  C   LIG    1        0.226  -0.695   1.175  0.00  0.00    +0.510 A 
ENDROOT
BRANCH   7  11
ATOM     11  N   LIG    1        0.024  -2.783   2.393  0.00  0.00    -0.500 N 
ATOM     12  C   LIG    1        0.926  -3.719   2.737  0.00  0.00    +0.540 C 
ATOM     13  C   LIG    1        0.578  -4.234   4.080  0.00  0.00    +0.060 C 
ATOM     14  C   LIG    1       -0.524  -3.574   4.475  0.00  0.00    +0.050 C 
ATOM     15  O   LIG    1        1.867  -4.081   2.061  0.00  0.00    -0.430 OA
ATOM     16  C   LIG    1       -0.874  -2.636   3.384  0.00  0.00    +0.530 C 
ATOM     17  O   LIG    1       -1.815  -1.869   3.382  0.00  0.00    -0.450 OA
ENDBRANCH   7  11
BRANCH  10  18
ATOM     18  N   LIG    1        0.428  -0.019   2.354  0.00  0.00    -0.820 N 
ATOM     19  H   LIG    1        0.486   0.949   2.354  0.00  0.00    +0.410 HD
ATOM     20  H   LIG    1        0.513  -0.510   3.186  0.00  0.00    +0.420 HD
ENDBRANCH  10  18
TORSDOF 2
ENDMDL
MODEL     1233
REMARK  Name = ZINC000017288726
REMARK                            x       y       z     vdW  Elec       q    Type
REMARK                         _______ _______ _______ _____ _____    ______ ____
ROOT
ATOM      1  C   LIG    1        0.002  -0.004   0.002  0.00  0.00    +0.630 A 
ATOM      2  N   LIG    1       -1.141  -0.686   0.004  0.00  0.00    -0.630 NA
ATOM      3  C   LIG    1       -1.124  -2.007  -0.003  0.00  0.00    +0.390 A 
ATOM      4  N   LIG    1        0.027  -2.657  -0.013  0.00  0.00    -0.630 NA
ATOM      5  C   LIG    1        1.174  -1.982  -0.015  0.00  0.00    +0.630 A 
ATOM      6  N   LIG    1        1.161  -0.653  -0.013  0.00  0.00    -0.650 NA
ENDROOT
BRANCH   1   7
ATOM      7  N   LIG    1       -0.017   1.376   0.010  0.00  0.00    -0.800 N 
ATOM      8  H   LIG    1       -0.863   1.849   0.016  0.00  0.00    +0.420 HD
ATOM      9  H   LIG    1        0.817   1.872   0.004  0.00  0.00    +0.420 HD
ENDBRANCH   1   7
BRANCH   5  10
ATOM     10  N   LIG    1        2.375  -2.661  -0.025  0.00  0.00    -0.800 N 
ATOM     11  H   LIG    1        3.211  -2.169  -0.026  0.00  0.00    +0.420 HD
ATOM     12  H   LIG    1        2.384  -3.631  -0.031  0.00  0.00    +0.420 HD
ENDBRANCH   5  10
BRANCH   3  13
ATOM     13  C   LIG    1       -2.421  -2.776  -0.001  0.00  0.00    +0.350 C 
BRANCH  13  14
ATOM     14  N   LIG    1       -2.849  -3.018  -1.386  0.00  0.00    -0.510 NA
ATOM     15  C   LIG    1       -1.807  -3.732  -2.142  0.00  0.00    +0.180 C 
ATOM     16  C   LIG    1       -2.409  -4.228  -3.458  0.00  0.00    +0.270 C 
ATOM     17  N   LIG    1       -3.099  -3.134  -4.137  0.00  0.00    -0.720 N 
ATOM     18  H   LIG    1       -3.292  -3.224  -5.083  0.00  0.00    +0.400 HD
ATOM     19  C   LIG    1       -3.474  -2.013  -3.512  0.00  0.00    +0.520 C 
ATOM     20  O   LIG    1       -4.070  -1.167  -4.145  0.00  0.00    -0.550 OA
ATOM     21  C   LIG    1       -3.190  -1.758  -2.059  0.00  0.00    +0.230 C 
ENDBRANCH  13  14
ENDBRANCH   3  13
TORSDOF 4
ENDMDL
MODEL     1234
REMARK  Name = ZINC000003851428
REMARK                            x       y       z     vdW  Elec       q    Type
REMARK                         _______ _______ _______ _____ _____    ______ ____
ROOT
ATOM      1  C   LIG    1        0.705  -0.739  -0.636  0.00  0.00    +0.160 C 
ATOM      2  C   LIG    1       -0.604  -0.922  -1.410  0.00  0.00    +0.180 C 
ATOM      3  C   LIG    1       -1.349  -2.138  -0.852  0.00  0.00    +0.120 C 
ATOM      4  C   LIG    1       -0.443  -3.368  -0.943  0.00  0.00    +0.160 C 
ATOM      5  O   LIG    1        0.769  -3.120  -0.228  0.00  0.00    -0.340 OA
ATOM      6  C   LIG    1        1.533  -2.022  -0.736  0.00  0.00    +0.430 C 
ENDROOT
BRANCH   1   8
ATOM      7  C   LIG    1        0.274   0.927   1.032  0.00  0.00    +0.200 C 
ATOM      8  O   LIG    1        0.414  -0.464   0.736  0.00  0.00    -0.330 OA
ENDBRANCH   1   8
BRANCH   3   9
ATOM      9  O   LIG    1       -1.696  -1.899   0.514  0.00  0.00    -0.520 OA
ATOM     10  H   LIG    1       -2.171  -2.630   0.933  0.00  0.00    +0.370 HD
ENDBRANCH   3   9
BRANCH   2  11
ATOM     11  O   LIG    1       -1.414   0.246  -1.263  0.00  0.00    -0.540 OA
ATOM     12  H   LIG    1       -2.260   0.200  -1.729  0.00  0.00    +0.380 HD
ENDBRANCH   2  11
BRANCH   6  13
ATOM     13  O   LIG    1        2.730  -1.880   0.031  0.00  0.00    -0.360 OA
ATOM     14  C   LIG    1        3.528  -3.064   0.088  0.00  0.00    +0.230 C 
ENDBRANCH   6  13
BRANCH   6  15
ATOM     15  O   LIG    1        1.869  -2.268  -2.103  0.00  0.00    -0.410 OA
ATOM     16  C   LIG    1        2.720  -1.275  -2.680  0.00  0.00    +0.240 C 
ENDBRANCH   6  15
BRANCH   4  17
ATOM     17  C   LIG    1       -1.158  -4.575  -0.332  0.00  0.00    +0.210 C 
BRANCH  17  18
ATOM     18  O   LIG    1       -0.362  -5.747  -0.522  0.00  0.00    -0.560 OA
ATOM     19  H   LIG    1       -0.755  -6.552  -0.158  0.00  0.00    +0.380 HD
ENDBRANCH  17  18
ENDBRANCH   4  17
TORSDOF 7
ENDMDL
MODEL     1235
REMARK  Name = ZINC000019831280
REMARK                            x       y       z     vdW  Elec       q    Type
REMARK                         _______ _______ _______ _____ _____    ______ ____
ROOT
ATOM      1  C   LIG    1        1.526  -2.281  -2.655  0.00  0.00    +0.510 C 
ATOM      2  N   LIG    1        1.665  -3.603  -2.876  0.00  0.00    -0.700 N 
ATOM      3  H   LIG    1        1.312  -4.241  -2.238  0.00  0.00    +0.410 HD
ATOM      4  O   LIG    1        1.969  -1.482  -3.453  0.00  0.00    -0.520 OA
ENDROOT
BRANCH   1   7
ATOM      5  N   LIG    1        0.688  -0.476  -1.203  0.00  0.00    -0.700 N 
ATOM      6  H   LIG    1        1.042   0.162  -1.842  0.00  0.00    +0.410 HD
ATOM      7  C   LIG    1        0.827  -1.799  -1.425  0.00  0.00    +0.510 C 
ATOM      8  O   LIG    1        0.384  -2.598  -0.626  0.00  0.00    -0.520 OA
BRANCH   5  10
ATOM      9  C   LIG    1       -0.019   1.526   0.010  0.00  0.00    +0.040 C 
ATOM     10  C   LIG    1        0.002  -0.004   0.002  0.00  0.00    +0.250 C 
ENDBRANCH   5  10
ENDBRANCH   1   7
BRANCH   2  11
ATOM     11  C   LIG    1        2.351  -4.075  -4.082  0.00  0.00    +0.280 C 
BRANCH  11  12
ATOM     12  C   LIG    1        2.372  -5.605  -4.090  0.00  0.00    +0.180 C 
BRANCH  12  13
ATOM     13  N   LIG    1        3.059  -6.079  -5.299  0.00  0.00    -0.530 NA
ATOM     14  C   LIG    1        2.584  -5.361  -6.491  0.00  0.00    +0.150 C 
ATOM     15  C   LIG    1        3.367  -5.843  -7.715  0.00  0.00    +0.220 C 
ATOM     16  O   LIG    1        3.220  -7.259  -7.842  0.00  0.00    -0.380 OA
ATOM     17  C   LIG    1        3.674  -7.990  -6.699  0.00  0.00    +0.220 C 
ATOM     18  C   LIG    1        2.894  -7.530  -5.464  0.00  0.00    +0.160 C 
ENDBRANCH  12  13
ENDBRANCH  11  12
ENDBRANCH   2  11
TORSDOF 5
ENDMDL
MODEL     1236
REMARK  Name = ZINC000068604505
REMARK                            x       y       z     vdW  Elec       q    Type
REMARK                         _______ _______ _______ _____ _____    ______ ____
ROOT
ATOM      1  O   LIG    1        0.002  -0.004   0.002  0.00  0.00    -0.390 OA
ATOM      2  C   LIG    1       -0.014   1.209   0.009  0.00  0.00    +0.450 C 
ATOM      3  C   LIG    1       -1.321   1.959   0.032  0.00  0.00    +0.190 C 
ATOM      4  N   LIG    1       -2.403   1.048   0.426  0.00  0.00    -0.660 NA
ATOM      5  H   LIG    1       -3.303   1.419   0.162  0.00  0.00    +0.360 HD
ATOM      6  C   LIG    1       -2.353   0.763   1.867  0.00  0.00    +0.190 C 
ATOM      7  C   LIG    1       -1.215  -0.183   2.152  0.00  0.00    +0.450 C 
ATOM      8  N   LIG    1       -0.689  -0.218   3.413  0.00  0.00    -0.750 N 
ATOM      9  H   LIG    1       -1.022   0.343   4.130  0.00  0.00    +0.400 HD
ATOM     10  C   LIG    1        0.426  -1.174   3.606  0.00  0.00    +0.280 C 
ATOM     11  C   LIG    1        1.740  -0.465   3.270  0.00  0.00    +0.130 C 
ATOM     12  N   LIG    1        1.924  -0.438   1.813  0.00  0.00    -0.660 NA
ATOM     13  H   LIG    1        2.326  -1.302   1.483  0.00  0.00    +0.340 HD
ATOM     14  C   LIG    1        2.742   0.713   1.407  0.00  0.00    +0.130 C 
ATOM     15  C   LIG    1        2.389   1.108  -0.028  0.00  0.00    +0.270 C 
ATOM     16  O   LIG    1       -0.775  -0.901   1.278  0.00  0.00    -0.390 OA
ATOM     17  N   LIG    1        1.152   1.921   0.001  0.00  0.00    -0.750 N 
ATOM     18  H   LIG    1        1.168   2.891   0.010  0.00  0.00    +0.400 HD
ENDROOT
TORSDOF 0
ENDMDL
MODEL     1237
REMARK  Name = ZINC000001579627
REMARK                            x       y       z     vdW  Elec       q    Type
REMARK                         _______ _______ _______ _____ _____    ______ ____
ROOT
ATOM      1  N   LIG    1       -1.372  -0.511   0.012  0.00  0.00    -0.710 N 
ATOM      2  H   LIG    1       -1.794  -0.752   0.852  0.00  0.00    +0.420 HD
ATOM      3  C   LIG    1       -2.051  -0.643  -1.145  0.00  0.00    +0.520 C 
ATOM      4  O   LIG    1       -1.524  -0.341  -2.194  0.00  0.00    -0.540 OA
ENDROOT
BRANCH   1   6
ATOM      5  C   LIG    1       -0.019   1.526   0.010  0.00  0.00    +0.060 C 
ATOM      6  C   LIG    1        0.002  -0.004   0.002  0.00  0.00    +0.240 C 
BRANCH   6   7
ATOM      7  C   LIG    1        0.731  -0.503   1.223  0.00  0.00    +0.520 C 
ATOM      8  O   LIG    1        0.159  -1.213   2.023  0.00  0.00    -0.540 OA
ATOM      9  N   LIG    1        2.019  -0.161   1.426  0.00  0.00    -0.850 N 
ATOM     10  H   LIG    1        2.488  -0.483   2.212  0.00  0.00    +0.410 HD
ATOM     11  H   LIG    1        2.476   0.406   0.786  0.00  0.00    +0.410 HD
ENDBRANCH   6   7
ENDBRANCH   1   6
BRANCH   3  12
ATOM     12  C   LIG    1       -3.465  -1.164  -1.134  0.00  0.00    +0.300 C 
BRANCH  12  13
ATOM     13  N   LIG    1       -3.978  -1.213  -2.505  0.00  0.00    -0.720 N 
ATOM     14  H   LIG    1       -3.416  -0.931  -3.244  0.00  0.00    +0.410 HD
ATOM     15  C   LIG    1       -5.231  -1.650  -2.741  0.00  0.00    +0.510 C 
ATOM     16  O   LIG    1       -5.933  -2.003  -1.818  0.00  0.00    -0.520 OA
BRANCH  15  17
ATOM     17  C   LIG    1       -5.758  -1.700  -4.152  0.00  0.00    +0.220 C 
BRANCH  17  18
ATOM     18  N   LIG    1       -7.136  -2.209  -4.141  0.00  0.00    -0.830 NA
ATOM     19  H   LIG    1       -7.513  -2.252  -5.077  0.00  0.00    +0.350 HD
ATOM     20  H   LIG    1       -7.723  -1.650  -3.541  0.00  0.00    +0.350 HD
ENDBRANCH  17  18
ENDBRANCH  15  17
ENDBRANCH  12  13
ENDBRANCH   3  12
TORSDOF 6
ENDMDL
MODEL     1238
REMARK  Name = ZINC000002712780
REMARK                            x       y       z     vdW  Elec       q    Type
REMARK                         _______ _______ _______ _____ _____    ______ ____
ROOT
ATOM      1  C   LIG    1        1.117  -4.031  -2.423  0.00  0.00    -0.110 C 
ATOM      2  C   LIG    1        1.592  -4.683  -3.501  0.00  0.00    +0.190 C 
ATOM      3  C   LIG    1        1.414  -6.179  -3.656  0.00  0.00    +0.170 C 
ATOM      4  C   LIG    1        2.691  -6.738  -4.239  0.00  0.00    +0.530 C 
ATOM      5  N   LIG    1        3.468  -5.961  -5.015  0.00  0.00    -0.670 N 
ATOM      6  H   LIG    1        4.244  -6.354  -5.445  0.00  0.00    +0.430 HD
ATOM      7  C   LIG    1        3.205  -4.660  -5.212  0.00  0.00    +0.710 C 
ATOM      8  O   LIG    1        3.838  -4.050  -6.051  0.00  0.00    -0.530 OA
ATOM      9  O   LIG    1        3.014  -7.884  -4.008  0.00  0.00    -0.480 OA
ATOM     10  N   LIG    1        2.254  -4.012  -4.509  0.00  0.00    -0.640 N 
ATOM     11  H   LIG    1        2.045  -3.085  -4.706  0.00  0.00    +0.440 HD
ENDROOT
BRANCH   1  14
ATOM     12  N   LIG    1        0.844  -1.977  -1.224  0.00  0.00    -0.720 N 
ATOM     13  H   LIG    1        0.232  -2.426  -0.620  0.00  0.00    +0.410 HD
ATOM     14  C   LIG    1        1.413  -2.658  -2.238  0.00  0.00    +0.550 C 
ATOM     15  O   LIG    1        2.182  -2.094  -2.995  0.00  0.00    -0.550 OA
BRANCH  12  16
ATOM     16  C   LIG    1        1.150  -0.557  -1.032  0.00  0.00    +0.240 C 
BRANCH  16  18
ATOM     17  C   LIG    1        0.601   1.481   0.305  0.00  0.00    +0.020 C 
ATOM     18  C   LIG    1        0.380  -0.028   0.179  0.00  0.00    +0.200 C 
BRANCH  18  19
ATOM     19  O   LIG    1        0.848  -0.678   1.362  0.00  0.00    -0.560 OA
ATOM     20  H   LIG    1        1.788  -0.542   1.541  0.00  0.00    +0.380 HD
ENDBRANCH  18  19
ENDBRANCH  16  18
ENDBRANCH  12  16
ENDBRANCH   1  14
TORSDOF 4
ENDMDL
MODEL     1239
REMARK  Name = ZINC000048048420
REMARK                            x       y       z     vdW  Elec       q    Type
REMARK                         _______ _______ _______ _____ _____    ______ ____
ROOT
ATOM      1  N   LIG    1       -2.797  -2.667  -0.046  0.00  0.00    -0.490 NA
ENDROOT
BRANCH   1   2
ATOM      2  C   LIG    1       -1.559  -2.115   0.519  0.00  0.00    +0.190 C 
BRANCH   2   3
ATOM      3  C   LIG    1       -1.763  -0.634   0.843  0.00  0.00    +0.010 C 
BRANCH   3   5
ATOM      4  C   LIG    1       -0.677   1.423   1.756  0.00  0.00    +0.010 C 
ATOM      5  C   LIG    1       -0.473  -0.058   1.432  0.00  0.00    +0.000 C 
ENDBRANCH   3   5
ENDBRANCH   2   3
ENDBRANCH   1   2
BRANCH   1   6
ATOM      6  C   LIG    1       -2.722  -4.131  -0.150  0.00  0.00    +0.230 C 
BRANCH   6   7
ATOM      7  C   LIG    1       -4.108  -4.694  -0.327  0.00  0.00    +0.510 C 
ATOM      8  N   LIG    1       -4.275  -6.007  -0.580  0.00  0.00    -0.690 N 
ATOM      9  H   LIG    1       -3.502  -6.590  -0.648  0.00  0.00    +0.410 HD
ATOM     10  C   LIG    1       -5.514  -6.511  -0.739  0.00  0.00    +0.700 C 
ATOM     11  O   LIG    1       -6.482  -5.781  -0.653  0.00  0.00    -0.530 OA
ATOM     12  N   LIG    1       -5.681  -7.824  -0.992  0.00  0.00    -0.860 N 
ATOM     13  H   LIG    1       -6.574  -8.187  -1.106  0.00  0.00    +0.420 HD
ATOM     14  H   LIG    1       -4.909  -8.407  -1.060  0.00  0.00    +0.400 HD
ATOM     15  O   LIG    1       -5.074  -3.966  -0.242  0.00  0.00    -0.450 OA
ENDBRANCH   6   7
ENDBRANCH   1   6
BRANCH   1  16
ATOM     16  C   LIG    1       -3.096  -2.062  -1.351  0.00  0.00    +0.250 C 
BRANCH  16  17
ATOM     17  C   LIG    1       -1.975  -2.362  -2.313  0.00  0.00    +0.490 C 
ATOM     18  O   LIG    1       -1.039  -3.047  -1.958  0.00  0.00    -0.550 OA
ATOM     19  N   LIG    1       -2.013  -1.870  -3.567  0.00  0.00    -0.850 N 
ATOM     20  H   LIG    1       -1.292  -2.064  -4.186  0.00  0.00    +0.400 HD
ATOM     21  H   LIG    1       -2.762  -1.323  -3.850  0.00  0.00    +0.400 HD
ENDBRANCH  16  17
ENDBRANCH   1  16
TORSDOF 7
ENDMDL
MODEL     1240
REMARK  Name = ZINC000002712782
REMARK                            x       y       z     vdW  Elec       q    Type
REMARK                         _______ _______ _______ _____ _____    ______ ____
ROOT
ATOM      1  C   LIG    1       -2.552  -4.105   0.004  0.00  0.00    -0.110 C 
ATOM      2  C   LIG    1       -3.703  -4.795   0.113  0.00  0.00    +0.190 C 
ATOM      3  C   LIG    1       -3.707  -6.304   0.227  0.00  0.00    +0.170 C 
ATOM      4  C   LIG    1       -4.861  -6.828  -0.597  0.00  0.00    +0.530 C 
ATOM      5  N   LIG    1       -5.947  -6.058  -0.790  0.00  0.00    -0.670 N 
ATOM      6  H   LIG    1       -6.712  -6.433  -1.254  0.00  0.00    +0.430 HD
ATOM      7  C   LIG    1       -6.007  -4.788  -0.361  0.00  0.00    +0.710 C 
ATOM      8  O   LIG    1       -7.067  -4.197  -0.411  0.00  0.00    -0.530 OA
ATOM      9  O   LIG    1       -4.808  -7.938  -1.082  0.00  0.00    -0.480 OA
ATOM     10  N   LIG    1       -4.924  -4.151   0.131  0.00  0.00    -0.640 N 
ATOM     11  H   LIG    1       -5.003  -3.251   0.485  0.00  0.00    +0.440 HD
ENDROOT
BRANCH   1  14
ATOM     12  N   LIG    1       -1.437  -1.999  -0.228  0.00  0.00    -0.720 N 
ATOM     13  H   LIG    1       -0.592  -2.444  -0.059  0.00  0.00    +0.410 HD
ATOM     14  C   LIG    1       -2.582  -2.709  -0.235  0.00  0.00    +0.550 C 
ATOM     15  O   LIG    1       -3.643  -2.150  -0.447  0.00  0.00    -0.550 OA
BRANCH  12  16
ATOM     16  C   LIG    1       -1.468  -0.555  -0.476  0.00  0.00    +0.240 C 
BRANCH  16  18
ATOM     17  C   LIG    1       -0.078   1.512  -0.672  0.00  0.00    +0.020 C 
ATOM     18  C   LIG    1       -0.045   0.004  -0.413  0.00  0.00    +0.200 C 
BRANCH  18  19
ATOM     19  O   LIG    1        0.507  -0.245   0.881  0.00  0.00    -0.560 OA
ATOM     20  H   LIG    1        0.010   0.158   1.605  0.00  0.00    +0.380 HD
ENDBRANCH  18  19
ENDBRANCH  16  18
ENDBRANCH  12  16
ENDBRANCH   1  14
TORSDOF 4
ENDMDL
MODEL     1241
REMARK  Name = ZINC000098210273
REMARK                            x       y       z     vdW  Elec       q    Type
REMARK                         _______ _______ _______ _____ _____    ______ ____
ROOT
ATOM      1  C   LIG    1        1.106   4.108  -1.249  0.00  0.00    +0.180 C 
ENDROOT
BRANCH   1   7
ATOM      2  O   LIG    1        0.002  -0.004   0.002  0.00  0.00    -0.540 OA
ATOM      3  C   LIG    1       -0.014   1.211   0.009  0.00  0.00    +0.700 C 
ATOM      4  N   LIG    1       -1.136   1.940   0.029  0.00  0.00    -0.680 N 
ATOM      5  H   LIG    1       -2.030   1.563   0.040  0.00  0.00    +0.440 HD
ATOM      6  C   LIG    1       -0.871   3.261   0.032  0.00  0.00    +0.530 C 
ATOM      7  C   LIG    1        0.640   3.376   0.011  0.00  0.00    +0.240 C 
ATOM      8  O   LIG    1       -1.674   4.169   0.049  0.00  0.00    -0.460 OA
ATOM      9  N   LIG    1        1.094   1.974   0.002  0.00  0.00    -0.720 N 
ATOM     10  H   LIG    1        2.012   1.662  -0.011  0.00  0.00    +0.440 HD
ENDBRANCH   1   7
BRANCH   1  11
ATOM     11  C   LIG    1        2.598   4.317  -1.186  0.00  0.00    -0.030 A 
ATOM     12  C   LIG    1        3.508   3.939  -2.114  0.00  0.00    +0.160 A 
ATOM     13  N   LIG    1        4.714   4.329  -1.639  0.00  0.00    -0.290 N 
ATOM     14  N   LIG    1        4.533   4.902  -0.501  0.00  0.00    -0.080 NA
ATOM     15  N   LIG    1        3.281   4.916  -0.205  0.00  0.00    -0.260 NA
BRANCH  13  16
ATOM     16  C   LIG    1        6.003   4.133  -2.307  0.00  0.00    +0.340 C 
BRANCH  16  17
ATOM     17  C   LIG    1        6.712   5.481  -2.452  0.00  0.00    +0.200 C 
BRANCH  17  18
ATOM     18  O   LIG    1        7.970   5.289  -3.103  0.00  0.00    -0.570 OA
ATOM     19  H   LIG    1        8.476   6.104  -3.229  0.00  0.00    +0.400 HD
ENDBRANCH  17  18
ENDBRANCH  16  17
ENDBRANCH  13  16
ENDBRANCH   1  11
TORSDOF 5
ENDMDL
MODEL     1242
REMARK  Name = ZINC000080570586
REMARK                            x       y       z     vdW  Elec       q    Type
REMARK                         _______ _______ _______ _____ _____    ______ ____
ROOT
ATOM      1  C   LIG    1       -0.019   1.526   0.010  0.00  0.00    +0.060 C 
ATOM      2  C   LIG    1        0.002  -0.004   0.002  0.00  0.00    +0.130 C 
ATOM      3  O   LIG    1       -1.342  -0.511   0.052  0.00  0.00    -0.320 OA
ATOM      4  C   LIG    1       -1.302  -1.734   0.819  0.00  0.00    +0.450 C 
ATOM      5  C   LIG    1       -0.315  -1.409   1.968  0.00  0.00    +0.170 C 
ATOM      6  C   LIG    1        0.739  -0.525   1.251  0.00  0.00    +0.130 C 
ENDROOT
BRANCH   4   7
ATOM      7  N   LIG    1       -2.630  -2.054   1.350  0.00  0.00    -0.520 N 
ATOM      8  C   LIG    1       -2.797  -3.162   2.138  0.00  0.00    +0.340 A 
ATOM      9  C   LIG    1       -4.022  -3.456   2.627  0.00  0.00    -0.070 A 
ATOM     10  C   LIG    1       -5.111  -2.606   2.312  0.00  0.00    +0.540 A 
ATOM     11  N   LIG    1       -4.904  -1.525   1.533  0.00  0.00    -0.650 N 
ATOM     12  H   LIG    1       -5.645  -0.939   1.313  0.00  0.00    +0.440 HD
ATOM     13  O   LIG    1       -6.225  -2.849   2.742  0.00  0.00    -0.490 OA
ATOM     14  F   LIG    1       -4.205  -4.544   3.406  0.00  0.00    -0.100 F 
ATOM     15  C   LIG    1       -3.673  -1.253   1.063  0.00  0.00    +0.690 A 
ATOM     16  O   LIG    1       -3.502  -0.274   0.362  0.00  0.00    -0.490 OA
ENDBRANCH   4   7
BRANCH   5  17
ATOM     17  O   LIG    1       -0.968  -0.683   3.011  0.00  0.00    -0.540 OA
ATOM     18  H   LIG    1       -0.392  -0.456   3.754  0.00  0.00    +0.390 HD
ENDBRANCH   5  17
BRANCH   6  19
ATOM     19  O   LIG    1        1.877  -1.306   0.880  0.00  0.00    -0.550 OA
ATOM     20  H   LIG    1        2.568  -0.803   0.427  0.00  0.00    +0.390 HD
ENDBRANCH   6  19
TORSDOF 3
ENDMDL
MODEL     1243
REMARK  Name = ZINC000038007993
REMARK                            x       y       z     vdW  Elec       q    Type
REMARK                         _______ _______ _______ _____ _____    ______ ____
ROOT
ATOM      1  N   LIG    1        1.412  -0.251   2.990  0.00  0.00    -0.650 NA
ATOM      2  H   LIG    1        1.935  -1.102   2.847  0.00  0.00    +0.360 HD
ENDROOT
BRANCH   1   3
ATOM      3  C   LIG    1        1.453   0.163   4.399  0.00  0.00    +0.200 C 
ATOM      4  C   LIG    1        2.793   0.856   4.722  0.00  0.00    +0.110 C 
ATOM      5  C   LIG    1        3.406  -0.035   5.781  0.00  0.00    +0.530 C 
ATOM      6  N   LIG    1        2.578  -1.057   6.030  0.00  0.00    -0.680 N 
ATOM      7  H   LIG    1        2.779  -1.749   6.679  0.00  0.00    +0.420 HD
ATOM      8  O   LIG    1        4.477   0.149   6.318  0.00  0.00    -0.480 OA
ATOM      9  C   LIG    1        1.446  -1.045   5.309  0.00  0.00    +0.500 C 
ATOM     10  O   LIG    1        0.562  -1.872   5.377  0.00  0.00    -0.470 OA
ENDBRANCH   1   3
BRANCH   1  11
ATOM     11  C   LIG    1        0.026  -0.400   2.526  0.00  0.00    +0.330 C 
BRANCH  11  17
ATOM     12  C   LIG    1       -0.018   1.461   0.010  0.00  0.00    +0.340 C 
ATOM     13  N   LIG    1        0.002  -0.004   0.002  0.00  0.00    -0.470 N 
ATOM     14  C   LIG    1        0.009  -0.813  -1.085  0.00  0.00    +0.380 A 
ATOM     15  N   LIG    1        0.027  -2.044  -0.652  0.00  0.00    -0.300 NA
ATOM     16  N   LIG    1        0.032  -2.051   0.634  0.00  0.00    -0.280 NA
ATOM     17  C   LIG    1        0.024  -0.825   1.080  0.00  0.00    +0.170 A 
ENDBRANCH  11  17
ENDBRANCH   1  11
TORSDOF 3
ENDMDL
MODEL     1244
REMARK  Name = ZINC000013831596
REMARK                            x       y       z     vdW  Elec       q    Type
REMARK                         _______ _______ _______ _____ _____    ______ ____
ROOT
ATOM      1  C   LIG    1        0.002  -0.004   0.002  0.00  0.00    +0.640 A 
ATOM      2  N   LIG    1       -1.137  -0.656   0.004  0.00  0.00    -0.550 NA
ATOM      3  C   LIG    1       -1.165  -2.003  -0.004  0.00  0.00    +0.340 A 
ATOM      4  C   LIG    1        0.040  -2.712  -0.014  0.00  0.00    -0.190 A 
ATOM      5  N   LIG    1       -0.301  -4.051  -0.020  0.00  0.00    -0.430 N 
ATOM      6  C   LIG    1       -1.649  -4.116  -0.013  0.00  0.00    +0.530 A 
ATOM      7  C   LIG    1        1.251  -2.000  -0.016  0.00  0.00    +0.590 A 
ATOM      8  O   LIG    1        2.320  -2.587  -0.025  0.00  0.00    -0.540 OA
ATOM      9  N   LIG    1       -2.155  -2.912  -0.004  0.00  0.00    -0.490 NA
ATOM     10  N   LIG    1        1.203  -0.649  -0.013  0.00  0.00    -0.650 N 
ATOM     11  H   LIG    1        2.027  -0.137  -0.015  0.00  0.00    +0.420 HD
ENDROOT
BRANCH   1  12
ATOM     12  N   LIG    1       -0.017   1.369   0.010  0.00  0.00    -0.820 N 
ATOM     13  H   LIG    1       -0.863   1.842   0.016  0.00  0.00    +0.430 HD
ATOM     14  H   LIG    1        0.817   1.865   0.004  0.00  0.00    +0.420 HD
ENDBRANCH   1  12
BRANCH   5  15
ATOM     15  C   LIG    1        0.625  -5.185  -0.031  0.00  0.00    +0.460 C 
BRANCH  15  16
ATOM     16  O   LIG    1       -0.117  -6.406  -0.034  0.00  0.00    -0.390 OA
BRANCH  16  17
ATOM     17  C   LIG    1        0.697  -7.581  -0.044  0.00  0.00    +0.210 C 
BRANCH  17  18
ATOM     18  C   LIG    1       -0.198  -8.822  -0.047  0.00  0.00    +0.210 C 
BRANCH  18  19
ATOM     19  O   LIG    1       -0.944  -8.868  -1.265  0.00  0.00    -0.570 OA
ATOM     20  H   LIG    1       -1.534  -9.630  -1.336  0.00  0.00    +0.380 HD
ENDBRANCH  18  19
ENDBRANCH  17  18
ENDBRANCH  16  17
ENDBRANCH  15  16
ENDBRANCH   5  15
TORSDOF 6
ENDMDL
MODEL     1245
REMARK  Name = ZINC000008098573
REMARK                            x       y       z     vdW  Elec       q    Type
REMARK                         _______ _______ _______ _____ _____    ______ ____
ROOT
ATOM      1  C   LIG    1       -0.016  -4.213  -0.021  0.00  0.00    +0.250 C 
ATOM      2  O   LIG    1        0.791  -4.718   1.056  0.00  0.00    -0.340 OA
ATOM      3  C   LIG    1        1.398  -5.942   0.590  0.00  0.00    +0.140 C 
ATOM      4  C   LIG    1        1.781  -5.620  -0.877  0.00  0.00    +0.140 C 
ATOM      5  C   LIG    1        0.591  -4.737  -1.337  0.00  0.00    +0.180 C 
ENDROOT
BRANCH   1   9
ATOM      6  C   LIG    1        0.002  -0.004   0.002  0.00  0.00    +0.640 A 
ATOM      7  N   LIG    1       -1.137  -0.667   0.004  0.00  0.00    -0.590 NA
ATOM      8  C   LIG    1       -1.164  -1.998  -0.003  0.00  0.00    +0.400 A 
ATOM      9  C   LIG    1        0.003  -2.706  -0.013  0.00  0.00    -0.320 A 
ATOM     10  C   LIG    1        1.222  -2.006  -0.015  0.00  0.00    +0.550 A 
ATOM     11  O   LIG    1        2.284  -2.607  -0.024  0.00  0.00    -0.530 OA
ATOM     12  N   LIG    1        1.196  -0.656  -0.013  0.00  0.00    -0.650 N 
ATOM     13  H   LIG    1        2.025  -0.153  -0.014  0.00  0.00    +0.410 HD
BRANCH   6  14
ATOM     14  N   LIG    1       -0.017   1.365   0.009  0.00  0.00    -0.820 N 
ATOM     15  H   LIG    1       -0.863   1.838   0.016  0.00  0.00    +0.430 HD
ATOM     16  H   LIG    1        0.817   1.861   0.004  0.00  0.00    +0.420 HD
ENDBRANCH   6  14
ENDBRANCH   1   9
BRANCH   4  17
ATOM     17  O   LIG    1        1.860  -6.814  -1.658  0.00  0.00    -0.550 OA
ATOM     18  H   LIG    1        2.530  -7.440  -1.352  0.00  0.00    +0.380 HD
ENDBRANCH   4  17
BRANCH   5  19
ATOM     19  O   LIG    1       -0.363  -5.519  -2.059  0.00  0.00    -0.550 OA
ATOM     20  H   LIG    1       -0.012  -5.920  -2.866  0.00  0.00    +0.390 HD
ENDBRANCH   5  19
BRANCH   3  21
ATOM     21  C   LIG    1        2.644  -6.274   1.414  0.00  0.00    +0.200 C 
BRANCH  21  22
ATOM     22  O   LIG    1        2.259  -6.579   2.756  0.00  0.00    -0.560 OA
ATOM     23  H   LIG    1        3.000  -6.800   3.337  0.00  0.00    +0.380 HD
ENDBRANCH  21  22
ENDBRANCH   3  21
TORSDOF 6
ENDMDL
MODEL     1246
REMARK  Name = ZINC000008214625
REMARK                            x       y       z     vdW  Elec       q    Type
REMARK                         _______ _______ _______ _____ _____    ______ ____
ROOT
ATOM      1  C   LIG    1       -3.667   1.899   0.030  0.00  0.00    +0.220 C 
ENDROOT
BRANCH   1   2
ATOM      2  C   LIG    1       -2.395   1.050   0.019  0.00  0.00    +0.250 C 
BRANCH   2   3
ATOM      3  O   LIG    1       -1.250   1.905   0.018  0.00  0.00    -0.220 OA
BRANCH   3   5
ATOM      4  O   LIG    1        0.002  -0.004   0.002  0.00  0.00    -0.120 OA
ATOM      5  N   LIG    1       -0.014   1.214   0.009  0.00  0.00    +0.120 N 
ATOM      6  O   LIG    1        1.032   1.837   0.002  0.00  0.00    -0.040 OA
ENDBRANCH   3   5
ENDBRANCH   2   3
ENDBRANCH   1   2
BRANCH   1   7
ATOM      7  O   LIG    1       -3.741   2.631   1.255  0.00  0.00    -0.220 OA
BRANCH   7   8
ATOM      8  N   LIG    1       -3.027   3.854   1.240  0.00  0.00    +0.120 N 
ATOM      9  O   LIG    1       -3.016   4.565   2.229  0.00  0.00    -0.050 OA
ATOM     10  O   LIG    1       -2.423   4.194   0.238  0.00  0.00    -0.100 OA
ENDBRANCH   7   8
ENDBRANCH   1   7
BRANCH   1  11
ATOM     11  C   LIG    1       -4.890   0.989  -0.095  0.00  0.00    +0.300 C 
BRANCH  11  12
ATOM     12  O   LIG    1       -6.070   1.788  -0.202  0.00  0.00    -0.220 OA
BRANCH  12  13
ATOM     13  N   LIG    1       -7.264   1.037  -0.323  0.00  0.00    +0.130 N 
ATOM     14  O   LIG    1       -8.335   1.609  -0.422  0.00  0.00    -0.050 OA
ATOM     15  O   LIG    1       -7.221  -0.180  -0.329  0.00  0.00    -0.110 OA
ENDBRANCH  12  13
ENDBRANCH  11  12
ENDBRANCH   1  11
TORSDOF 8
ENDMDL
MODEL     1247
REMARK  Name = ZINC000000402058
REMARK                            x       y       z     vdW  Elec       q    Type
REMARK                         _______ _______ _______ _____ _____    ______ ____
ROOT
ATOM      1  C   LIG    1       -0.018   1.461   0.010  0.00  0.00    +0.360 C 
ATOM      2  N   LIG    1        0.002  -0.004   0.002  0.00  0.00    -0.550 N 
ATOM      3  C   LIG    1        0.005  -0.664  -1.176  0.00  0.00    +0.560 A 
ATOM      4  C   LIG    1        0.026  -2.135  -1.156  0.00  0.00    +0.000 A 
ATOM      5  C   LIG    1        0.041  -2.780   0.072  0.00  0.00    +0.300 A 
ATOM      6  N   LIG    1        0.036  -2.015   1.227  0.00  0.00    -0.520 N 
ATOM      7  C   LIG    1        0.052  -2.678   2.533  0.00  0.00    +0.370 C 
ATOM      8  N   LIG    1        0.060  -4.115   0.144  0.00  0.00    -0.430 NA
ATOM      9  C   LIG    1        0.064  -4.848  -0.939  0.00  0.00    +0.380 A 
ATOM     10  C   LIG    1        0.050  -4.205  -2.257  0.00  0.00    +0.470 A 
ATOM     11  O   LIG    1        0.054  -4.876  -3.275  0.00  0.00    -0.500 OA
ATOM     12  N   LIG    1        0.030  -2.855  -2.324  0.00  0.00    -0.560 N 
ATOM     13  H   LIG    1        0.020  -2.403  -3.182  0.00  0.00    +0.430 HD
ATOM     14  O   LIG    1       -0.008  -0.056  -2.229  0.00  0.00    -0.480 OA
ATOM     15  C   LIG    1        0.022  -0.673   1.166  0.00  0.00    +0.700 A 
ATOM     16  O   LIG    1        0.018  -0.040   2.205  0.00  0.00    -0.520 OA
ENDROOT
TORSDOF 0
ENDMDL
MODEL     1248
REMARK  Name = ZINC000037269244
REMARK                            x       y       z     vdW  Elec       q    Type
REMARK                         _______ _______ _______ _____ _____    ______ ____
ROOT
ATOM      1  C   LIG    1        0.222   1.445  -0.003  0.00  0.00    +0.290 C 
ATOM      2  N   LIG    1        0.116  -0.016  -0.007  0.00  0.00    -0.600 N 
ATOM      3  C   LIG    1       -0.102  -0.673  -1.163  0.00  0.00    +0.580 C 
ATOM      4  O   LIG    1       -0.280  -1.876  -1.155  0.00  0.00    -0.520 OA
ENDROOT
BRANCH   3   5
ATOM      5  C   LIG    1       -0.124   0.067  -2.439  0.00  0.00    -0.230 A 
ATOM      6  C   LIG    1        1.057   0.432  -3.051  0.00  0.00    +0.350 A 
ATOM      7  N   LIG    1        1.042   1.107  -4.216  0.00  0.00    -0.600 N 
ATOM      8  H   LIG    1        1.880   1.357  -4.634  0.00  0.00    +0.420 HD
ATOM      9  C   LIG    1       -0.119   1.442  -4.808  0.00  0.00    +0.520 A 
ATOM     10  C   LIG    1       -1.349   1.090  -4.220  0.00  0.00    -0.070 A 
ATOM     11  O   LIG    1       -0.106   2.054  -5.863  0.00  0.00    -0.540 OA
ATOM     12  C   LIG    1       -1.358   0.403  -3.047  0.00  0.00    +0.150 A 
ENDBRANCH   3   5
BRANCH   2  13
ATOM     13  C   LIG    1        0.247  -0.763   1.246  0.00  0.00    +0.320 C 
BRANCH  13  14
ATOM     14  C   LIG    1       -1.110  -0.918   1.883  0.00  0.00    +0.500 C 
ATOM     15  O   LIG    1       -2.090  -0.451   1.343  0.00  0.00    -0.530 OA
ATOM     16  N   LIG    1       -1.234  -1.577   3.052  0.00  0.00    -0.850 N 
ATOM     17  H   LIG    1       -2.108  -1.676   3.462  0.00  0.00    +0.400 HD
ATOM     18  H   LIG    1       -0.451  -1.950   3.484  0.00  0.00    +0.400 HD
ENDBRANCH  13  14
ENDBRANCH   2  13
TORSDOF 3
ENDMDL
MODEL     1249
REMARK  Name = ZINC000000192455
REMARK                            x       y       z     vdW  Elec       q    Type
REMARK                         _______ _______ _______ _____ _____    ______ ____
ROOT
ATOM      1  O   LIG    1        0.002  -0.004   0.002  0.00  0.00    -0.540 OA
ATOM      2  C   LIG    1       -0.014   1.209   0.009  0.00  0.00    +0.530 C 
ATOM      3  N   LIG    1        1.143   1.898   0.001  0.00  0.00    -0.710 N 
ATOM      4  H   LIG    1        1.130   2.868   0.007  0.00  0.00    +0.420 HD
ENDROOT
BRANCH   2   5
ATOM      5  C   LIG    1       -1.330   1.944   0.019  0.00  0.00    +0.000 C 
ATOM      6  C   LIG    1       -2.478   0.932   0.023  0.00  0.00    +0.060 C 
ATOM      7  C   LIG    1       -3.788   1.685  -0.243  0.00  0.00    +0.030 C 
ATOM      8  C   LIG    1       -3.765   2.213  -1.678  0.00  0.00    +0.250 C 
ATOM      9  N   LIG    1       -2.528   2.941  -1.934  0.00  0.00    -0.710 N 
ATOM     10  H   LIG    1       -2.508   3.553  -2.687  0.00  0.00    +0.410 HD
ATOM     11  C   LIG    1       -1.423   2.816  -1.200  0.00  0.00    +0.530 C 
ATOM     12  O   LIG    1       -0.439   3.442  -1.533  0.00  0.00    -0.550 OA
ENDBRANCH   2   5
BRANCH   3  13
ATOM     13  C   LIG    1        2.422   1.183  -0.015  0.00  0.00    +0.250 C 
BRANCH  13  14
ATOM     14  C   LIG    1        3.571   2.193  -0.020  0.00  0.00    +0.220 C 
BRANCH  14  15
ATOM     15  O   LIG    1        3.565   2.929   1.205  0.00  0.00    -0.550 OA
ATOM     16  H   LIG    1        3.671   2.380   1.994  0.00  0.00    +0.380 HD
ENDBRANCH  14  15
BRANCH  14  17
ATOM     17  C   LIG    1        4.902   1.451  -0.163  0.00  0.00    +0.160 C 
BRANCH  17  18
ATOM     18  O   LIG    1        5.965   2.398  -0.285  0.00  0.00    -0.560 OA
ATOM     19  H   LIG    1        6.840   1.997  -0.379  0.00  0.00    +0.380 HD
ENDBRANCH  17  18
ENDBRANCH  14  17
ENDBRANCH  13  14
ENDBRANCH   3  13
TORSDOF 6
ENDMDL
MODEL     1250
REMARK  Name = ZINC000001482063
REMARK                            x       y       z     vdW  Elec       q    Type
REMARK                         _______ _______ _______ _____ _____    ______ ____
ROOT
ATOM      1  C1* LIG    1        0.085  -4.133  -0.021  0.00  0.00    +0.410 C 
ATOM      2  O4* LIG    1       -1.256  -4.663  -0.088  0.00  0.00    -0.300 OA
ATOM      3  C4* LIG    1       -1.107  -6.012  -0.582  0.00  0.00    +0.130 C 
ATOM      4  C3* LIG    1       -0.025  -5.913  -1.680  0.00  0.00    +0.140 C 
ATOM      5  C2* LIG    1        0.781  -4.648  -1.301  0.00  0.00    +0.170 C 
ENDROOT
BRANCH   1   9
ATOM      6  C   LIG    1        0.002  -0.004   0.002  0.00  0.00    +0.630 A 
ATOM      7  N   LIG    1       -1.139  -0.678   0.004  0.00  0.00    -0.640 NA
ATOM      8  C   LIG    1       -1.126  -2.014  -0.004  0.00  0.00    +0.650 A 
ATOM      9  N   LIG    1        0.054  -2.668  -0.013  0.00  0.00    -0.550 N 
ATOM     10  C   LIG    1        1.207  -1.963  -0.014  0.00  0.00    +0.670 A 
ATOM     11  O   LIG    1       -2.173  -2.638  -0.002  0.00  0.00    -0.490 OA
ATOM     12  N   LIG    1        1.174  -0.654  -0.013  0.00  0.00    -0.600 NA
BRANCH   6  13
ATOM     13  N   LIG    1       -0.017   1.368   0.010  0.00  0.00    -0.790 N 
ATOM     14  H   LIG    1       -0.863   1.842   0.016  0.00  0.00    +0.420 HD
ATOM     15  H   LIG    1        0.817   1.865   0.004  0.00  0.00    +0.420 HD
ENDBRANCH   6  13
ENDBRANCH   1   9
BRANCH   4  16
ATOM     16  O3* LIG    1        0.817  -7.068  -1.659  0.00  0.00    -0.550 OA
ATOM     17  H3* LIG    1        0.350  -7.898  -1.831  0.00  0.00    +0.390 HD
ENDBRANCH   4  16
BRANCH   5  18
ATOM     18  O2* LIG    1        0.701  -3.673  -2.343  0.00  0.00    -0.540 OA
ATOM     19  H2* LIG    1        1.068  -3.969  -3.187  0.00  0.00    +0.390 HD
ENDBRANCH   5  18
BRANCH   3  20
ATOM     20  C5* LIG    1       -2.427  -6.511  -1.176  0.00  0.00    +0.210 C 
BRANCH  20  21
ATOM     21  O5* LIG    1       -3.399  -6.636  -0.136  0.00  0.00    -0.560 OA
ATOM     22  H5* LIG    1       -4.262  -6.949  -0.441  0.00  0.00    +0.380 HD
ENDBRANCH  20  21
ENDBRANCH   3  20
TORSDOF 6
ENDMDL
MODEL     1251
REMARK  Name = ZINC000000242262
REMARK                            x       y       z     vdW  Elec       q    Type
REMARK                         _______ _______ _______ _____ _____    ______ ____
ROOT
ATOM      1  C   LIG    1        0.234  -2.114  -1.183  0.00  0.00    +0.440 C 
ATOM      2  C   LIG    1        0.058  -2.841  -2.528  0.00  0.00    +0.440 C 
ATOM      3  N   LIG    1        1.349  -3.486  -2.817  0.00  0.00    -0.640 N 
ATOM      4  C   LIG    1        2.265  -3.152  -1.718  0.00  0.00    +0.510 C 
ATOM      5  C   LIG    1        1.638  -4.244  -3.893  0.00  0.00    +0.680 C 
ATOM      6  O   LIG    1        2.713  -4.798  -3.973  0.00  0.00    -0.520 OA
ATOM      7  N   LIG    1        1.436  -2.718  -0.577  0.00  0.00    -0.640 N 
ATOM      8  C   LIG    1        1.718  -2.847   0.735  0.00  0.00    +0.690 C 
ATOM      9  O   LIG    1        2.755  -3.370   1.084  0.00  0.00    -0.520 OA
ENDROOT
BRANCH   1  10
ATOM     10  O   LIG    1        0.439  -0.693  -1.401  0.00  0.00    -0.360 OA
BRANCH  10  12
ATOM     11  C   LIG    1        0.639   1.583  -0.465  0.00  0.00    +0.170 C 
ATOM     12  C   LIG    1        0.433   0.097  -0.316  0.00  0.00    +0.470 C 
ATOM     13  O   LIG    1        0.263  -0.383   0.780  0.00  0.00    -0.510 OA
ENDBRANCH  10  12
ENDBRANCH   1  10
BRANCH   2  14
ATOM     14  O   LIG    1       -0.989  -3.842  -2.420  0.00  0.00    -0.360 OA
BRANCH  14  15
ATOM     15  C   LIG    1       -1.497  -4.319  -3.567  0.00  0.00    +0.470 C 
ATOM     16  O   LIG    1       -1.153  -3.844  -4.624  0.00  0.00    -0.500 OA
ATOM     17  C   LIG    1       -2.497  -5.446  -3.538  0.00  0.00    +0.170 C 
ENDBRANCH  14  15
ENDBRANCH   2  14
TORSDOF 4
ENDMDL
MODEL     1252
REMARK  Name = ZINC000000370776
REMARK                            x       y       z     vdW  Elec       q    Type
REMARK                         _______ _______ _______ _____ _____    ______ ____
ROOT
ATOM      1  C   LIG    1        0.002  -0.004   0.002  0.00  0.00    +0.510 A 
ATOM      2  C   LIG    1       -1.195  -0.739   0.004  0.00  0.00    -0.110 A 
ATOM      3  N   LIG    1       -2.511  -0.417   0.012  0.00  0.00    -0.460 NA
ATOM      4  C   LIG    1       -3.224  -1.506   0.010  0.00  0.00    +0.480 A 
ATOM      5  N   LIG    1       -2.407  -2.597  -0.001  0.00  0.00    -0.470 N 
ATOM      6  C   LIG    1       -1.113  -2.142  -0.005  0.00  0.00    +0.300 A 
ATOM      7  N   LIG    1        0.085  -2.718  -0.015  0.00  0.00    -0.560 NA
ATOM      8  C   LIG    1        1.181  -1.989  -0.016  0.00  0.00    +0.580 A 
ATOM      9  N   LIG    1        1.153  -0.668  -0.013  0.00  0.00    -0.590 NA
ENDROOT
BRANCH   1  10
ATOM     10  N   LIG    1       -0.017   1.380   0.010  0.00  0.00    -0.820 N 
ATOM     11  H   LIG    1       -0.863   1.853   0.016  0.00  0.00    +0.420 HD
ATOM     12  H   LIG    1        0.817   1.876   0.004  0.00  0.00    +0.410 HD
ENDBRANCH   1  10
BRANCH   5  13
ATOM     13  C   LIG    1       -2.833  -3.999  -0.007  0.00  0.00    +0.300 C 
BRANCH  13  14
ATOM     14  C   LIG    1       -2.853  -4.532   1.427  0.00  0.00    +0.200 C 
BRANCH  14  15
ATOM     15  O   LIG    1       -3.850  -3.838   2.179  0.00  0.00    -0.540 OA
ATOM     16  H   LIG    1       -4.745  -3.932   1.827  0.00  0.00    +0.370 HD
ENDBRANCH  14  15
BRANCH  14  17
ATOM     17  C   LIG    1       -3.176  -6.028   1.410  0.00  0.00    +0.160 C 
BRANCH  17  18
ATOM     18  O   LIG    1       -3.081  -6.550   2.737  0.00  0.00    -0.560 OA
ATOM     19  H   LIG    1       -3.274  -7.496   2.802  0.00  0.00    +0.380 HD
ENDBRANCH  17  18
ENDBRANCH  14  17
ENDBRANCH  13  14
ENDBRANCH   5  13
TORSDOF 6
ENDMDL
MODEL     1253
REMARK  Name = ZINC000003956800
REMARK                            x       y       z     vdW  Elec       q    Type
REMARK                         _______ _______ _______ _____ _____    ______ ____
ROOT
ATOM      1  C   LIG    1       -0.019   1.526   0.010  0.00  0.00    +0.050 C 
ATOM      2  C   LIG    1        0.002  -0.004   0.002  0.00  0.00    +0.250 C 
ATOM      3  O   LIG    1        0.689  -0.472  -1.170  0.00  0.00    -0.360 OA
ATOM      4  C   LIG    1        2.053  -0.691  -0.744  0.00  0.00    +0.370 C 
ATOM      5  O   LIG    1        2.712   0.573  -0.614  0.00  0.00    -0.370 OA
ATOM      6  C   LIG    1        3.365   0.672   0.656  0.00  0.00    +0.130 C 
ATOM      7  C   LIG    1        3.106  -0.644   1.418  0.00  0.00    +0.170 C 
ATOM      8  C   LIG    1        1.843  -1.224   0.709  0.00  0.00    +0.160 C 
ATOM      9  C   LIG    1       -1.432  -0.538   0.002  0.00  0.00    +0.080 C 
ATOM     10  O   LIG    1        0.695  -0.483   1.162  0.00  0.00    -0.360 OA
ENDROOT
BRANCH   7  11
ATOM     11  O   LIG    1        4.210  -1.538   1.274  0.00  0.00    -0.550 OA
ATOM     12  H   LIG    1        5.042  -1.197   1.629  0.00  0.00    +0.400 HD
ENDBRANCH   7  11
BRANCH   6  13
ATOM     13  C   LIG    1        4.868   0.868   0.453  0.00  0.00    +0.220 C 
BRANCH  13  14
ATOM     14  O   LIG    1        5.516   0.932   1.725  0.00  0.00    -0.550 OA
ATOM     15  H   LIG    1        5.208   1.655   2.288  0.00  0.00    +0.380 HD
ENDBRANCH  13  14
BRANCH  13  16
ATOM     16  C   LIG    1        5.114   2.171  -0.311  0.00  0.00    +0.170 C 
BRANCH  16  17
ATOM     17  O   LIG    1        6.507   2.297  -0.602  0.00  0.00    -0.560 OA
ATOM     18  H   LIG    1        6.737   3.102  -1.086  0.00  0.00    +0.380 HD
ENDBRANCH  16  17
ENDBRANCH  13  16
ENDBRANCH   6  13
TORSDOF 5
ENDMDL
MODEL     1254
REMARK  Name = ZINC000089913907
REMARK                            x       y       z     vdW  Elec       q    Type
REMARK                         _______ _______ _______ _____ _____    ______ ____
ROOT
ATOM      1  N   LIG    1        0.711  -0.489   1.189  0.00  0.00    -0.710 N 
ATOM      2  H   LIG    1        1.654  -0.707   1.135  0.00  0.00    +0.410 HD
ATOM      3  C   LIG    1        0.051  -0.633   2.355  0.00  0.00    +0.510 C 
ATOM      4  O   LIG    1       -1.129  -0.361   2.423  0.00  0.00    -0.520 OA
ENDROOT
BRANCH   3   5
ATOM      5  C   LIG    1        0.780  -1.133   3.576  0.00  0.00    +0.230 C 
ATOM      6  C   LIG    1        1.541   0.019   4.261  0.00  0.00    +0.290 C 
ATOM      7  N   LIG    1        0.934   0.098   5.598  0.00  0.00    -0.740 N 
ATOM      8  H   LIG    1        1.185   0.726   6.293  0.00  0.00    +0.440 HD
ATOM      9  C   LIG    1       -0.020  -0.836   5.703  0.00  0.00    +0.710 C 
ATOM     10  O   LIG    1       -0.685  -0.994   6.708  0.00  0.00    -0.580 OA
ATOM     11  N   LIG    1       -0.175  -1.584   4.599  0.00  0.00    -0.720 N 
ATOM     12  H   LIG    1       -0.816  -2.305   4.494  0.00  0.00    +0.440 HD
ENDBRANCH   3   5
BRANCH   1  14
ATOM     13  C   LIG    1       -0.019   1.526   0.010  0.00  0.00    +0.060 C 
ATOM     14  C   LIG    1        0.002  -0.004   0.002  0.00  0.00    +0.340 C 
BRANCH  14  15
ATOM     15  C   LIG    1        0.707  -0.490  -1.238  0.00  0.00    +0.160 A 
ATOM     16  N   LIG    1        1.995  -0.478  -1.450  0.00  0.00    -0.280 NA
ATOM     17  N   LIG    1        2.247  -0.968  -2.612  0.00  0.00    -0.290 NA
ATOM     18  C   LIG    1        1.131  -1.315  -3.194  0.00  0.00    +0.380 A 
ATOM     19  N   LIG    1        0.123  -1.026  -2.336  0.00  0.00    -0.470 N 
ATOM     20  C   LIG    1       -1.310  -1.242  -2.556  0.00  0.00    +0.350 C 
ENDBRANCH  14  15
ENDBRANCH   1  14
TORSDOF 3
ENDMDL
MODEL     1255
REMARK  Name = ZINC000002565538
REMARK                            x       y       z     vdW  Elec       q    Type
REMARK                         _______ _______ _______ _____ _____    ______ ____
ROOT
ATOM      1  N   LIG    1        2.524  -0.388  -0.019  0.00  0.00    -0.310 N 
ATOM      2  N   LIG    1        2.952   0.949  -0.015  0.00  0.00    -0.040 NA
ATOM      3  N   LIG    1        4.239   0.955  -0.022  0.00  0.00    -0.180 NA
ATOM      4  C   LIG    1        4.700  -0.297  -0.030  0.00  0.00    -0.020 A 
ATOM      5  C   LIG    1        3.654  -1.150  -0.024  0.00  0.00    +0.100 A 
ENDROOT
BRANCH   1  10
ATOM      6  C   LIG    1        0.002  -0.004   0.002  0.00  0.00    +0.360 A 
ATOM      7  N   LIG    1       -1.045  -0.782   0.002  0.00  0.00    -0.330 NA
ATOM      8  O   LIG    1       -0.589  -2.123  -0.007  0.00  0.00    +0.050 OA
ATOM      9  N   LIG    1        0.827  -2.094  -0.013  0.00  0.00    -0.260 NA
ATOM     10  C   LIG    1        1.202  -0.846  -0.014  0.00  0.00    +0.300 A 
BRANCH   6  11
ATOM     11  N   LIG    1       -0.017   1.386   0.010  0.00  0.00    -0.800 N 
ATOM     12  H   LIG    1       -0.863   1.860   0.016  0.00  0.00    +0.420 HD
ATOM     13  H   LIG    1        0.817   1.883   0.004  0.00  0.00    +0.430 HD
ENDBRANCH   6  11
ENDBRANCH   1  10
BRANCH   4  14
ATOM     14  C   LIG    1        6.153  -0.694  -0.040  0.00  0.00    +0.320 C 
BRANCH  14  15
ATOM     15  O   LIG    1        6.620  -0.826   1.304  0.00  0.00    -0.570 OA
ATOM     16  H   LIG    1        7.550  -1.081   1.374  0.00  0.00    +0.390 HD
ENDBRANCH  14  15
ENDBRANCH   4  14
BRANCH   5  17
ATOM     17  C   LIG    1        3.722  -2.655  -0.029  0.00  0.00    +0.300 C 
BRANCH  17  18
ATOM     18  O   LIG    1        3.731  -3.127  -1.379  0.00  0.00    -0.560 OA
ATOM     19  H   LIG    1        3.773  -4.089  -1.459  0.00  0.00    +0.400 HD
ENDBRANCH  17  18
ENDBRANCH   5  17
TORSDOF 6
ENDMDL
MODEL     1256
REMARK  Name = ZINC000247800813
REMARK                            x       y       z     vdW  Elec       q    Type
REMARK                         _______ _______ _______ _____ _____    ______ ____
ROOT
ATOM      1  O   LIG    1        0.002  -0.004   0.002  0.00  0.00    -0.520 OA
ATOM      2  C   LIG    1       -0.014   1.211   0.009  0.00  0.00    +0.650 C 
ATOM      3  N   LIG    1       -1.200   1.828   0.029  0.00  0.00    -0.720 N 
ATOM      4  H   LIG    1       -2.006   1.294   0.109  0.00  0.00    +0.420 HD
ATOM      5  C   LIG    1       -1.323   3.286  -0.067  0.00  0.00    +0.270 C 
ATOM      6  C   LIG    1       -0.036   3.928   0.470  0.00  0.00    +0.060 C 
ATOM      7  C   LIG    1        1.151   3.286  -0.257  0.00  0.00    +0.130 C 
ATOM      8  C   LIG    1        1.036   3.529  -1.758  0.00  0.00    +0.200 C 
ATOM      9  C   LIG    1       -0.284   2.973  -2.293  0.00  0.00    +0.100 C 
ATOM     10  C   LIG    1       -1.461   3.647  -1.555  0.00  0.00    +0.150 C 
ATOM     11  O   LIG    1        1.157   1.862   0.001  0.00  0.00    -0.320 OA
ENDROOT
BRANCH   9  12
ATOM     12  O   LIG    1       -0.393   3.265  -3.687  0.00  0.00    -0.560 OA
ATOM     13  H   LIG    1       -1.208   2.941  -4.094  0.00  0.00    +0.380 HD
ENDBRANCH   9  12
BRANCH   8  14
ATOM     14  O   LIG    1        1.093   4.933  -2.014  0.00  0.00    -0.550 OA
ATOM     15  H   LIG    1        1.026   5.165  -2.951  0.00  0.00    +0.390 HD
ENDBRANCH   8  14
BRANCH  10  16
ATOM     16  O   LIG    1       -2.698   3.139  -2.057  0.00  0.00    -0.550 OA
ATOM     17  H   LIG    1       -2.832   3.292  -3.003  0.00  0.00    +0.380 HD
ENDBRANCH  10  16
BRANCH   7  18
ATOM     18  C   LIG    1        2.452   3.906   0.256  0.00  0.00    +0.230 C 
BRANCH  18  19
ATOM     19  O   LIG    1        3.553   3.396  -0.498  0.00  0.00    -0.560 OA
ATOM     20  H   LIG    1        4.412   3.747  -0.227  0.00  0.00    +0.390 HD
ENDBRANCH  18  19
ENDBRANCH   7  18
TORSDOF 5
ENDMDL
MODEL     1257
REMARK  Name = ZINC000247800812
REMARK                            x       y       z     vdW  Elec       q    Type
REMARK                         _______ _______ _______ _____ _____    ______ ____
ROOT
ATOM      1  O   LIG    1        0.002  -0.004   0.002  0.00  0.00    -0.540 OA
ATOM      2  C   LIG    1       -0.014   1.211   0.009  0.00  0.00    +0.690 C 
ATOM      3  N   LIG    1       -1.200   1.828   0.029  0.00  0.00    -0.730 N 
ATOM      4  H   LIG    1       -2.006   1.294   0.109  0.00  0.00    +0.420 HD
ATOM      5  C   LIG    1       -1.323   3.286  -0.067  0.00  0.00    +0.260 C 
ATOM      6  C   LIG    1       -0.036   3.928   0.470  0.00  0.00    +0.050 C 
ATOM      7  C   LIG    1        1.151   3.286  -0.257  0.00  0.00    +0.140 C 
ATOM      8  C   LIG    1        1.036   3.529  -1.758  0.00  0.00    +0.190 C 
ATOM      9  C   LIG    1       -0.284   2.973  -2.293  0.00  0.00    +0.100 C 
ATOM     10  C   LIG    1       -1.461   3.647  -1.555  0.00  0.00    +0.150 C 
ATOM     11  O   LIG    1        1.157   1.862   0.001  0.00  0.00    -0.320 OA
ENDROOT
BRANCH   9  12
ATOM     12  O   LIG    1       -0.318   1.558  -2.098  0.00  0.00    -0.530 OA
ATOM     13  H   LIG    1       -1.128   1.136  -2.414  0.00  0.00    +0.390 HD
ENDBRANCH   9  12
BRANCH   8  14
ATOM     14  O   LIG    1        1.093   4.933  -2.014  0.00  0.00    -0.550 OA
ATOM     15  H   LIG    1        1.026   5.165  -2.951  0.00  0.00    +0.390 HD
ENDBRANCH   8  14
BRANCH  10  16
ATOM     16  O   LIG    1       -2.698   3.139  -2.057  0.00  0.00    -0.560 OA
ATOM     17  H   LIG    1       -2.832   3.292  -3.003  0.00  0.00    +0.380 HD
ENDBRANCH  10  16
BRANCH   7  18
ATOM     18  C   LIG    1        2.452   3.906   0.256  0.00  0.00    +0.230 C 
BRANCH  18  19
ATOM     19  O   LIG    1        3.553   3.396  -0.498  0.00  0.00    -0.560 OA
ATOM     20  H   LIG    1        4.412   3.747  -0.227  0.00  0.00    +0.390 HD
ENDBRANCH  18  19
ENDBRANCH   7  18
TORSDOF 5
ENDMDL
MODEL     1258
REMARK  Name = ZINC000247800814
REMARK                            x       y       z     vdW  Elec       q    Type
REMARK                         _______ _______ _______ _____ _____    ______ ____
ROOT
ATOM      1  O   LIG    1        0.002  -0.004   0.002  0.00  0.00    -0.540 OA
ATOM      2  C   LIG    1       -0.014   1.211   0.009  0.00  0.00    +0.700 C 
ATOM      3  N   LIG    1       -1.200   1.828   0.029  0.00  0.00    -0.730 N 
ATOM      4  H   LIG    1       -2.006   1.294   0.109  0.00  0.00    +0.420 HD
ATOM      5  C   LIG    1       -1.323   3.286  -0.067  0.00  0.00    +0.260 C 
ATOM      6  C   LIG    1       -0.036   3.928   0.470  0.00  0.00    +0.060 C 
ATOM      7  C   LIG    1        1.151   3.286  -0.257  0.00  0.00    +0.140 C 
ATOM      8  C   LIG    1        1.036   3.529  -1.758  0.00  0.00    +0.200 C 
ATOM      9  C   LIG    1       -0.284   2.973  -2.293  0.00  0.00    +0.100 C 
ATOM     10  C   LIG    1       -1.461   3.647  -1.555  0.00  0.00    +0.130 C 
ATOM     11  O   LIG    1        1.157   1.862   0.001  0.00  0.00    -0.320 OA
ENDROOT
BRANCH   9  12
ATOM     12  O   LIG    1       -0.318   1.558  -2.098  0.00  0.00    -0.530 OA
ATOM     13  H   LIG    1       -1.128   1.136  -2.414  0.00  0.00    +0.390 HD
ENDBRANCH   9  12
BRANCH   8  14
ATOM     14  O   LIG    1        1.093   4.933  -2.014  0.00  0.00    -0.530 OA
ATOM     15  H   LIG    1        1.026   5.165  -2.951  0.00  0.00    +0.380 HD
ENDBRANCH   8  14
BRANCH  10  16
ATOM     16  O   LIG    1       -1.406   5.062  -1.752  0.00  0.00    -0.530 OA
ATOM     17  H   LIG    1       -1.460   5.332  -2.679  0.00  0.00    +0.380 HD
ENDBRANCH  10  16
BRANCH   7  18
ATOM     18  C   LIG    1        2.452   3.906   0.256  0.00  0.00    +0.230 C 
BRANCH  18  19
ATOM     19  O   LIG    1        3.553   3.396  -0.498  0.00  0.00    -0.560 OA
ATOM     20  H   LIG    1        4.412   3.747  -0.227  0.00  0.00    +0.380 HD
ENDBRANCH  18  19
ENDBRANCH   7  18
TORSDOF 5
ENDMDL
MODEL     1259
REMARK  Name = ZINC000034133775
REMARK                            x       y       z     vdW  Elec       q    Type
REMARK                         _______ _______ _______ _____ _____    ______ ____
ROOT
ATOM      1  C   LIG    1       -4.410  -4.342   0.021  0.00  0.00    +0.220 C 
ENDROOT
BRANCH   1   3
ATOM      2  C   LIG    1       -2.869  -2.425   0.016  0.00  0.00    -0.030 C 
ATOM      3  C   LIG    1       -3.025  -3.747   0.011  0.00  0.00    +0.050 C 
BRANCH   2   4
ATOM      4  C   LIG    1       -1.519  -1.845   0.007  0.00  0.00    +0.500 C 
ATOM      5  O   LIG    1       -0.545  -2.572  -0.007  0.00  0.00    -0.510 OA
BRANCH   4   6
ATOM      6  O   LIG    1       -1.360  -0.507   0.012  0.00  0.00    -0.350 OA
BRANCH   6   8
ATOM      7  C   LIG    1       -0.019   1.526   0.010  0.00  0.00    +0.070 C 
ATOM      8  C   LIG    1        0.002  -0.004   0.002  0.00  0.00    +0.200 C 
ENDBRANCH   6   8
ENDBRANCH   4   6
ENDBRANCH   2   4
ENDBRANCH   1   3
BRANCH   1   9
ATOM      9  O   LIG    1       -4.570  -5.155   1.185  0.00  0.00    -0.520 OA
ATOM     10  H   LIG    1       -3.944  -5.889   1.241  0.00  0.00    +0.380 HD
ENDBRANCH   1   9
BRANCH   1  11
ATOM     11  C   LIG    1       -4.606  -5.199  -1.231  0.00  0.00    +0.160 C 
BRANCH  11  12
ATOM     12  O   LIG    1       -4.445  -4.386  -2.395  0.00  0.00    -0.540 OA
ATOM     13  H   LIG    1       -5.072  -3.651  -2.451  0.00  0.00    +0.380 HD
ENDBRANCH  11  12
BRANCH  11  14
ATOM     14  C   LIG    1       -6.011  -5.803  -1.221  0.00  0.00    +0.190 C 
BRANCH  14  15
ATOM     15  O   LIG    1       -6.172  -6.616  -0.057  0.00  0.00    -0.530 OA
ATOM     16  H   LIG    1       -5.545  -7.351  -0.001  0.00  0.00    +0.370 HD
ENDBRANCH  14  15
BRANCH  14  17
ATOM     17  C   LIG    1       -6.207  -6.660  -2.473  0.00  0.00    +0.150 C 
BRANCH  17  18
ATOM     18  O   LIG    1       -7.556  -7.130  -2.523  0.00  0.00    -0.570 OA
ATOM     19  H   LIG    1       -7.752  -7.681  -3.292  0.00  0.00    +0.380 HD
ENDBRANCH  17  18
ENDBRANCH  14  17
ENDBRANCH  11  14
ENDBRANCH   1  11
TORSDOF 11
ENDMDL
MODEL     1260
REMARK  Name = ZINC000003590980
REMARK                            x       y       z     vdW  Elec       q    Type
REMARK                         _______ _______ _______ _____ _____    ______ ____
ROOT
ATOM      1  C1*   U A  1        2.406   1.113  -0.006  0.00  0.00    +0.440 C 
ATOM      2  O4*   U A  1        2.395   0.122  -1.056  0.00  0.00    -0.340 OA
ATOM      3  C4*   U A  1        3.364  -0.878  -0.701  0.00  0.00    +0.150 C 
ATOM      4  C3*   U A  1        3.492  -0.866   0.835  0.00  0.00    +0.120 C 
ATOM      5  C2*   U A  1        2.543   0.272   1.288  0.00  0.00    +0.180 C 
ENDROOT
BRANCH   1  13
ATOM      6  O2    U A  1        0.002  -0.004   0.002  0.00  0.00    -0.580 OA
ATOM      7  C2    U A  1       -0.014   1.212   0.009  0.00  0.00    +0.720 C 
ATOM      8  N3    U A  1       -1.200   1.840   0.029  0.00  0.00    -0.750 N 
ATOM      9  H3    U A  1       -2.015   1.315   0.045  0.00  0.00    +0.410 HD
ATOM     10  C4    U A  1       -1.287   3.301   0.026  0.00  0.00    +0.390 C 
ATOM     11  C5    U A  1       -0.041   3.881   0.704  0.00  0.00    +0.060 C 
ATOM     12  C6    U A  1        1.201   3.335  -0.009  0.00  0.00    +0.290 C 
ATOM     13  N1    U A  1        1.153   1.872   0.001  0.00  0.00    -0.610 N 
BRANCH  10  14
ATOM     14  O4    U A  1       -2.455   3.711   0.740  0.00  0.00    -0.560 OA
ATOM     15  H4    U A  1       -3.282   3.375   0.367  0.00  0.00    +0.390 HD
ENDBRANCH  10  14
ENDBRANCH   1  13
BRANCH   4  16
ATOM     16  O3*   U A  1        4.837  -0.580   1.223  0.00  0.00    -0.540 OA
ATOM     17  H3*   U A  1        5.483  -1.230   0.915  0.00  0.00    +0.380 HD
ENDBRANCH   4  16
BRANCH   5  18
ATOM     18  O2*   U A  1        3.132   1.038   2.341  0.00  0.00    -0.540 OA
ATOM     19  H2*   U A  1        3.318   0.528   3.142  0.00  0.00    +0.390 HD
ENDBRANCH   5  18
BRANCH   3  20
ATOM     20  C5*   U A  1        2.892  -2.253  -1.177  0.00  0.00    +0.200 C 
BRANCH  20  21
ATOM     21  O5*   U A  1        2.875  -2.283  -2.605  0.00  0.00    -0.560 OA
ATOM     22  H5*   U A  1        2.585  -3.127  -2.978  0.00  0.00    +0.380 HD
ENDBRANCH  20  21
ENDBRANCH   3  20
TORSDOF 6
ENDMDL
MODEL     1261
REMARK  Name = ZINC000001099724
REMARK                            x       y       z     vdW  Elec       q    Type
REMARK                         _______ _______ _______ _____ _____    ______ ____
ROOT
ATOM      1  C   LIG    1        3.514  -1.392  -0.024  0.00  0.00    +0.210 C 
ENDROOT
BRANCH   1   2
ATOM      2  O   LIG    1        2.484  -0.402  -0.019  0.00  0.00    -0.280 OA
BRANCH   2   7
ATOM      3  C   LIG    1        0.002  -0.004   0.002  0.00  0.00    +0.350 A 
ATOM      4  N   LIG    1       -1.045  -0.782   0.002  0.00  0.00    -0.340 NA
ATOM      5  O   LIG    1       -0.589  -2.123  -0.007  0.00  0.00    +0.040 OA
ATOM      6  N   LIG    1        0.828  -2.094  -0.013  0.00  0.00    -0.320 NA
ATOM      7  C   LIG    1        1.202  -0.846  -0.014  0.00  0.00    +0.260 A 
BRANCH   3   8
ATOM      8  N   LIG    1       -0.017   1.387   0.010  0.00  0.00    -0.810 N 
ATOM      9  H   LIG    1       -0.863   1.860   0.016  0.00  0.00    +0.420 HD
ATOM     10  H   LIG    1        0.817   1.883   0.004  0.00  0.00    +0.420 HD
ENDBRANCH   3   8
ENDBRANCH   2   7
ENDBRANCH   1   2
BRANCH   1  11
ATOM     11  C   LIG    1        4.882  -0.706  -0.030  0.00  0.00    +0.370 C 
BRANCH  11  12
ATOM     12  N   LIG    1        5.938  -1.721  -0.034  0.00  0.00    -0.420 N 
ATOM     13  N   LIG    1        6.553  -2.317   1.080  0.00  0.00    -0.090 NA
ATOM     14  N   LIG    1        7.423  -3.152   0.624  0.00  0.00    -0.010 NA
ATOM     15  N   LIG    1        7.418  -3.144  -0.660  0.00  0.00    -0.370 NA
ATOM     16  C   LIG    1        6.525  -2.291  -1.112  0.00  0.00    +0.510 A 
BRANCH  16  17
ATOM     17  N   LIG    1        6.245  -2.019  -2.440  0.00  0.00    -0.810 N 
ATOM     18  H   LIG    1        5.563  -1.369  -2.669  0.00  0.00    +0.420 HD
ATOM     19  H   LIG    1        6.731  -2.480  -3.142  0.00  0.00    +0.430 HD
ENDBRANCH  16  17
ENDBRANCH  11  12
ENDBRANCH   1  11
TORSDOF 6
ENDMDL
MODEL     1262
REMARK  Name = ZINC000247885185
REMARK                            x       y       z     vdW  Elec       q    Type
REMARK                         _______ _______ _______ _____ _____    ______ ____
ROOT
ATOM      1  O   LIG    1        0.002  -0.004   0.002  0.00  0.00    -0.520 OA
ATOM      2  C   LIG    1       -0.014   1.211   0.009  0.00  0.00    +0.650 C 
ATOM      3  N   LIG    1       -1.147   1.929   0.029  0.00  0.00    -0.710 N 
ATOM      4  H   LIG    1       -2.047   1.568  -0.002  0.00  0.00    +0.440 HD
ATOM      5  C   LIG    1       -0.793   3.365   0.107  0.00  0.00    +0.220 C 
ATOM      6  C   LIG    1        0.713   3.357  -0.062  0.00  0.00    +0.390 C 
ATOM      7  O   LIG    1        1.481   4.190   0.737  0.00  0.00    -0.320 OA
ATOM      8  C   LIG    1        1.063   4.544   2.036  0.00  0.00    +0.200 C 
ATOM      9  C   LIG    1       -0.402   4.940   2.064  0.00  0.00    +0.130 C 
ATOM     10  C   LIG    1       -1.297   3.907   1.427  0.00  0.00    +0.190 C 
ATOM     11  O   LIG    1        1.099   1.960   0.002  0.00  0.00    -0.340 OA
ENDROOT
BRANCH   9  12
ATOM     12  O   LIG    1       -0.567   6.164   1.345  0.00  0.00    -0.550 OA
ATOM     13  H   LIG    1       -0.060   6.904   1.707  0.00  0.00    +0.390 HD
ENDBRANCH   9  12
BRANCH  10  14
ATOM     14  O   LIG    1       -1.404   2.791   2.313  0.00  0.00    -0.550 OA
ATOM     15  H   LIG    1       -1.777   3.010   3.178  0.00  0.00    +0.380 HD
ENDBRANCH  10  14
BRANCH   8  16
ATOM     16  C   LIG    1        1.274   3.352   2.971  0.00  0.00    +0.160 C 
BRANCH  16  17
ATOM     17  O   LIG    1        2.672   3.075   3.081  0.00  0.00    -0.560 OA
ATOM     18  H   LIG    1        2.881   2.329   3.660  0.00  0.00    +0.380 HD
ENDBRANCH  16  17
ENDBRANCH   8  16
TORSDOF 4
ENDMDL
MODEL     1263
REMARK  Name = ZINC000247885187
REMARK                            x       y       z     vdW  Elec       q    Type
REMARK                         _______ _______ _______ _____ _____    ______ ____
ROOT
ATOM      1  O   LIG    1        0.002  -0.004   0.002  0.00  0.00    -0.500 OA
ATOM      2  C   LIG    1       -0.014   1.211   0.009  0.00  0.00    +0.650 C 
ATOM      3  N   LIG    1       -1.145   1.945   0.029  0.00  0.00    -0.720 N 
ATOM      4  H   LIG    1       -2.048   1.607  -0.076  0.00  0.00    +0.440 HD
ATOM      5  C   LIG    1       -0.765   3.346   0.239  0.00  0.00    +0.190 C 
ATOM      6  C   LIG    1        0.724   3.278   0.577  0.00  0.00    +0.410 C 
ATOM      7  O   LIG    1        0.953   3.210   1.983  0.00  0.00    -0.360 OA
ATOM      8  C   LIG    1        0.317   4.236   2.743  0.00  0.00    +0.160 C 
ATOM      9  C   LIG    1       -1.196   4.033   2.648  0.00  0.00    +0.140 C 
ATOM     10  C   LIG    1       -1.637   4.064   1.220  0.00  0.00    +0.200 C 
ATOM     11  O   LIG    1        1.095   1.975   0.002  0.00  0.00    -0.310 OA
ENDROOT
BRANCH   9  12
ATOM     12  O   LIG    1       -1.537   2.758   3.197  0.00  0.00    -0.550 OA
ATOM     13  H   LIG    1       -1.292   2.652   4.126  0.00  0.00    +0.380 HD
ENDBRANCH   9  12
BRANCH  10  14
ATOM     14  O   LIG    1       -1.683   5.427   0.792  0.00  0.00    -0.550 OA
ATOM     15  H   LIG    1       -2.292   5.979   1.302  0.00  0.00    +0.390 HD
ENDBRANCH  10  14
BRANCH   8  16
ATOM     16  C   LIG    1        0.760   4.147   4.204  0.00  0.00    +0.210 C 
BRANCH  16  17
ATOM     17  O   LIG    1        2.159   4.425   4.296  0.00  0.00    -0.560 OA
ATOM     18  H   LIG    1        2.510   4.386   5.196  0.00  0.00    +0.390 HD
ENDBRANCH  16  17
ENDBRANCH   8  16
TORSDOF 4
ENDMDL
MODEL     1264
REMARK  Name = ZINC000003795857
REMARK                            x       y       z     vdW  Elec       q    Type
REMARK                         _______ _______ _______ _____ _____    ______ ____
ROOT
ATOM      1  O   LIG    1       -0.438   0.165  -0.094  0.00  0.00    -0.470 OA
ATOM      2  C   LIG    1       -0.340   1.375  -0.088  0.00  0.00    +0.500 C 
ATOM      3  N   LIG    1       -1.369   2.247  -0.134  0.00  0.00    -0.710 N 
ATOM      4  H   LIG    1       -2.309   2.020  -0.218  0.00  0.00    +0.440 HD
ATOM      5  C   LIG    1       -0.811   3.595  -0.035  0.00  0.00    +0.470 C 
ATOM      6  C   LIG    1       -1.265   4.467  -1.209  0.00  0.00    +0.140 C 
ATOM      7  C   LIG    1       -0.443   5.759  -1.211  0.00  0.00    +0.130 C 
ATOM      8  C   LIG    1        1.037   5.448  -1.440  0.00  0.00    +0.190 C 
ATOM      9  C   LIG    1        1.568   4.587  -0.283  0.00  0.00    +0.300 C 
ATOM     10  N   LIG    1        0.653   3.451  -0.107  0.00  0.00    -0.590 N 
ATOM     11  C   LIG    1        0.939   2.145  -0.022  0.00  0.00    +0.510 C 
ATOM     12  O   LIG    1        2.051   1.667   0.070  0.00  0.00    -0.460 OA
ENDROOT
BRANCH   8  13
ATOM     13  O   LIG    1        1.189   4.737  -2.670  0.00  0.00    -0.540 OA
ATOM     14  H   LIG    1        0.876   5.222  -3.446  0.00  0.00    +0.390 HD
ENDBRANCH   8  13
BRANCH   7  15
ATOM     15  O   LIG    1       -0.594   6.418   0.048  0.00  0.00    -0.550 OA
ATOM     16  H   LIG    1       -1.507   6.660   0.258  0.00  0.00    +0.390 HD
ENDBRANCH   7  15
BRANCH   6  17
ATOM     17  O   LIG    1       -2.652   4.779  -1.065  0.00  0.00    -0.560 OA
ATOM     18  H   LIG    1       -3.007   5.331  -1.776  0.00  0.00    +0.390 HD
ENDBRANCH   6  17
BRANCH   9  19
ATOM     19  C   LIG    1        1.605   5.413   1.004  0.00  0.00    +0.210 C 
BRANCH  19  20
ATOM     20  O   LIG    1        2.237   4.655   2.038  0.00  0.00    -0.570 OA
ATOM     21  H   LIG    1        2.296   5.117   2.885  0.00  0.00    +0.380 HD
ENDBRANCH  19  20
ENDBRANCH   9  19
TORSDOF 5
ENDMDL
MODEL     1265
REMARK  Name = ZINC000001249938
REMARK                            x       y       z     vdW  Elec       q    Type
REMARK                         _______ _______ _______ _____ _____    ______ ____
ROOT
ATOM      1  O   LIG    1        0.002  -0.004   0.002  0.00  0.00    -0.540 OA
ATOM      2  C   LIG    1       -0.014   1.212   0.009  0.00  0.00    +0.710 C 
ATOM      3  N   LIG    1       -1.147   1.926   0.029  0.00  0.00    -0.740 N 
ATOM      4  H   LIG    1       -2.043   1.556   0.040  0.00  0.00    +0.440 HD
ATOM      5  C   LIG    1       -0.819   3.358   0.033  0.00  0.00    +0.460 C 
ATOM      6  N   LIG    1       -1.208   3.958  -1.251  0.00  0.00    -0.680 N 
ATOM      7  H   LIG    1       -2.120   4.097  -1.551  0.00  0.00    +0.450 HD
ATOM      8  C   LIG    1       -0.108   4.283  -1.941  0.00  0.00    +0.570 C 
ATOM      9  N   LIG    1        1.036   3.989  -1.310  0.00  0.00    -0.680 N 
ATOM     10  H   LIG    1        1.926   4.153  -1.658  0.00  0.00    +0.450 HD
ATOM     11  S   LIG    1       -0.159   5.008  -3.491  0.00  0.00    -0.610 S 
ATOM     12  C   LIG    1        0.731   3.380   0.011  0.00  0.00    +0.460 C 
ATOM     13  N   LIG    1        1.098   1.956   0.002  0.00  0.00    -0.630 N 
ENDROOT
BRANCH  13  14
ATOM     14  C   LIG    1        2.467   1.435  -0.035  0.00  0.00    +0.350 C 
BRANCH  14  15
ATOM     15  C   LIG    1        2.982   1.254   1.395  0.00  0.00    +0.170 C 
BRANCH  15  16
ATOM     16  O   LIG    1        2.212   0.249   2.056  0.00  0.00    -0.560 OA
ATOM     17  H   LIG    1        2.484   0.081   2.968  0.00  0.00    +0.380 HD
ENDBRANCH  15  16
ENDBRANCH  14  15
ENDBRANCH  13  14
TORSDOF 3
ENDMDL
MODEL     1266
REMARK  Name = ZINC000000162133
REMARK                            x       y       z     vdW  Elec       q    Type
REMARK                         _______ _______ _______ _____ _____    ______ ____
ROOT
ATOM      1  O   LIG    1        0.002  -0.004   0.002  0.00  0.00    -0.520 OA
ATOM      2  C   LIG    1       -0.014   1.209   0.009  0.00  0.00    +0.520 C 
ATOM      3  N   LIG    1       -1.196   1.833   0.029  0.00  0.00    -0.710 N 
ATOM      4  H   LIG    1       -2.004   1.297   0.039  0.00  0.00    +0.410 HD
ATOM      5  CA  LIG    1       -1.322   3.284   0.036  0.00  0.00    +0.260 C 
ATOM      6  C   LIG    1       -0.051   3.939   0.486  0.00  0.00    +0.520 C 
ATOM      7  N   LIG    1        1.131   3.316   0.461  0.00  0.00    -0.710 N 
ATOM      8  H   LIG    1        1.915   3.796   0.768  0.00  0.00    +0.410 HD
ATOM      9  O   LIG    1       -0.097   5.083   0.888  0.00  0.00    -0.520 OA
ATOM     10  CA  LIG    1        1.291   1.945   0.000  0.00  0.00    +0.260 C 
ENDROOT
BRANCH   5  11
ATOM     11  C   LIG    1       -1.660   3.765  -1.377  0.00  0.00    +0.050 C 
BRANCH  11  12
ATOM     12  C   LIG    1       -3.038   3.236  -1.780  0.00  0.00    +0.180 C 
BRANCH  12  13
ATOM     13  O   LIG    1       -3.353   3.685  -3.099  0.00  0.00    -0.570 OA
ATOM     14  H   LIG    1       -4.215   3.387  -3.421  0.00  0.00    +0.390 HD
ENDBRANCH  12  13
ENDBRANCH  11  12
ENDBRANCH   5  11
BRANCH  10  15
ATOM     15  C   LIG    1        1.837   1.958  -1.429  0.00  0.00    +0.050 C 
BRANCH  15  16
ATOM     16  C   LIG    1        3.245   2.558  -1.432  0.00  0.00    +0.180 C 
BRANCH  16  17
ATOM     17  O   LIG    1        3.755   2.571  -2.767  0.00  0.00    -0.570 OA
ATOM     18  H   LIG    1        4.645   2.939  -2.844  0.00  0.00    +0.390 HD
ENDBRANCH  16  17
ENDBRANCH  15  16
ENDBRANCH  10  15
TORSDOF 6
ENDMDL
MODEL     1267
REMARK  Name = ZINC000013115992
REMARK                            x       y       z     vdW  Elec       q    Type
REMARK                         _______ _______ _______ _____ _____    ______ ____
ROOT
ATOM      1  C   LIG    1        0.659  -2.063  -1.123  0.00  0.00    +0.140 C 
ATOM      2  C   LIG    1        1.262  -2.665  -2.179  0.00  0.00    -0.140 A 
ATOM      3  S   LIG    1        2.046  -1.891  -3.566  0.00  0.00    +0.220 S 
ATOM      4  C   LIG    1        2.502  -3.418  -4.356  0.00  0.00    +0.270 A 
ATOM      5  N   LIG    1        3.118  -3.809  -5.436  0.00  0.00    -0.460 NA
ATOM      6  C   LIG    1        3.160  -5.271  -5.499  0.00  0.00    +0.240 C 
ATOM      7  C   LIG    1        2.436  -5.722  -4.221  0.00  0.00    +0.290 C 
ATOM      8  N   LIG    1        2.055  -4.441  -3.561  0.00  0.00    -0.600 N 
ATOM      9  C   LIG    1        1.417  -4.111  -2.427  0.00  0.00    +0.570 A 
ATOM     10  O   LIG    1        0.993  -4.949  -1.656  0.00  0.00    -0.470 OA
ENDROOT
BRANCH   1  11
ATOM     11  C   LIG    1        0.601  -0.603  -1.048  0.00  0.00    +0.490 C 
ATOM     12  O   LIG    1        1.094   0.071  -1.932  0.00  0.00    -0.480 OA
BRANCH  11  14
ATOM     13  C   LIG    1       -0.017   1.425   0.010  0.00  0.00    +0.280 C 
ATOM     14  O   LIG    1        0.002  -0.004   0.002  0.00  0.00    -0.340 OA
ENDBRANCH  11  14
ENDBRANCH   1  11
TORSDOF 2
ENDMDL
MODEL     1268
REMARK  Name = ZINC000000069186
REMARK                            x       y       z     vdW  Elec       q    Type
REMARK                         _______ _______ _______ _____ _____    ______ ____
ROOT
ATOM      1  C   LIG    1        0.680  -2.074   1.092  0.00  0.00    -0.010 C 
ATOM      2  C   LIG    1        1.302  -2.687   2.129  0.00  0.00    +0.200 C 
ATOM      3  N   LIG    1        1.377  -4.067   2.205  0.00  0.00    -0.770 N 
ATOM      4  H   LIG    1        2.032  -4.548   1.675  0.00  0.00    +0.410 HD
ATOM      5  C   LIG    1        0.472  -4.795   3.079  0.00  0.00    +0.300 C 
ATOM      6  C   LIG    1        0.646  -4.365   4.538  0.00  0.00    +0.140 C 
ATOM      7  C   LIG    1        0.264  -2.897   4.707  0.00  0.00    +0.240 C 
ATOM      8  N   LIG    1        1.435  -2.042   4.473  0.00  0.00    -0.720 N 
ATOM      9  H   LIG    1        1.853  -1.579   5.215  0.00  0.00    +0.400 HD
ATOM     10  C   LIG    1        1.934  -1.899   3.223  0.00  0.00    +0.560 C 
ATOM     11  O   LIG    1        2.864  -1.148   3.003  0.00  0.00    -0.500 OA
ENDROOT
BRANCH   1  12
ATOM     12  C   LIG    1        0.621  -0.614   1.034  0.00  0.00    +0.490 C 
ATOM     13  O   LIG    1        1.131   0.051   1.916  0.00  0.00    -0.480 OA
BRANCH  12  15
ATOM     14  C   LIG    1       -0.017   1.425   0.010  0.00  0.00    +0.260 C 
ATOM     15  O   LIG    1        0.002  -0.004   0.002  0.00  0.00    -0.350 OA
ENDBRANCH  12  15
ENDBRANCH   1  12
BRANCH   6  16
ATOM     16  O   LIG    1        2.011  -4.543   4.923  0.00  0.00    -0.550 OA
ATOM     17  H   LIG    1        2.198  -4.290   5.837  0.00  0.00    +0.380 HD
ENDBRANCH   6  16
TORSDOF 3
ENDMDL
MODEL     1269
REMARK  Name = ZINC000001249937
REMARK                            x       y       z     vdW  Elec       q    Type
REMARK                         _______ _______ _______ _____ _____    ______ ____
ROOT
ATOM      1  O   LIG    1        0.002  -0.004   0.002  0.00  0.00    -0.500 OA
ATOM      2  C   LIG    1       -0.014   1.212   0.009  0.00  0.00    +0.720 C 
ATOM      3  N   LIG    1       -1.165   1.966   0.030  0.00  0.00    -0.720 N 
ATOM      4  H   LIG    1       -2.063   1.681   0.263  0.00  0.00    +0.430 HD
ATOM      5  C   LIG    1       -0.736   3.244  -0.366  0.00  0.00    +0.370 C 
ATOM      6  N   LIG    1       -1.115   4.594  -0.374  0.00  0.00    -0.660 N 
ATOM      7  H   LIG    1       -2.006   4.960  -0.267  0.00  0.00    +0.440 HD
ATOM      8  C   LIG    1        0.057   5.282  -0.567  0.00  0.00    +0.580 C 
ATOM      9  N   LIG    1        1.154   4.491  -0.378  0.00  0.00    -0.690 N 
ATOM     10  H   LIG    1        2.063   4.668  -0.667  0.00  0.00    +0.450 HD
ATOM     11  S   LIG    1        0.134   6.938  -0.995  0.00  0.00    -0.540 S 
ATOM     12  C   LIG    1        0.657   3.332   0.378  0.00  0.00    +0.420 C 
ATOM     13  N   LIG    1        1.108   1.992   0.002  0.00  0.00    -0.630 N 
ENDROOT
BRANCH  13  14
ATOM     14  C   LIG    1        2.473   1.576  -0.330  0.00  0.00    +0.350 C 
BRANCH  14  15
ATOM     15  C   LIG    1        3.192   1.124   0.942  0.00  0.00    +0.160 C 
BRANCH  15  16
ATOM     16  O   LIG    1        2.556  -0.047   1.459  0.00  0.00    -0.560 OA
ATOM     17  H   LIG    1        2.960  -0.390   2.267  0.00  0.00    +0.380 HD
ENDBRANCH  15  16
ENDBRANCH  14  15
ENDBRANCH  13  14
TORSDOF 3
ENDMDL
MODEL     1270
REMARK  Name = ZINC000008386859
REMARK                            x       y       z     vdW  Elec       q    Type
REMARK                         _______ _______ _______ _____ _____    ______ ____
ROOT
ATOM      1  O   LIG    1        0.002  -0.004   0.002  0.00  0.00    -0.480 OA
ATOM      2  C   LIG    1       -0.014   1.212   0.009  0.00  0.00    +0.710 C 
ATOM      3  N   LIG    1       -1.147   1.926   0.029  0.00  0.00    -0.710 N 
ATOM      4  H   LIG    1       -2.043   1.556   0.040  0.00  0.00    +0.460 HD
ATOM      5  C   LIG    1       -0.819   3.358   0.032  0.00  0.00    +0.530 C 
ATOM      6  C   LIG    1        0.731   3.380   0.009  0.00  0.00    +0.530 C 
ATOM      7  N   LIG    1        1.052   4.000  -1.284  0.00  0.00    -0.700 N 
ATOM      8  H   LIG    1        1.946   4.166  -1.620  0.00  0.00    +0.460 HD
ATOM      9  C   LIG    1       -0.085   4.298  -1.926  0.00  0.00    +0.710 C 
ATOM     10  O   LIG    1       -0.108   4.822  -3.023  0.00  0.00    -0.480 OA
ATOM     11  N   LIG    1       -1.209   3.958  -1.252  0.00  0.00    -0.510 N 
ATOM     12  N   LIG    1        1.098   1.956   0.002  0.00  0.00    -0.500 N 
ENDROOT
BRANCH  11  13
ATOM     13  N   LIG    1       -2.518   4.162  -1.706  0.00  0.00    +0.210 N 
ATOM     14  O   LIG    1       -3.462   3.816  -1.017  0.00  0.00    -0.130 OA
ATOM     15  O   LIG    1       -2.714   4.686  -2.788  0.00  0.00    -0.090 OA
ENDBRANCH  11  13
BRANCH  12  16
ATOM     16  N   LIG    1        2.407   1.458  -0.017  0.00  0.00    +0.210 N 
ATOM     17  O   LIG    1        2.600   0.255  -0.022  0.00  0.00    -0.080 OA
ATOM     18  O   LIG    1        3.352   2.226  -0.030  0.00  0.00    -0.130 OA
ENDBRANCH  12  16
TORSDOF 2
ENDMDL
MODEL     1271
REMARK  Name = ZINC000018323313
REMARK                            x       y       z     vdW  Elec       q    Type
REMARK                         _______ _______ _______ _____ _____    ______ ____
ROOT
ATOM      1  O   LIG    1        0.002  -0.004   0.002  0.00  0.00    -0.450 OA
ATOM      2  C   LIG    1       -0.014   1.212   0.009  0.00  0.00    +0.730 C 
ATOM      3  N   LIG    1       -1.159   1.962   0.030  0.00  0.00    -0.710 N 
ATOM      4  H   LIG    1       -2.055   1.679  -0.213  0.00  0.00    +0.460 HD
ATOM      5  C   LIG    1       -0.742   3.282   0.496  0.00  0.00    +0.480 C 
ATOM      6  C   LIG    1        0.649   3.293  -0.247  0.00  0.00    +0.400 C 
ATOM      7  N   LIG    1        0.993   4.648  -0.212  0.00  0.00    -0.670 N 
ATOM      8  H   LIG    1        1.882   5.029  -0.139  0.00  0.00    +0.460 HD
ATOM      9  C   LIG    1       -0.199   5.320  -0.305  0.00  0.00    +0.730 C 
ATOM     10  O   LIG    1       -0.291   6.511  -0.533  0.00  0.00    -0.440 OA
ATOM     11  N   LIG    1       -1.291   4.492  -0.105  0.00  0.00    -0.510 N 
ATOM     12  N   LIG    1        1.113   1.995   0.002  0.00  0.00    -0.470 N 
ENDROOT
BRANCH  11  13
ATOM     13  N   LIG    1       -2.627   4.765  -0.427  0.00  0.00    +0.220 N 
ATOM     14  O   LIG    1       -3.491   3.939  -0.194  0.00  0.00    -0.130 OA
ATOM     15  O   LIG    1       -2.924   5.830  -0.939  0.00  0.00    -0.090 OA
ENDBRANCH  11  13
BRANCH  12  16
ATOM     16  N   LIG    1        2.438   1.585   0.194  0.00  0.00    +0.210 N 
ATOM     17  O   LIG    1        2.689   0.412   0.403  0.00  0.00    -0.090 OA
ATOM     18  O   LIG    1        3.341   2.403   0.152  0.00  0.00    -0.130 OA
ENDBRANCH  12  16
TORSDOF 2
ENDMDL
MODEL     1272
REMARK  Name = ZINC000247800811
REMARK                            x       y       z     vdW  Elec       q    Type
REMARK                         _______ _______ _______ _____ _____    ______ ____
ROOT
ATOM      1  O   LIG    1        0.002  -0.004   0.002  0.00  0.00    -0.520 OA
ATOM      2  C   LIG    1       -0.014   1.211   0.009  0.00  0.00    +0.660 C 
ATOM      3  N   LIG    1       -1.200   1.828   0.029  0.00  0.00    -0.730 N 
ATOM      4  H   LIG    1       -2.006   1.294   0.109  0.00  0.00    +0.420 HD
ATOM      5  C   LIG    1       -1.323   3.286  -0.067  0.00  0.00    +0.260 C 
ATOM      6  C   LIG    1       -0.036   3.928   0.470  0.00  0.00    +0.070 C 
ATOM      7  C   LIG    1        1.151   3.286  -0.257  0.00  0.00    +0.130 C 
ATOM      8  C   LIG    1        1.036   3.529  -1.758  0.00  0.00    +0.190 C 
ATOM      9  C   LIG    1       -0.284   2.973  -2.293  0.00  0.00    +0.100 C 
ATOM     10  C   LIG    1       -1.461   3.647  -1.555  0.00  0.00    +0.140 C 
ATOM     11  O   LIG    1        1.157   1.862   0.001  0.00  0.00    -0.320 OA
ENDROOT
BRANCH   9  12
ATOM     12  O   LIG    1       -0.393   3.265  -3.687  0.00  0.00    -0.560 OA
ATOM     13  H   LIG    1       -1.208   2.941  -4.094  0.00  0.00    +0.390 HD
ENDBRANCH   9  12
BRANCH   8  14
ATOM     14  O   LIG    1        1.093   4.933  -2.014  0.00  0.00    -0.540 OA
ATOM     15  H   LIG    1        1.026   5.165  -2.951  0.00  0.00    +0.390 HD
ENDBRANCH   8  14
BRANCH  10  16
ATOM     16  O   LIG    1       -1.406   5.062  -1.752  0.00  0.00    -0.530 OA
ATOM     17  H   LIG    1       -1.460   5.332  -2.679  0.00  0.00    +0.390 HD
ENDBRANCH  10  16
BRANCH   7  18
ATOM     18  C   LIG    1        2.452   3.906   0.256  0.00  0.00    +0.240 C 
BRANCH  18  19
ATOM     19  O   LIG    1        3.553   3.396  -0.498  0.00  0.00    -0.560 OA
ATOM     20  H   LIG    1        4.412   3.747  -0.227  0.00  0.00    +0.390 HD
ENDBRANCH  18  19
ENDBRANCH   7  18
TORSDOF 5
ENDMDL
MODEL     1273
REMARK  Name = ZINC000307328946
REMARK                            x       y       z     vdW  Elec       q    Type
REMARK                         _______ _______ _______ _____ _____    ______ ____
ROOT
ATOM      1  C   LIG    1       -1.244  -2.135   0.003  0.00  0.00    +0.050 C 
ATOM      2  C   LIG    1       -0.562  -2.650   1.176  0.00  0.00    +0.220 C 
ATOM      3  N   LIG    1       -0.466  -4.114   1.261  0.00  0.00    -0.660 NA
ATOM      4  H   LIG    1       -0.537  -4.535   0.347  0.00  0.00    +0.360 HD
ATOM      5  C   LIG    1       -1.575  -4.523   2.110  0.00  0.00    +0.240 C 
ATOM      6  C   LIG    1       -2.651  -5.204   1.233  0.00  0.00    -0.350 C 
ATOM      7  S   LIG    1       -2.820  -4.345  -0.367  0.00  0.00    +2.420 S 
ATOM      8  O   LIG    1       -4.120  -4.614  -0.873  0.00  0.00    -0.930 OA
ATOM      9  O   LIG    1       -1.695  -4.682  -1.166  0.00  0.00    -0.930 OA
ATOM     10  C   LIG    1       -2.727  -2.593   0.008  0.00  0.00    -0.320 C 
ENDROOT
BRANCH   1  11
ATOM     11  C   LIG    1       -1.185  -0.630   0.010  0.00  0.00    +0.480 C 
ATOM     12  O   LIG    1       -2.208   0.015   0.023  0.00  0.00    -0.500 OA
BRANCH  11  14
ATOM     13  C   LIG    1       -0.018   1.448   0.010  0.00  0.00    +0.280 C 
ATOM     14  O   LIG    1        0.002  -0.004   0.002  0.00  0.00    -0.350 OA
ENDBRANCH  11  14
ENDBRANCH   1  11
TORSDOF 2
ENDMDL
MODEL     1274
REMARK  Name = ZINC000409415373
REMARK                            x       y       z     vdW  Elec       q    Type
REMARK                         _______ _______ _______ _____ _____    ______ ____
ROOT
ATOM      1  C   LIG    1       -1.136  -2.159   0.001  0.00  0.00    +0.280 C 
ATOM      2  C   LIG    1       -2.444  -2.685  -0.596  0.00  0.00    +0.200 C 
ATOM      3  C   LIG    1       -2.445  -4.215  -0.528  0.00  0.00    +0.130 C 
ATOM      4  C   LIG    1       -2.253  -4.653   0.926  0.00  0.00    +0.150 C 
ATOM      5  O   LIG    1       -1.033  -4.105   1.430  0.00  0.00    -0.370 OA
ATOM      6  C   LIG    1       -0.993  -2.676   1.435  0.00  0.00    +0.360 C 
ENDROOT
BRANCH   1  11
ATOM      7  N   LIG    1       -0.016   1.344   0.009  0.00  0.00    -0.870 N 
ATOM      8  H   LIG    1       -0.863   1.817   0.016  0.00  0.00    +0.400 HD
ATOM      9  H   LIG    1        0.817   1.840   0.004  0.00  0.00    +0.420 HD
ATOM     10  C   LIG    1        0.002  -0.004   0.002  0.00  0.00    +0.710 C 
ATOM     11  N   LIG    1       -1.156  -0.694   0.009  0.00  0.00    -0.720 N 
ATOM     12  H   LIG    1       -2.002  -0.220   0.020  0.00  0.00    +0.400 HD
ATOM     13  O   LIG    1        1.063  -0.598  -0.011  0.00  0.00    -0.590 OA
ENDBRANCH   1  11
BRANCH   3  14
ATOM     14  O   LIG    1       -1.378  -4.729  -1.328  0.00  0.00    -0.540 OA
ATOM     15  H   LIG    1       -1.319  -5.694  -1.331  0.00  0.00    +0.380 HD
ENDBRANCH   3  14
BRANCH   2  16
ATOM     16  O   LIG    1       -2.551  -2.265  -1.958  0.00  0.00    -0.540 OA
ATOM     17  H   LIG    1       -3.357  -2.564  -2.400  0.00  0.00    +0.380 HD
ENDBRANCH   2  16
BRANCH   6  18
ATOM     18  O   LIG    1       -2.066  -2.171   2.232  0.00  0.00    -0.580 OA
ATOM     19  H   LIG    1       -2.041  -2.460   3.154  0.00  0.00    +0.390 HD
ENDBRANCH   6  18
BRANCH   4  20
ATOM     20  C   LIG    1       -2.192  -6.181   0.995  0.00  0.00    +0.200 C 
BRANCH  20  21
ATOM     21  O   LIG    1       -2.130  -6.594   2.362  0.00  0.00    -0.560 OA
ATOM     22  H   LIG    1       -2.089  -7.552   2.482  0.00  0.00    +0.380 HD
ENDBRANCH  20  21
ENDBRANCH   4  20
TORSDOF 6
ENDMDL
MODEL     1275
REMARK  Name = ZINC000000105116
REMARK                            x       y       z     vdW  Elec       q    Type
REMARK                         _______ _______ _______ _____ _____    ______ ____
ROOT
ATOM      1  C   LIG    1       -0.028   1.507   0.010  0.00  0.00    +0.140 C 
ATOM      2  C   LIG    1       -0.004  -0.000   0.002  0.00  0.00    +0.550 C 
ATOM      3  N   LIG    1       -0.005  -0.668  -1.169  0.00  0.00    -0.590 N 
ATOM      4  C   LIG    1       -0.020  -0.102  -2.383  0.00  0.00    +0.710 C 
ATOM      5  N   LIG    1       -0.017  -0.982  -3.392  0.00  0.00    -0.720 N 
ATOM      6  H   LIG    1       -0.027  -0.754  -4.335  0.00  0.00    +0.440 HD
ATOM      7  C   LIG    1        0.002  -2.347  -2.848  0.00  0.00    +0.490 C 
ATOM      8  N   LIG    1       -1.286  -3.004  -3.115  0.00  0.00    -0.600 N 
ATOM      9  C   LIG    1       -1.753  -3.391  -4.319  0.00  0.00    +0.540 C 
ATOM     10  O   LIG    1       -2.802  -3.993  -4.396  0.00  0.00    -0.460 OA
ATOM     11  C   LIG    1       -0.971  -3.077  -5.568  0.00  0.00    +0.130 C 
ATOM     12  C   LIG    1       -1.943  -3.145  -1.934  0.00  0.00    +0.690 C 
ATOM     13  O   LIG    1       -3.043  -3.656  -1.851  0.00  0.00    -0.510 OA
ATOM     14  N   LIG    1       -1.272  -2.682  -0.872  0.00  0.00    -0.720 N 
ATOM     15  H   LIG    1       -1.587  -2.706   0.045  0.00  0.00    +0.450 HD
ATOM     16  O   LIG    1       -0.034   1.101  -2.553  0.00  0.00    -0.530 OA
ATOM     17  C   LIG    1        0.017  -2.130  -1.314  0.00  0.00    +0.480 C 
ATOM     18  O   LIG    1        0.015  -0.612   1.048  0.00  0.00    -0.500 OA
ENDROOT
TORSDOF 0
ENDMDL
MODEL     1276
REMARK  Name = ZINC000239562582
REMARK                            x       y       z     vdW  Elec       q    Type
REMARK                         _______ _______ _______ _____ _____    ______ ____
ROOT
ATOM      1  C   LIG    1        0.652  -0.570  -1.138  0.00  0.00    +0.190 C 
ATOM      2  C   LIG    1        2.140  -0.759  -0.835  0.00  0.00    +0.150 C 
ATOM      3  C   LIG    1        2.835  -1.365  -2.056  0.00  0.00    +0.160 C 
ATOM      4  C   LIG    1        2.205  -2.721  -2.381  0.00  0.00    +0.200 C 
ATOM      5  C   LIG    1        0.717  -2.532  -2.684  0.00  0.00    +0.140 C 
ATOM      6  C   LIG    1        0.021  -1.926  -1.463  0.00  0.00    +0.170 C 
ENDROOT
BRANCH   1   8
ATOM      7  C   LIG    1       -0.017   1.425   0.010  0.00  0.00    +0.210 C 
ATOM      8  O   LIG    1        0.002  -0.004   0.002  0.00  0.00    -0.370 OA
ENDBRANCH   1   8
BRANCH   5   9
ATOM      9  O   LIG    1        0.128  -3.798  -2.987  0.00  0.00    -0.560 OA
ATOM     10  H   LIG    1       -0.816  -3.754  -3.190  0.00  0.00    +0.380 HD
ENDBRANCH   5   9
BRANCH   4  11
ATOM     11  O   LIG    1        2.356  -3.597  -1.262  0.00  0.00    -0.380 OA
ATOM     12  C   LIG    1        2.451  -4.979  -1.615  0.00  0.00    +0.220 C 
ENDBRANCH   4  11
BRANCH   3  13
ATOM     13  O   LIG    1        2.684  -0.489  -3.174  0.00  0.00    -0.550 OA
ATOM     14  H   LIG    1        3.062   0.391  -3.038  0.00  0.00    +0.390 HD
ENDBRANCH   3  13
BRANCH   2  15
ATOM     15  O   LIG    1        2.728   0.507  -0.531  0.00  0.00    -0.560 OA
ATOM     16  H   LIG    1        3.673   0.463  -0.329  0.00  0.00    +0.380 HD
ENDBRANCH   2  15
BRANCH   6  17
ATOM     17  O   LIG    1       -1.368  -1.749  -1.746  0.00  0.00    -0.550 OA
ATOM     18  H   LIG    1       -1.833  -2.570  -1.961  0.00  0.00    +0.380 HD
ENDBRANCH   6  17
TORSDOF 6
ENDMDL
MODEL     1277
REMARK  Name = ZINC000004336491
REMARK                            x       y       z     vdW  Elec       q    Type
REMARK                         _______ _______ _______ _____ _____    ______ ____
ROOT
ATOM      1  C   LIG    1       -1.244  -2.135   0.003  0.00  0.00    +0.190 C 
ATOM      2  O   LIG    1       -2.602  -2.560   0.130  0.00  0.00    -0.370 OA
ATOM      3  C   LIG    1       -2.770  -3.979   0.160  0.00  0.00    +0.310 C 
ATOM      4  C   LIG    1       -2.255  -4.580  -1.151  0.00  0.00    +0.140 C 
ATOM      5  C   LIG    1       -0.786  -4.189  -1.340  0.00  0.00    +0.210 C 
ATOM      6  C   LIG    1       -0.667  -2.662  -1.314  0.00  0.00    +0.190 C 
ENDROOT
BRANCH   1   7
ATOM      7  C   LIG    1       -1.185  -0.630   0.010  0.00  0.00    +0.460 C 
ATOM      8  O   LIG    1       -2.208   0.015   0.023  0.00  0.00    -0.470 OA
BRANCH   7  10
ATOM      9  C   LIG    1       -0.018   1.448   0.010  0.00  0.00    +0.290 C 
ATOM     10  O   LIG    1        0.002  -0.004   0.002  0.00  0.00    -0.350 OA
ENDBRANCH   7  10
ENDBRANCH   1   7
BRANCH   5  11
ATOM     11  O   LIG    1       -0.317  -4.686  -2.595  0.00  0.00    -0.540 OA
ATOM     12  H   LIG    1       -0.369  -5.647  -2.682  0.00  0.00    +0.390 HD
ENDBRANCH   5  11
BRANCH   4  13
ATOM     13  O   LIG    1       -2.369  -6.004  -1.101  0.00  0.00    -0.560 OA
ATOM     14  H   LIG    1       -3.273  -6.322  -0.978  0.00  0.00    +0.400 HD
ENDBRANCH   4  13
BRANCH   3  15
ATOM     15  O   LIG    1       -4.155  -4.293   0.316  0.00  0.00    -0.540 OA
ATOM     16  H   LIG    1       -4.549  -3.942   1.127  0.00  0.00    +0.400 HD
ENDBRANCH   3  15
BRANCH   6  17
ATOM     17  O   LIG    1       -1.396  -2.108  -2.411  0.00  0.00    -0.530 OA
ATOM     18  H   LIG    1       -1.365  -1.143  -2.457  0.00  0.00    +0.380 HD
ENDBRANCH   6  17
TORSDOF 6
ENDMDL
MODEL     1278
REMARK  Name = ZINC000018152485
REMARK                            x       y       z     vdW  Elec       q    Type
REMARK                         _______ _______ _______ _____ _____    ______ ____
ROOT
ATOM      1  C   LIG    1       -0.018   1.461   0.010  0.00  0.00    +0.340 C 
ATOM      2  N   LIG    1        0.002  -0.004   0.002  0.00  0.00    -0.560 N 
ATOM      3  C   LIG    1       -1.164  -0.688   0.004  0.00  0.00    +0.580 A 
ATOM      4  C   LIG    1       -1.107  -2.152  -0.004  0.00  0.00    -0.310 A 
ATOM      5  C   LIG    1        0.143  -2.773  -0.014  0.00  0.00    +0.490 A 
ATOM      6  N   LIG    1        1.268  -1.992  -0.015  0.00  0.00    -0.540 N 
ATOM      7  C   LIG    1        2.588  -2.628  -0.025  0.00  0.00    +0.360 C 
ATOM      8  N   LIG    1        0.227  -4.128  -0.021  0.00  0.00    -0.610 N 
ATOM      9  H   LIG    1        1.100  -4.553  -0.028  0.00  0.00    +0.420 HD
ATOM     10  C   LIG    1       -0.881  -4.892  -0.020  0.00  0.00    +0.560 A 
ATOM     11  C   LIG    1       -2.155  -4.316  -0.011  0.00  0.00    -0.230 A 
ATOM     12  O   LIG    1       -0.772  -6.107  -0.027  0.00  0.00    -0.530 OA
ATOM     13  C   LIG    1       -2.283  -2.939  -0.003  0.00  0.00    +0.310 A 
ATOM     14  O   LIG    1       -2.231  -0.103   0.012  0.00  0.00    -0.470 OA
ATOM     15  C   LIG    1        1.179  -0.652  -0.013  0.00  0.00    +0.710 A 
ATOM     16  O   LIG    1        2.204   0.001  -0.014  0.00  0.00    -0.520 OA
ENDROOT
BRANCH  13  17
ATOM     17  O   LIG    1       -3.505  -2.358   0.007  0.00  0.00    -0.430 OA
ATOM     18  H   LIG    1       -4.240  -2.986   0.007  0.00  0.00    +0.410 HD
ENDBRANCH  13  17
TORSDOF 1
ENDMDL
MODEL     1279
REMARK  Name = ZINC000001470790
REMARK                            x       y       z     vdW  Elec       q    Type
REMARK                         _______ _______ _______ _____ _____    ______ ____
ROOT
ATOM      1  O   LIG    1        0.002  -0.004   0.002  0.00  0.00    -0.460 OA
ATOM      2  C   LIG    1       -0.014   1.212   0.009  0.00  0.00    +0.600 A 
ATOM      3  N   LIG    1       -1.183   1.879   0.029  0.00  0.00    -0.650 N 
ATOM      4  H   LIG    1       -2.014   1.379   0.038  0.00  0.00    +0.450 HD
ATOM      5  C   LIG    1       -1.222   3.220   0.037  0.00  0.00    +0.720 A 
ATOM      6  N   LIG    1       -0.112   3.972   0.026  0.00  0.00    -0.510 N 
ATOM      7  C   LIG    1        1.160   3.387   0.005  0.00  0.00    +0.340 A 
ATOM      8  N   LIG    1        2.340   3.968  -0.009  0.00  0.00    -0.500 NA
ATOM      9  S   LIG    1        3.490   2.729  -0.032  0.00  0.00    +0.670 S 
ATOM     10  N   LIG    1        2.495   1.529  -0.025  0.00  0.00    -0.460 NA
ATOM     11  O   LIG    1       -2.304   3.773   0.056  0.00  0.00    -0.520 OA
ATOM     12  C   LIG    1        1.256   1.983   0.001  0.00  0.00    -0.030 A 
ENDROOT
BRANCH   6  13
ATOM     13  C   LIG    1       -0.233   5.432   0.036  0.00  0.00    +0.350 C 
BRANCH  13  14
ATOM     14  C   LIG    1       -0.255   5.932   1.482  0.00  0.00    +0.180 C 
BRANCH  14  15
ATOM     15  O   LIG    1        1.002   5.652   2.101  0.00  0.00    -0.560 OA
ATOM     16  H   LIG    1        1.060   5.943   3.022  0.00  0.00    +0.380 HD
ENDBRANCH  14  15
ENDBRANCH  13  14
ENDBRANCH   6  13
TORSDOF 3
ENDMDL
MODEL     1280
REMARK  Name = ZINC000000162126
REMARK                            x       y       z     vdW  Elec       q    Type
REMARK                         _______ _______ _______ _____ _____    ______ ____
ROOT
ATOM      1  O   LIG    1        0.002  -0.004   0.002  0.00  0.00    -0.520 OA
ATOM      2  C   LIG    1       -0.014   1.209   0.009  0.00  0.00    +0.520 C 
ATOM      3  N   LIG    1       -1.196   1.833   0.029  0.00  0.00    -0.710 N 
ATOM      4  H   LIG    1       -2.004   1.297   0.036  0.00  0.00    +0.410 HD
ATOM      5  CA  LIG    1       -1.322   3.284   0.040  0.00  0.00    +0.260 C 
ATOM      6  C   LIG    1       -0.064   3.944  -0.439  0.00  0.00    +0.520 C 
ATOM      7  N   LIG    1        1.118   3.320  -0.454  0.00  0.00    -0.710 N 
ATOM      8  H   LIG    1        1.894   3.804  -0.777  0.00  0.00    +0.410 HD
ATOM      9  O   LIG    1       -0.121   5.091  -0.828  0.00  0.00    -0.520 OA
ATOM     10  CA  LIG    1        1.291   1.945   0.000  0.00  0.00    +0.260 C 
ENDROOT
BRANCH   5  11
ATOM     11  C   LIG    1       -1.620   3.751   1.466  0.00  0.00    +0.050 C 
BRANCH  11  12
ATOM     12  C   LIG    1       -2.986   3.218   1.902  0.00  0.00    +0.180 C 
BRANCH  12  13
ATOM     13  O   LIG    1       -3.265   3.654   3.234  0.00  0.00    -0.570 OA
ATOM     14  H   LIG    1       -4.117   3.352   3.577  0.00  0.00    +0.390 HD
ENDBRANCH  12  13
ENDBRANCH  11  12
ENDBRANCH   5  11
BRANCH  10  15
ATOM     15  C   LIG    1        1.882   1.954   1.411  0.00  0.00    +0.050 C 
BRANCH  15  16
ATOM     16  C   LIG    1        3.290   2.552   1.371  0.00  0.00    +0.180 C 
BRANCH  16  17
ATOM     17  O   LIG    1        3.842   2.561   2.689  0.00  0.00    -0.570 OA
ATOM     18  H   LIG    1        4.735   2.928   2.739  0.00  0.00    +0.390 HD
ENDBRANCH  16  17
ENDBRANCH  15  16
ENDBRANCH  10  15
TORSDOF 6
ENDMDL
MODEL     1281
REMARK  Name = ZINC000040380449
REMARK                            x       y       z     vdW  Elec       q    Type
REMARK                         _______ _______ _______ _____ _____    ______ ____
ROOT
ATOM      1  O   LIG    1       -0.808   0.157   0.237  0.00  0.00    -0.420 OA
ATOM      2  C   LIG    1       -0.619   1.350   0.198  0.00  0.00    +0.490 C 
ATOM      3  O   LIG    1       -1.565   2.301   0.290  0.00  0.00    -0.340 OA
ATOM      4  C   LIG    1       -1.167   3.437  -0.526  0.00  0.00    +0.220 C 
ATOM      5  C   LIG    1       -1.605   4.730   0.110  0.00  0.00    +0.000 C 
ATOM      6  C   LIG    1       -0.629   5.296   0.762  0.00  0.00    -0.090 C 
ATOM      7  C   LIG    1        0.633   4.471   0.682  0.00  0.00    +0.040 C 
ATOM      8  C   LIG    1        0.387   3.449  -0.479  0.00  0.00    +0.020 C 
ATOM      9  C   LIG    1        0.724   2.032   0.044  0.00  0.00    -0.030 C 
ENDROOT
BRANCH   7  10
ATOM     10  C   LIG    1        0.869   3.734   2.002  0.00  0.00    +0.190 C 
BRANCH  10  11
ATOM     11  O   LIG    1        0.967   4.683   3.066  0.00  0.00    -0.570 OA
ATOM     12  H   LIG    1        1.117   4.285   3.935  0.00  0.00    +0.390 HD
ENDBRANCH  10  11
ENDBRANCH   7  10
BRANCH   6  13
ATOM     13  C   LIG    1       -0.745   6.604   1.501  0.00  0.00    +0.260 C 
BRANCH  13  14
ATOM     14  O   LIG    1       -2.075   7.109   1.370  0.00  0.00    -0.570 OA
ATOM     15  H   LIG    1       -2.223   7.952   1.822  0.00  0.00    +0.390 HD
ENDBRANCH  13  14
ENDBRANCH   6  13
BRANCH   9  16
ATOM     16  C   LIG    1        1.606   1.289  -0.961  0.00  0.00    +0.200 C 
BRANCH  16  17
ATOM     17  O   LIG    1        2.000   0.031  -0.410  0.00  0.00    -0.560 OA
ATOM     18  H   LIG    1        2.563  -0.496  -0.994  0.00  0.00    +0.390 HD
ENDBRANCH  16  17
ENDBRANCH   9  16
TORSDOF 6
ENDMDL
MODEL     1282
REMARK  Name = ZINC000100050336
REMARK                            x       y       z     vdW  Elec       q    Type
REMARK                         _______ _______ _______ _____ _____    ______ ____
ROOT
ATOM      1  C   LIG    1        0.682  -2.090   1.095  0.00  0.00    +0.130 C 
ATOM      2  C   LIG    1        1.292  -2.656   2.124  0.00  0.00    -0.150 C 
ATOM      3  C   LIG    1        1.411  -4.149   2.265  0.00  0.00    +0.200 C 
ATOM      4  C   LIG    1        0.391  -4.832   1.347  0.00  0.00    +0.170 C 
ATOM      5  C   LIG    1        0.476  -4.175  -0.037  0.00  0.00    +0.200 C 
ATOM      6  O   LIG    1        0.105  -2.799   0.096  0.00  0.00    -0.280 OA
ENDROOT
BRANCH   1   7
ATOM      7  C   LIG    1        0.623  -0.616   1.037  0.00  0.00    +0.410 C 
ATOM      8  N   LIG    1        1.168   0.095   1.980  0.00  0.00    -0.730 NA
ATOM      9  H   LIG    1        1.613  -0.343   2.722  0.00  0.00    +0.360 HD
BRANCH   7  11
ATOM     10  C   LIG    1       -0.017   1.425   0.010  0.00  0.00    +0.260 C 
ATOM     11  O   LIG    1        0.002  -0.004   0.002  0.00  0.00    -0.300 OA
ENDBRANCH   7  11
ENDBRANCH   1   7
BRANCH   4  12
ATOM     12  O   LIG    1       -0.925  -4.665   1.880  0.00  0.00    -0.540 OA
ATOM     13  H   LIG    1       -1.042  -5.041   2.763  0.00  0.00    +0.390 HD
ENDBRANCH   4  12
BRANCH   3  14
ATOM     14  O   LIG    1        1.155  -4.521   3.621  0.00  0.00    -0.550 OA
ATOM     15  H   LIG    1        1.764  -4.125   4.259  0.00  0.00    +0.390 HD
ENDBRANCH   3  14
BRANCH   5  16
ATOM     16  C   LIG    1       -0.483  -4.877  -1.000  0.00  0.00    +0.230 C 
BRANCH  16  17
ATOM     17  O   LIG    1       -0.316  -4.340  -2.314  0.00  0.00    -0.570 OA
ATOM     18  H   LIG    1       -0.894  -4.739  -2.979  0.00  0.00    +0.390 HD
ENDBRANCH  16  17
ENDBRANCH   5  16
TORSDOF 6
ENDMDL
MODEL     1283
REMARK  Name = ZINC000011612315
REMARK                            x       y       z     vdW  Elec       q    Type
REMARK                         _______ _______ _______ _____ _____    ______ ____
ROOT
ATOM      1  C4    C A  1        0.002  -0.004   0.002  0.00  0.00    +0.510 A 
ATOM      2  N3    C A  1       -1.135  -0.687   0.004  0.00  0.00    -0.620 NA
ATOM      3  C2    C A  1       -1.129  -2.018  -0.004  0.00  0.00    +0.660 A 
ATOM      4  N1    C A  1        0.026  -2.708  -0.014  0.00  0.00    -0.540 N 
ATOM      5  C6    C A  1        1.220  -2.050  -0.016  0.00  0.00    +0.390 A 
ATOM      6  O2    C A  1       -2.189  -2.623  -0.003  0.00  0.00    -0.550 OA
ATOM      7  C5    C A  1        1.230  -0.697  -0.013  0.00  0.00    -0.160 A 
ENDROOT
BRANCH   4   8
ATOM      8  C1*   C A  1        0.001  -4.173  -0.023  0.00  0.00    +0.420 C 
ATOM      9  C2*   C A  1       -0.724  -4.691   1.238  0.00  0.00    +0.020 C 
ATOM     10  C3*   C A  1        0.132  -5.928   1.625  0.00  0.00    +0.170 C 
ATOM     11  C4*   C A  1        1.545  -5.452   1.203  0.00  0.00    +0.190 C 
ATOM     12  O4*   C A  1        1.340  -4.682   0.005  0.00  0.00    -0.360 OA
BRANCH  10  13
ATOM     13  O3*   C A  1       -0.266  -7.083   0.883  0.00  0.00    -0.550 OA
ATOM     14  H3*   C A  1       -1.182  -7.352   1.036  0.00  0.00    +0.390 HD
ENDBRANCH  10  13
BRANCH  11  15
ATOM     15  C5*   C A  1        2.447  -6.653   0.915  0.00  0.00    +0.220 C 
BRANCH  15  16
ATOM     16  O5*   C A  1        3.773  -6.199   0.641  0.00  0.00    -0.570 OA
ATOM     17  H5*   C A  1        4.401  -6.909   0.449  0.00  0.00    +0.380 HD
ENDBRANCH  15  16
ENDBRANCH  11  15
ENDBRANCH   4   8
BRANCH   1  18
ATOM     18  N4    C A  1       -0.017   1.371   0.010  0.00  0.00    -0.820 N 
ATOM     19  H41   C A  1       -0.863   1.845   0.016  0.00  0.00    +0.410 HD
ATOM     20  H42   C A  1        0.817   1.868   0.004  0.00  0.00    +0.420 HD
ENDBRANCH   1  18
TORSDOF 5
ENDMDL
MODEL     1284
REMARK  Name = ZINC000257355274
REMARK                            x       y       z     vdW  Elec       q    Type
REMARK                         _______ _______ _______ _____ _____    ______ ____
ROOT
ATOM      1  C   LIG    1       -2.571  -2.688   0.012  0.00  0.00    +0.180 C 
ATOM      2  O   LIG    1       -3.240  -2.228   1.188  0.00  0.00    -0.380 OA
ATOM      3  C   LIG    1       -4.603  -2.646   1.286  0.00  0.00    +0.300 C 
ATOM      4  C   LIG    1       -4.664  -4.175   1.329  0.00  0.00    +0.130 C 
ATOM      5  C   LIG    1       -3.989  -4.742   0.076  0.00  0.00    +0.160 C 
ATOM      6  C   LIG    1       -2.551  -4.219   0.004  0.00  0.00    +0.170 C 
ENDROOT
BRANCH   5   7
ATOM      7  O   LIG    1       -3.978  -6.169   0.143  0.00  0.00    -0.550 OA
ATOM      8  H   LIG    1       -4.858  -6.567   0.197  0.00  0.00    +0.390 HD
ENDBRANCH   5   7
BRANCH   4   9
ATOM      9  O   LIG    1       -3.985  -4.647   2.494  0.00  0.00    -0.520 OA
ATOM     10  H   LIG    1       -4.358  -4.324   3.325  0.00  0.00    +0.380 HD
ENDBRANCH   4   9
BRANCH   3  11
ATOM     11  O   LIG    1       -5.182  -2.112   2.478  0.00  0.00    -0.540 OA
ATOM     12  H   LIG    1       -5.176  -1.146   2.519  0.00  0.00    +0.390 HD
ENDBRANCH   3  11
BRANCH   6  13
ATOM     13  O   LIG    1       -1.813  -4.693   1.133  0.00  0.00    -0.530 OA
ATOM     14  H   LIG    1       -1.764  -5.657   1.193  0.00  0.00    +0.390 HD
ENDBRANCH   6  13
BRANCH   1  15
ATOM     15  C   LIG    1       -1.136  -2.159   0.001  0.00  0.00    +0.310 C 
BRANCH  15  18
ATOM     16  C   LIG    1       -0.018   1.503   0.010  0.00  0.00    +0.100 C 
ATOM     17  C   LIG    1        0.002  -0.004   0.002  0.00  0.00    +0.510 C 
ATOM     18  N   LIG    1       -1.156  -0.694   0.009  0.00  0.00    -0.730 N 
ATOM     19  H   LIG    1       -2.002  -0.220   0.020  0.00  0.00    +0.400 HD
ATOM     20  O   LIG    1        1.060  -0.596  -0.011  0.00  0.00    -0.540 OA
ENDBRANCH  15  18
ENDBRANCH   1  15
TORSDOF 6
ENDMDL
MODEL     1285
REMARK  Name = ZINC000011755707
REMARK                            x       y       z     vdW  Elec       q    Type
REMARK                         _______ _______ _______ _____ _____    ______ ____
ROOT
ATOM      1  N   LIG    1        0.713  -0.491   1.192  0.00  0.00    -0.540 NA
ATOM      2  C   LIG    1        1.962   0.253   1.400  0.00  0.00    +0.180 C 
ATOM      3  C   LIG    1        2.579  -0.157   2.741  0.00  0.00    +0.300 C 
ATOM      4  N   LIG    1        2.716  -1.621   2.766  0.00  0.00    -1.000 NA
ATOM      5  C   LIG    1        1.537  -2.435   2.432  0.00  0.00    +0.300 C 
ATOM      6  C   LIG    1        0.961  -1.936   1.103  0.00  0.00    +0.170 C 
ENDROOT
BRANCH   4   7
ATOM      7  S   LIG    1        4.157  -2.334   3.159  0.00  0.00    +2.610 S 
ATOM      8  O   LIG    1        5.135  -1.363   2.810  0.00  0.00    -0.950 OA
ATOM      9  O   LIG    1        4.113  -3.596   2.507  0.00  0.00    -0.950 OA
BRANCH   7  10
ATOM     10  C   LIG    1        4.083  -2.545   4.959  0.00  0.00    -0.360 C 
BRANCH  10  11
ATOM     11  C   LIG    1        5.374  -3.202   5.449  0.00  0.00    +0.200 C 
BRANCH  11  12
ATOM     12  N   LIG    1        5.314  -3.373   6.907  0.00  0.00    -0.840 NA
ATOM     13  H   LIG    1        5.143  -2.491   7.367  0.00  0.00    +0.350 HD
ATOM     14  H   LIG    1        6.156  -3.805   7.256  0.00  0.00    +0.350 HD
ENDBRANCH  11  12
ENDBRANCH  10  11
ENDBRANCH   7  10
ENDBRANCH   4   7
BRANCH   1  16
ATOM     15  C   LIG    1       -0.019   1.526   0.010  0.00  0.00    +0.030 C 
ATOM     16  C   LIG    1        0.002  -0.004   0.002  0.00  0.00    +0.160 C 
ENDBRANCH   1  16
TORSDOF 5
ENDMDL
MODEL     1286
REMARK  Name = ZINC000089913906
REMARK                            x       y       z     vdW  Elec       q    Type
REMARK                         _______ _______ _______ _____ _____    ______ ____
ROOT
ATOM      1  N   LIG    1        0.688  -0.476  -1.203  0.00  0.00    -0.710 N 
ATOM      2  H   LIG    1        1.632  -0.695  -1.170  0.00  0.00    +0.410 HD
ATOM      3  C   LIG    1        0.006  -0.608  -2.358  0.00  0.00    +0.510 C 
ATOM      4  O   LIG    1       -1.175  -0.336  -2.400  0.00  0.00    -0.520 OA
ENDROOT
BRANCH   3   5
ATOM      5  C   LIG    1        0.712  -1.094  -3.598  0.00  0.00    +0.230 C 
ATOM      6  C   LIG    1        1.460   0.065  -4.285  0.00  0.00    +0.290 C 
ATOM      7  N   LIG    1        0.827   0.158  -5.609  0.00  0.00    -0.740 N 
ATOM      8  H   LIG    1        1.065   0.794  -6.302  0.00  0.00    +0.440 HD
ATOM      9  C   LIG    1       -0.129  -0.775  -5.706  0.00  0.00    +0.710 C 
ATOM     10  O   LIG    1       -0.814  -0.922  -6.700  0.00  0.00    -0.580 OA
ATOM     11  N   LIG    1       -0.263  -1.535  -4.607  0.00  0.00    -0.720 N 
ATOM     12  H   LIG    1       -0.902  -2.257  -4.498  0.00  0.00    +0.440 HD
ENDBRANCH   3   5
BRANCH   1  14
ATOM     13  C   LIG    1       -0.019   1.526   0.010  0.00  0.00    +0.060 C 
ATOM     14  C   LIG    1        0.002  -0.004   0.002  0.00  0.00    +0.340 C 
BRANCH  14  15
ATOM     15  C   LIG    1        0.731  -0.503   1.223  0.00  0.00    +0.160 A 
ATOM     16  N   LIG    1        2.022  -0.483   1.415  0.00  0.00    -0.280 NA
ATOM     17  N   LIG    1        2.296  -0.987   2.566  0.00  0.00    -0.290 NA
ATOM     18  C   LIG    1        1.192  -1.353   3.160  0.00  0.00    +0.380 A 
ATOM     19  N   LIG    1        0.167  -1.051   2.327  0.00  0.00    -0.470 N 
ATOM     20  C   LIG    1       -1.260  -1.279   2.567  0.00  0.00    +0.350 C 
ENDBRANCH  14  15
ENDBRANCH   1  14
TORSDOF 3
ENDMDL
MODEL     1287
REMARK  Name = ZINC000000002159
REMARK                            x       y       z     vdW  Elec       q    Type
REMARK                         _______ _______ _______ _____ _____    ______ ____
ROOT
ATOM      1  C5M   T A  1       -0.018   1.503   0.010  0.00  0.00    +0.140 C 
ATOM      2  C5    T A  1        0.002  -0.004   0.002  0.00  0.00    -0.260 A 
ATOM      3  C6    T A  1       -1.153  -0.704   0.004  0.00  0.00    +0.370 A 
ATOM      4  N1    T A  1       -1.116  -2.072  -0.004  0.00  0.00    -0.530 N 
ATOM      5  C2    T A  1        0.060  -2.726  -0.013  0.00  0.00    +0.700 A 
ATOM      6  N3    T A  1        1.226  -2.053  -0.016  0.00  0.00    -0.660 N 
ATOM      7  H3    T A  1        2.064  -2.540  -0.023  0.00  0.00    +0.430 HD
ATOM      8  O2    T A  1        0.069  -3.942  -0.020  0.00  0.00    -0.540 OA
ATOM      9  C4    T A  1        1.232  -0.705  -0.013  0.00  0.00    +0.550 A 
ATOM     10  O4    T A  1        2.287  -0.095  -0.016  0.00  0.00    -0.510 OA
ENDROOT
BRANCH   4  11
ATOM     11  C1*   T A  1       -2.369  -2.831  -0.002  0.00  0.00    +0.420 C 
ATOM     12  C2*   T A  1       -2.490  -3.686  -1.289  0.00  0.00    +0.010 C 
ATOM     13  C3*   T A  1       -4.023  -3.866  -1.415  0.00  0.00    +0.170 C 
ATOM     14  C4*   T A  1       -4.609  -2.714  -0.577  0.00  0.00    +0.190 C 
ATOM     15  O4*   T A  1       -3.503  -1.941  -0.076  0.00  0.00    -0.360 OA
BRANCH  13  16
ATOM     16  O3*   T A  1       -4.423  -5.130  -0.881  0.00  0.00    -0.550 OA
ATOM     17  H3*   T A  1       -4.036  -5.890  -1.337  0.00  0.00    +0.390 HD
ENDBRANCH  13  16
BRANCH  14  18
ATOM     18  C5*   T A  1       -5.507  -1.838  -1.453  0.00  0.00    +0.210 C 
BRANCH  18  19
ATOM     19  O5*   T A  1       -6.137  -0.843  -0.644  0.00  0.00    -0.560 OA
ATOM     20  H5*   T A  1       -6.723  -0.250  -1.135  0.00  0.00    +0.390 HD
ENDBRANCH  18  19
ENDBRANCH  14  18
ENDBRANCH   4  11
TORSDOF 4
ENDMDL
MODEL     1288
REMARK  Name = ZINC000000242261
REMARK                            x       y       z     vdW  Elec       q    Type
REMARK                         _______ _______ _______ _____ _____    ______ ____
ROOT
ATOM      1  C   LIG    1        0.021  -2.119  -1.096  0.00  0.00    +0.440 C 
ATOM      2  C   LIG    1        0.367  -2.709  -2.474  0.00  0.00    +0.440 C 
ATOM      3  N   LIG    1       -0.924  -3.157  -3.031  0.00  0.00    -0.640 N 
ATOM      4  C   LIG    1       -1.752  -3.496  -1.862  0.00  0.00    +0.510 C 
ATOM      5  C   LIG    1       -1.270  -3.240  -4.331  0.00  0.00    +0.690 C 
ATOM      6  O   LIG    1       -2.376  -3.629  -4.641  0.00  0.00    -0.520 OA
ATOM      7  N   LIG    1       -1.318  -2.629  -0.756  0.00  0.00    -0.640 N 
ATOM      8  C   LIG    1       -2.017  -2.352   0.362  0.00  0.00    +0.670 C 
ATOM      9  O   LIG    1       -3.117  -2.837   0.525  0.00  0.00    -0.520 OA
ENDROOT
BRANCH   1  10
ATOM     10  O   LIG    1        0.000  -0.669  -1.164  0.00  0.00    -0.360 OA
BRANCH  10  12
ATOM     11  C   LIG    1       -0.018   1.503   0.010  0.00  0.00    +0.170 C 
ATOM     12  C   LIG    1        0.002  -0.004   0.002  0.00  0.00    +0.470 C 
ATOM     13  O   LIG    1        0.020  -0.614   1.045  0.00  0.00    -0.500 OA
ENDBRANCH  10  12
ENDBRANCH   1  10
BRANCH   2  14
ATOM     14  O   LIG    1        1.275  -3.833  -2.329  0.00  0.00    -0.360 OA
BRANCH  14  15
ATOM     15  C   LIG    1        1.907  -4.253  -3.436  0.00  0.00    +0.470 C 
ATOM     16  O   LIG    1        1.709  -3.700  -4.492  0.00  0.00    -0.510 OA
ATOM     17  C   LIG    1        2.864  -5.415  -3.362  0.00  0.00    +0.160 C 
ENDBRANCH  14  15
ENDBRANCH   2  14
TORSDOF 4
ENDMDL
MODEL     1289
REMARK  Name = ZINC000029723252
REMARK                            x       y       z     vdW  Elec       q    Type
REMARK                         _______ _______ _______ _____ _____    ______ ____
ROOT
ATOM      1  C   LIG    1        2.305  -5.714  -4.119  0.00  0.00    +0.260 C 
ENDROOT
BRANCH   1   5
ATOM      2  N   LIG    1        0.592  -4.057  -1.319  0.00  0.00    -0.740 N 
ATOM      3  H   LIG    1        0.622  -3.128  -1.597  0.00  0.00    +0.400 HD
ATOM      4  C   LIG    1        1.133  -5.012  -2.102  0.00  0.00    +0.710 C 
ATOM      5  N   LIG    1        1.716  -4.676  -3.269  0.00  0.00    -0.710 N 
ATOM      6  H   LIG    1        1.746  -3.747  -3.546  0.00  0.00    +0.410 HD
ATOM      7  O   LIG    1        1.095  -6.176  -1.754  0.00  0.00    -0.590 OA
BRANCH   2   8
ATOM      8  C   LIG    1       -0.043  -4.422  -0.050  0.00  0.00    +0.280 C 
BRANCH   8   9
ATOM      9  C   LIG    1       -0.572  -3.162   0.637  0.00  0.00    +0.010 C 
BRANCH   9  11
ATOM     10  C   LIG    1       -1.763  -2.283   2.649  0.00  0.00    +0.010 C 
ATOM     11  C   LIG    1       -1.234  -3.543   1.962  0.00  0.00    +0.020 C 
ENDBRANCH   9  11
ENDBRANCH   8   9
ENDBRANCH   2   8
ENDBRANCH   1   5
BRANCH   1  12
ATOM     12  C   LIG    1        3.713  -5.998  -3.664  0.00  0.00    +0.510 C 
ATOM     13  O   LIG    1        4.334  -5.154  -3.053  0.00  0.00    -0.510 OA
ATOM     14  N   LIG    1        4.281  -7.189  -3.935  0.00  0.00    -0.850 N 
ATOM     15  H   LIG    1        5.210  -7.347  -3.705  0.00  0.00    +0.410 HD
ATOM     16  H   LIG    1        3.761  -7.889  -4.360  0.00  0.00    +0.400 HD
ENDBRANCH   1  12
BRANCH   1  17
ATOM     17  C   LIG    1        2.326  -5.239  -5.550  0.00  0.00    +0.530 C 
ATOM     18  O   LIG    1        2.357  -4.052  -5.794  0.00  0.00    -0.520 OA
ATOM     19  N   LIG    1        2.309  -6.135  -6.557  0.00  0.00    -0.840 N 
ATOM     20  H   LIG    1        2.395  -5.833  -7.475  0.00  0.00    +0.410 HD
ATOM     21  H   LIG    1        2.212  -7.080  -6.364  0.00  0.00    +0.410 HD
ENDBRANCH   1  17
TORSDOF 6
ENDMDL
MODEL     1290
REMARK  Name = ZINC000001678793
REMARK                            x       y       z     vdW  Elec       q    Type
REMARK                         _______ _______ _______ _____ _____    ______ ____
ROOT
ATOM      1  O   LIG    1       -0.527   0.711  -0.991  0.00  0.00    -0.510 OA
ATOM      2  C   LIG    1        0.017   1.127   0.011  0.00  0.00    +0.520 C 
ATOM      3  N   LIG    1       -0.499   0.845   1.224  0.00  0.00    -0.600 N 
ATOM      4  C   LIG    1        0.074   1.433   2.446  0.00  0.00    +0.250 C 
ATOM      5  C   LIG    1       -1.065   2.053   3.263  0.00  0.00    +0.220 C 
ATOM      6  O   LIG    1       -2.095   1.080   3.450  0.00  0.00    -0.380 OA
ATOM      7  C   LIG    1       -2.705   0.634   2.236  0.00  0.00    +0.220 C 
ATOM      8  C   LIG    1       -1.654  -0.055   1.366  0.00  0.00    +0.270 C 
ENDROOT
BRANCH   2   9
ATOM      9  C   LIG    1        1.254   1.957  -0.100  0.00  0.00    +0.520 C 
ATOM     10  N   LIG    1        2.460   1.361  -0.191  0.00  0.00    -0.600 N 
ATOM     11  C   LIG    1        2.575  -0.102  -0.300  0.00  0.00    +0.250 C 
ATOM     12  C   LIG    1        3.489  -0.428  -1.487  0.00  0.00    +0.220 C 
ATOM     13  O   LIG    1        4.713   0.298  -1.352  0.00  0.00    -0.380 OA
ATOM     14  C   LIG    1        4.558   1.718  -1.378  0.00  0.00    +0.220 C 
ATOM     15  C   LIG    1        3.699   2.155  -0.191  0.00  0.00    +0.270 C 
ATOM     16  O   LIG    1        1.174   3.168  -0.108  0.00  0.00    -0.510 OA
ENDBRANCH   2   9
TORSDOF 1
ENDMDL
MODEL     1291
REMARK  Name = ZINC000033571209
REMARK                            x       y       z     vdW  Elec       q    Type
REMARK                         _______ _______ _______ _____ _____    ______ ____
ROOT
ATOM      1  C   LIG    1       -1.000  -2.388  -0.892  0.00  0.00    +0.110 C 
ENDROOT
BRANCH   1   2
ATOM      2  S   LIG    1       -1.512  -0.906   0.012  0.00  0.00    +0.140 S 
BRANCH   2   6
ATOM      3  N   LIG    1       -0.016   1.329   0.009  0.00  0.00    -0.740 N 
ATOM      4  H   LIG    1       -0.863   1.802   0.016  0.00  0.00    +0.450 HD
ATOM      5  H   LIG    1        0.817   1.825   0.004  0.00  0.00    +0.420 HD
ATOM      6  C   LIG    1        0.002  -0.004   0.002  0.00  0.00    +0.450 C 
BRANCH   6   7
ATOM      7  N   LIG    1        1.165  -0.655  -0.013  0.00  0.00    -0.770 N 
ATOM      8  H   LIG    1        1.999  -0.158  -0.018  0.00  0.00    +0.420 HD
ATOM      9  H   LIG    1        1.179  -1.625  -0.018  0.00  0.00    +0.440 HD
ENDBRANCH   6   7
ENDBRANCH   2   6
ENDBRANCH   1   2
BRANCH   1  10
ATOM     10  C   LIG    1       -2.187  -3.347  -1.012  0.00  0.00    -0.510 C 
BRANCH  10  11
ATOM     11  S   LIG    1       -3.537  -2.530  -1.906  0.00  0.00    +2.620 S 
ATOM     12  O   LIG    1       -3.066  -2.160  -3.232  0.00  0.00    -1.040 OA
ATOM     13  O   LIG    1       -3.937  -1.341  -1.167  0.00  0.00    -1.030 OA
ATOM     14  O   LIG    1       -4.656  -3.453  -2.011  0.00  0.00    -1.030 OA
ENDBRANCH  10  11
BRANCH  10  15
ATOM     15  C   LIG    1       -1.754  -4.600  -1.776  0.00  0.00    +0.250 C 
BRANCH  15  16
ATOM     16  O   LIG    1       -0.616  -5.179  -1.136  0.00  0.00    -0.580 OA
ATOM     17  H   LIG    1       -0.286  -5.979  -1.568  0.00  0.00    +0.380 HD
ENDBRANCH  15  16
ENDBRANCH  10  15
ENDBRANCH   1  10
TORSDOF 7
ENDMDL
MODEL     1292
REMARK  Name = ZINC000033571208
REMARK                            x       y       z     vdW  Elec       q    Type
REMARK                         _______ _______ _______ _____ _____    ______ ____
ROOT
ATOM      1  C   LIG    1       -1.000  -2.388  -0.892  0.00  0.00    +0.120 C 
ENDROOT
BRANCH   1   2
ATOM      2  S   LIG    1       -1.512  -0.906   0.012  0.00  0.00    +0.140 S 
BRANCH   2   6
ATOM      3  N   LIG    1       -0.016   1.329   0.009  0.00  0.00    -0.750 N 
ATOM      4  H   LIG    1       -0.863   1.802   0.016  0.00  0.00    +0.450 HD
ATOM      5  H   LIG    1        0.817   1.825   0.004  0.00  0.00    +0.420 HD
ATOM      6  C   LIG    1        0.002  -0.004   0.002  0.00  0.00    +0.450 C 
BRANCH   6   7
ATOM      7  N   LIG    1        1.165  -0.655  -0.013  0.00  0.00    -0.770 N 
ATOM      8  H   LIG    1        1.999  -0.158  -0.018  0.00  0.00    +0.420 HD
ATOM      9  H   LIG    1        1.179  -1.625  -0.018  0.00  0.00    +0.440 HD
ENDBRANCH   6   7
ENDBRANCH   2   6
ENDBRANCH   1   2
BRANCH   1  10
ATOM     10  C   LIG    1       -2.187  -3.347  -1.012  0.00  0.00    -0.510 C 
BRANCH  10  11
ATOM     11  S   LIG    1       -2.755  -3.816   0.645  0.00  0.00    +2.620 S 
ATOM     12  O   LIG    1       -3.142  -2.599   1.342  0.00  0.00    -1.040 OA
ATOM     13  O   LIG    1       -1.642  -4.453   1.332  0.00  0.00    -1.020 OA
ATOM     14  O   LIG    1       -3.884  -4.729   0.569  0.00  0.00    -1.040 OA
ENDBRANCH  10  11
BRANCH  10  15
ATOM     15  C   LIG    1       -1.754  -4.600  -1.776  0.00  0.00    +0.230 C 
BRANCH  15  16
ATOM     16  O   LIG    1       -0.616  -5.179  -1.136  0.00  0.00    -0.560 OA
ATOM     17  H   LIG    1       -0.286  -5.979  -1.568  0.00  0.00    +0.380 HD
ENDBRANCH  15  16
ENDBRANCH  10  15
ENDBRANCH   1  10
TORSDOF 7
ENDMDL
MODEL     1293
REMARK  Name = ZINC000012503752
REMARK                            x       y       z     vdW  Elec       q    Type
REMARK                         _______ _______ _______ _____ _____    ______ ____
ROOT
ATOM      1  C1*   U A  1        0.071   5.388   0.412  0.00  0.00    +0.430 C 
ATOM      2  C2*   U A  1        1.156   5.914   1.376  0.00  0.00    +0.000 C 
ATOM      3  C3*   U A  1        0.467   7.157   2.002  0.00  0.00    +0.170 C 
ATOM      4  C4*   U A  1       -1.008   6.682   2.049  0.00  0.00    +0.180 C 
ATOM      5  O4*   U A  1       -1.190   5.902   0.855  0.00  0.00    -0.350 OA
ENDROOT
BRANCH   1  10
ATOM      6  O4    U A  1        0.002  -0.004   0.002  0.00  0.00    -0.500 OA
ATOM      7  C4    U A  1       -0.014   1.208   0.009  0.00  0.00    +0.520 C 
ATOM      8  C5    U A  1       -1.330   1.945   0.032  0.00  0.00    +0.090 C 
ATOM      9  C6    U A  1       -1.174   3.228   0.850  0.00  0.00    +0.310 C 
ATOM     10  N1    U A  1        0.048   3.923   0.441  0.00  0.00    -0.620 N 
ATOM     11  C2    U A  1        1.149   3.237   0.093  0.00  0.00    +0.720 C 
ATOM     12  O2    U A  1        2.176   3.843  -0.141  0.00  0.00    -0.550 OA
ATOM     13  N3    U A  1        1.141   1.897   0.001  0.00  0.00    -0.680 N 
ATOM     14  H3    U A  1        1.982   1.419  -0.079  0.00  0.00    +0.430 HD
ENDBRANCH   1  10
BRANCH   3  15
ATOM     15  O3*   U A  1        0.968   7.417   3.314  0.00  0.00    -0.550 OA
ATOM     16  H3*   U A  1        1.914   7.613   3.342  0.00  0.00    +0.390 HD
ENDBRANCH   3  15
BRANCH   4  17
ATOM     17  C5*   U A  1       -1.953   7.885   2.049  0.00  0.00    +0.210 C 
BRANCH  17  18
ATOM     18  O5*   U A  1       -3.299   7.433   2.211  0.00  0.00    -0.570 OA
ATOM     19  H5*   U A  1       -3.954   8.144   2.219  0.00  0.00    +0.380 HD
ENDBRANCH  17  18
ENDBRANCH   4  17
TORSDOF 4
ENDMDL
MODEL     1294
REMARK  Name = ZINC000004566055
REMARK                            x       y       z     vdW  Elec       q    Type
REMARK                         _______ _______ _______ _____ _____    ______ ____
ROOT
ATOM      1  O   LIG    1       -1.062   1.774   0.009  0.00  0.00    -0.530 OA
ATOM      2  C   LIG    1       -0.004   1.182  -0.001  0.00  0.00    +0.640 C 
ATOM      3  N   LIG    1        1.154   1.871  -0.012  0.00  0.00    -0.660 N 
ATOM      4  C   LIG    1        2.443   1.170   0.081  0.00  0.00    +0.410 C 
ATOM      5  C   LIG    1        3.231   1.747   1.263  0.00  0.00    +0.410 C 
ATOM      6  N   LIG    1        3.228   3.213   1.157  0.00  0.00    -0.670 N 
ATOM      7  C   LIG    1        1.940   3.914   1.065  0.00  0.00    +0.430 C 
ATOM      8  C   LIG    1        4.387   3.902   1.146  0.00  0.00    +0.640 C 
ATOM      9  O   LIG    1        5.445   3.309   1.124  0.00  0.00    -0.530 OA
ATOM     10  C   LIG    1        1.152   3.336  -0.123  0.00  0.00    +0.430 C 
ENDROOT
BRANCH   7  11
ATOM     11  O   LIG    1        2.167   5.310   0.858  0.00  0.00    -0.540 OA
ATOM     12  H   LIG    1        2.604   5.751   1.599  0.00  0.00    +0.390 HD
ENDBRANCH   7  11
BRANCH   5  13
ATOM     13  O   LIG    1        4.575   1.263   1.225  0.00  0.00    -0.530 OA
ATOM     14  H   LIG    1        5.131   1.589   1.946  0.00  0.00    +0.400 HD
ENDBRANCH   5  13
BRANCH   4  15
ATOM     15  O   LIG    1        2.215  -0.226   0.288  0.00  0.00    -0.540 OA
ATOM     16  H   LIG    1        1.779  -0.667  -0.454  0.00  0.00    +0.390 HD
ENDBRANCH   4  15
BRANCH  10  17
ATOM     17  O   LIG    1        1.769   3.736  -1.348  0.00  0.00    -0.550 OA
ATOM     18  H   LIG    1        1.322   3.405  -2.139  0.00  0.00    +0.390 HD
ENDBRANCH  10  17
TORSDOF 4
ENDMDL
MODEL     1295
REMARK  Name = ZINC000000330510
REMARK                            x       y       z     vdW  Elec       q    Type
REMARK                         _______ _______ _______ _____ _____    ______ ____
ROOT
ATOM      1  C   LIG    1       -1.186  -0.718  -0.165  0.00  0.00    +0.470 A 
ATOM      2  C   LIG    1       -1.169  -2.087   0.008  0.00  0.00    -0.140 A 
ATOM      3  C   LIG    1       -2.389  -2.764   0.194  0.00  0.00    +0.570 A 
ATOM      4  N   LIG    1       -3.542  -2.066   0.200  0.00  0.00    -0.560 N 
ATOM      5  C   LIG    1       -3.539  -0.732   0.030  0.00  0.00    +0.710 A 
ATOM      6  O   LIG    1       -4.594  -0.127   0.040  0.00  0.00    -0.530 OA
ATOM      7  C   LIG    1       -4.813  -2.769   0.394  0.00  0.00    +0.330 C 
ATOM      8  O   LIG    1       -2.403  -3.973   0.349  0.00  0.00    -0.510 OA
ATOM      9  N   LIG    1       -2.391  -0.054  -0.145  0.00  0.00    -0.640 N 
ATOM     10  H   LIG    1       -2.413   0.908  -0.265  0.00  0.00    +0.430 HD
ENDROOT
BRANCH   2  11
ATOM     11  N   LIG    1        0.050  -2.796  -0.002  0.00  0.00    -0.640 N 
ATOM     12  H   LIG    1        0.746  -2.574   0.637  0.00  0.00    +0.400 HD
ATOM     13  C   LIG    1        0.250  -3.784  -0.899  0.00  0.00    +0.510 C 
ATOM     14  O   LIG    1       -0.581  -4.002  -1.756  0.00  0.00    -0.490 OA
BRANCH  13  15
ATOM     15  C   LIG    1        1.505  -4.616  -0.838  0.00  0.00    +0.230 C 
BRANCH  15  16
ATOM     16  O   LIG    1        1.483  -5.588  -1.885  0.00  0.00    -0.550 OA
ATOM     17  H   LIG    1        2.262  -6.161  -1.907  0.00  0.00    +0.390 HD
ENDBRANCH  15  16
ENDBRANCH  13  15
ENDBRANCH   2  11
BRANCH   1  19
ATOM     18  C   LIG    1       -0.041   1.428  -0.524  0.00  0.00    +0.300 C 
ATOM     19  N   LIG    1       -0.013  -0.026  -0.348  0.00  0.00    -0.710 N 
ATOM     20  H   LIG    1        0.833  -0.500  -0.361  0.00  0.00    +0.420 HD
ENDBRANCH   1  19
TORSDOF 4
ENDMDL
MODEL     1296
REMARK  Name = ZINC000025540717
REMARK                            x       y       z     vdW  Elec       q    Type
REMARK                         _______ _______ _______ _____ _____    ______ ____
ROOT
ATOM      1  O   LIG    1        0.002  -0.004   0.002  0.00  0.00    -0.440 OA
ATOM      2  C   LIG    1       -0.014   1.204   0.009  0.00  0.00    +0.460 C 
ATOM      3  O   LIG    1       -1.121   1.960   0.029  0.00  0.00    -0.310 OA
ATOM      4  C   LIG    1       -0.802   3.296   0.519  0.00  0.00    +0.180 C 
ATOM      5  C   LIG    1        0.659   3.531   0.071  0.00  0.00    +0.200 C 
ATOM      6  C   LIG    1        1.212   2.091   0.002  0.00  0.00    +0.120 C 
ENDROOT
BRANCH   5   7
ATOM      7  O   LIG    1        1.370   4.304   1.041  0.00  0.00    -0.550 OA
ATOM      8  H   LIG    1        2.291   4.478   0.805  0.00  0.00    +0.400 HD
ENDBRANCH   5   7
BRANCH   6   9
ATOM      9  O   LIG    1        1.951   1.900  -1.206  0.00  0.00    -0.540 OA
ATOM     10  H   LIG    1        2.322   1.012  -1.304  0.00  0.00    +0.400 HD
ENDBRANCH   6   9
BRANCH   4  11
ATOM     11  C   LIG    1       -1.732   4.333  -0.113  0.00  0.00    +0.230 C 
BRANCH  11  12
ATOM     12  O   LIG    1       -1.516   4.368  -1.526  0.00  0.00    -0.550 OA
ATOM     13  H   LIG    1       -1.685   3.525  -1.970  0.00  0.00    +0.380 HD
ENDBRANCH  11  12
BRANCH  11  14
ATOM     14  C   LIG    1       -3.187   3.956   0.172  0.00  0.00    +0.200 C 
BRANCH  14  15
ATOM     15  O   LIG    1       -3.430   2.622  -0.280  0.00  0.00    -0.530 OA
ATOM     16  H   LIG    1       -3.283   2.495  -1.227  0.00  0.00    +0.370 HD
ENDBRANCH  14  15
BRANCH  14  17
ATOM     17  C   LIG    1       -4.118   4.921  -0.563  0.00  0.00    +0.170 C 
BRANCH  17  18
ATOM     18  O   LIG    1       -5.473   4.642  -0.205  0.00  0.00    -0.570 OA
ATOM     19  H   LIG    1       -6.120   5.218  -0.635  0.00  0.00    +0.380 HD
ENDBRANCH  17  18
ENDBRANCH  14  17
ENDBRANCH  11  14
ENDBRANCH   4  11
TORSDOF 8
ENDMDL
MODEL     1297
REMARK  Name = ZINC000000374273
REMARK                            x       y       z     vdW  Elec       q    Type
REMARK                         _______ _______ _______ _____ _____    ______ ____
ROOT
ATOM      1  O   LIG    1        0.002  -0.004   0.002  0.00  0.00    -0.970 OA
ATOM      2  S   LIG    1       -0.017   1.417   0.010  0.00  0.00    +2.780 S 
ATOM      3  O   LIG    1        1.162   2.210   0.003  0.00  0.00    -0.970 OA
ENDROOT
BRANCH   2   4
ATOM      4  N   LIG    1       -0.875   1.865   1.354  0.00  0.00    -1.010 NA
ATOM      5  C   LIG    1       -0.686   3.191   1.965  0.00  0.00    +0.270 C 
ATOM      6  C   LIG    1       -2.064   3.837   2.154  0.00  0.00    +0.210 C 
ATOM      7  O   LIG    1       -2.917   2.929   2.855  0.00  0.00    -0.370 OA
ATOM      8  C   LIG    1       -3.169   1.706   2.159  0.00  0.00    +0.210 C 
ATOM      9  C   LIG    1       -1.852   0.953   1.968  0.00  0.00    +0.270 C 
ENDBRANCH   2   4
BRANCH   2  10
ATOM     10  N   LIG    1       -0.900   1.880  -1.312  0.00  0.00    -1.010 NA
ATOM     11  C   LIG    1       -1.894   0.976  -1.914  0.00  0.00    +0.270 C 
ATOM     12  C   LIG    1       -3.212   1.742  -2.069  0.00  0.00    +0.210 C 
ATOM     13  O   LIG    1       -2.966   2.968  -2.763  0.00  0.00    -0.370 OA
ATOM     14  C   LIG    1       -2.091   3.864  -2.075  0.00  0.00    +0.210 C 
ATOM     15  C   LIG    1       -0.719   3.209  -1.917  0.00  0.00    +0.270 C 
ENDBRANCH   2  10
TORSDOF 2
ENDMDL
MODEL     1298
REMARK  Name = ZINC000000370772
REMARK                            x       y       z     vdW  Elec       q    Type
REMARK                         _______ _______ _______ _____ _____    ______ ____
ROOT
ATOM      1  C   LIG    1        0.002  -0.004   0.002  0.00  0.00    +0.510 A 
ATOM      2  C   LIG    1       -1.195  -0.739   0.004  0.00  0.00    -0.120 A 
ATOM      3  N   LIG    1       -2.511  -0.417   0.012  0.00  0.00    -0.460 NA
ATOM      4  C   LIG    1       -3.224  -1.506   0.010  0.00  0.00    +0.470 A 
ATOM      5  N   LIG    1       -2.407  -2.597  -0.001  0.00  0.00    -0.470 N 
ATOM      6  C   LIG    1       -1.113  -2.142  -0.005  0.00  0.00    +0.320 A 
ATOM      7  N   LIG    1        0.085  -2.718  -0.015  0.00  0.00    -0.550 NA
ATOM      8  C   LIG    1        1.181  -1.989  -0.016  0.00  0.00    +0.570 A 
ATOM      9  N   LIG    1        1.153  -0.668  -0.013  0.00  0.00    -0.590 NA
ENDROOT
BRANCH   1  10
ATOM     10  N   LIG    1       -0.017   1.380   0.010  0.00  0.00    -0.820 N 
ATOM     11  H   LIG    1       -0.863   1.853   0.016  0.00  0.00    +0.420 HD
ATOM     12  H   LIG    1        0.817   1.876   0.004  0.00  0.00    +0.410 HD
ENDBRANCH   1  10
BRANCH   5  13
ATOM     13  C   LIG    1       -2.833  -3.999  -0.007  0.00  0.00    +0.290 C 
BRANCH  13  14
ATOM     14  C   LIG    1       -2.853  -4.532   1.427  0.00  0.00    +0.200 C 
BRANCH  14  15
ATOM     15  O   LIG    1       -1.523  -4.544   1.950  0.00  0.00    -0.540 OA
ATOM     16  H   LIG    1       -0.908  -5.096   1.448  0.00  0.00    +0.380 HD
ENDBRANCH  14  15
BRANCH  14  17
ATOM     17  C   LIG    1       -3.416  -5.955   1.434  0.00  0.00    +0.160 C 
BRANCH  17  18
ATOM     18  O   LIG    1       -3.544  -6.410   2.783  0.00  0.00    -0.560 OA
ATOM     19  H   LIG    1       -3.896  -7.307   2.863  0.00  0.00    +0.380 HD
ENDBRANCH  17  18
ENDBRANCH  14  17
ENDBRANCH  13  14
ENDBRANCH   5  13
TORSDOF 6
ENDMDL
MODEL     1299
REMARK  Name = ZINC000035610875
REMARK                            x       y       z     vdW  Elec       q    Type
REMARK                         _______ _______ _______ _____ _____    ______ ____
ROOT
ATOM      1  O   LIG    1        0.002  -0.004   0.002  0.00  0.00    -0.970 OA
ATOM      2  S   LIG    1       -0.017   1.417   0.010  0.00  0.00    +2.790 S 
ATOM      3  O   LIG    1        1.162   2.210   0.003  0.00  0.00    -0.970 OA
ENDROOT
BRANCH   2   4
ATOM      4  N   LIG    1       -0.875   1.865   1.354  0.00  0.00    -1.010 NA
ATOM      5  C   LIG    1       -0.686   3.191   1.965  0.00  0.00    +0.260 C 
ATOM      6  C   LIG    1       -2.064   3.837   2.154  0.00  0.00    +0.220 C 
ATOM      7  O   LIG    1       -2.917   2.929   2.855  0.00  0.00    -0.380 OA
ATOM      8  C   LIG    1       -3.169   1.706   2.159  0.00  0.00    +0.220 C 
ATOM      9  C   LIG    1       -1.852   0.953   1.968  0.00  0.00    +0.270 C 
ENDBRANCH   2   4
BRANCH   2  10
ATOM     10  N   LIG    1       -0.900   1.880  -1.312  0.00  0.00    -1.120 NA
ATOM     11  H   LIG    1       -1.261   1.209  -1.914  0.00  0.00    +0.420 HD
BRANCH  10  12
ATOM     12  C   LIG    1       -1.137   3.302  -1.574  0.00  0.00    +0.280 C 
BRANCH  12  13
ATOM     13  C   LIG    1       -1.634   3.480  -3.010  0.00  0.00    +0.190 C 
BRANCH  13  14
ATOM     14  O   LIG    1       -2.910   2.852  -3.153  0.00  0.00    -0.570 OA
ATOM     15  H   LIG    1       -3.287   2.926  -4.040  0.00  0.00    +0.390 HD
ENDBRANCH  13  14
ENDBRANCH  12  13
ENDBRANCH  10  12
ENDBRANCH   2  10
TORSDOF 5
ENDMDL
MODEL     1300
REMARK  Name = ZINC000398141366
REMARK                            x       y       z     vdW  Elec       q    Type
REMARK                         _______ _______ _______ _____ _____    ______ ____
ROOT
ATOM      1  N   LIG    1        1.581  -1.046  -1.877  0.00  0.00    -1.120 NA
ATOM      2  H   LIG    1        1.925  -0.618  -2.677  0.00  0.00    +0.420 HD
ENDROOT
BRANCH   1   3
ATOM      3  S   LIG    1       -0.000  -0.824  -1.437  0.00  0.00    +2.790 S 
ATOM      4  O   LIG    1       -0.566   0.055  -2.399  0.00  0.00    -0.970 OA
ATOM      5  O   LIG    1       -0.525  -2.116  -1.161  0.00  0.00    -0.970 OA
BRANCH   3   7
ATOM      6  C   LIG    1       -0.018   1.461   0.010  0.00  0.00    +0.300 C 
ATOM      7  N   LIG    1        0.002  -0.004   0.002  0.00  0.00    -1.010 NA
ATOM      8  C   LIG    1        0.024  -0.743   1.267  0.00  0.00    +0.300 C 
ENDBRANCH   3   7
ENDBRANCH   1   3
BRANCH   1   9
ATOM      9  C   LIG    1        2.458  -1.886  -1.060  0.00  0.00    +0.430 C 
BRANCH   9  10
ATOM     10  C   LIG    1        3.701  -2.226  -1.842  0.00  0.00    +0.150 A 
ATOM     11  N   LIG    1        3.869  -3.260  -2.629  0.00  0.00    -0.290 NA
ATOM     12  N   LIG    1        5.062  -3.199  -3.114  0.00  0.00    -0.140 N 
ATOM     13  N   LIG    1        5.651  -2.151  -2.652  0.00  0.00    -0.060 NA
ATOM     14  C   LIG    1        5.652  -4.167  -4.041  0.00  0.00    +0.430 C 
ATOM     15  N   LIG    1        4.836  -1.528  -1.870  0.00  0.00    -0.270 NA
ENDBRANCH   9  10
ENDBRANCH   1   9
TORSDOF 4
ENDMDL
MODEL     1301
REMARK  Name = ZINC000013410098
REMARK                            x       y       z     vdW  Elec       q    Type
REMARK                         _______ _______ _______ _____ _____    ______ ____
ROOT
ATOM      1  C   LIG    1        0.668  -0.571  -1.175  0.00  0.00    +0.180 C 
ATOM      2  C   LIG    1       -0.337  -0.827  -2.302  0.00  0.00    +0.170 C 
ATOM      3  C   LIG    1        0.382  -1.514  -3.467  0.00  0.00    +0.130 C 
ATOM      4  C   LIG    1        1.032  -2.806  -2.964  0.00  0.00    +0.160 C 
ATOM      5  O   LIG    1        1.932  -2.500  -1.897  0.00  0.00    -0.390 OA
ATOM      6  C   LIG    1        1.309  -1.899  -0.760  0.00  0.00    +0.430 C 
ENDROOT
BRANCH   1   8
ATOM      7  C   LIG    1       -0.050   1.432  -0.072  0.00  0.00    +0.190 C 
ATOM      8  O   LIG    1       -0.007   0.004  -0.054  0.00  0.00    -0.350 OA
ENDBRANCH   1   8
BRANCH   3   9
ATOM      9  O   LIG    1        1.388  -0.643  -3.987  0.00  0.00    -0.550 OA
ATOM     10  H   LIG    1        1.885  -1.014  -4.729  0.00  0.00    +0.380 HD
ENDBRANCH   3   9
BRANCH   2  11
ATOM     11  O   LIG    1       -1.388  -1.669  -1.823  0.00  0.00    -0.520 OA
ATOM     12  H   LIG    1       -2.062  -1.873  -2.486  0.00  0.00    +0.370 HD
ENDBRANCH   2  11
BRANCH   6  13
ATOM     13  O   LIG    1        0.300  -2.774  -0.251  0.00  0.00    -0.340 OA
ATOM     14  C   LIG    1        0.807  -4.005   0.268  0.00  0.00    +0.220 C 
ENDBRANCH   6  13
BRANCH   6  15
ATOM     15  O   LIG    1        2.289  -1.661   0.252  0.00  0.00    -0.370 OA
ATOM     16  C   LIG    1        3.409  -0.893  -0.193  0.00  0.00    +0.230 C 
ENDBRANCH   6  15
BRANCH   4  17
ATOM     17  C   LIG    1        1.803  -3.467  -4.108  0.00  0.00    +0.210 C 
BRANCH  17  18
ATOM     18  O   LIG    1        2.313  -4.729  -3.672  0.00  0.00    -0.560 OA
ATOM     19  H   LIG    1        2.814  -5.206  -4.348  0.00  0.00    +0.380 HD
ENDBRANCH  17  18
ENDBRANCH   4  17
TORSDOF 7
ENDMDL
MODEL     1302
REMARK  Name = ZINC000013522771
REMARK                            x       y       z     vdW  Elec       q    Type
REMARK                         _______ _______ _______ _____ _____    ______ ____
ROOT
ATOM      1  C   LIG    1       -1.674   4.566   0.052  0.00  0.00    +0.260 C 
ATOM      2  O   LIG    1       -1.294   5.473  -1.006  0.00  0.00    -0.330 OA
ATOM      3  C   LIG    1       -1.772   6.776  -0.633  0.00  0.00    +0.140 C 
ATOM      4  C   LIG    1       -1.852   6.812   0.906  0.00  0.00    +0.140 C 
ATOM      5  C   LIG    1       -1.427   5.387   1.343  0.00  0.00    +0.190 C 
ENDROOT
BRANCH   1   9
ATOM      6  O   LIG    1        0.002  -0.004   0.002  0.00  0.00    -0.460 OA
ATOM      7  C   LIG    1       -0.014   1.210   0.009  0.00  0.00    +0.550 C 
ATOM      8  C   LIG    1       -1.226   2.059   0.031  0.00  0.00    +0.040 C 
ATOM      9  C   LIG    1       -0.806   3.335   0.032  0.00  0.00    -0.100 C 
ATOM     10  C   LIG    1        0.673   3.298   0.009  0.00  0.00    +0.560 C 
ATOM     11  O   LIG    1        1.407   4.265   0.004  0.00  0.00    -0.420 OA
ATOM     12  N   LIG    1        1.066   2.011   0.003  0.00  0.00    -0.690 N 
ATOM     13  H   LIG    1        1.987   1.708  -0.011  0.00  0.00    +0.430 HD
ENDBRANCH   1   9
BRANCH   4  14
ATOM     14  O   LIG    1       -3.189   7.087   1.331  0.00  0.00    -0.550 OA
ATOM     15  H   LIG    1       -3.527   7.943   1.035  0.00  0.00    +0.390 HD
ENDBRANCH   4  14
BRANCH   5  16
ATOM     16  O   LIG    1       -0.046   5.356   1.707  0.00  0.00    -0.530 OA
ATOM     17  H   LIG    1        0.177   5.929   2.454  0.00  0.00    +0.380 HD
ENDBRANCH   5  16
BRANCH   3  18
ATOM     18  C   LIG    1       -0.802   7.849  -1.131  0.00  0.00    +0.200 C 
BRANCH  18  19
ATOM     19  O   LIG    1       -0.812   7.874  -2.560  0.00  0.00    -0.560 OA
ATOM     20  H   LIG    1       -0.219   8.532  -2.946  0.00  0.00    +0.380 HD
ENDBRANCH  18  19
ENDBRANCH   3  18
TORSDOF 5
ENDMDL
MODEL     1303
REMARK  Name = ZINC000013511974
REMARK                            x       y       z     vdW  Elec       q    Type
REMARK                         _______ _______ _______ _____ _____    ______ ____
ROOT
ATOM      1  C   LIG    1       -0.045   1.462  -0.025  0.00  0.00    +0.350 C 
ATOM      2  N   LIG    1       -0.017  -0.003  -0.023  0.00  0.00    -0.630 N 
ATOM      3  C   LIG    1       -0.010  -0.779  -1.115  0.00  0.00    +0.700 C 
ATOM      4  N   LIG    1        0.017  -2.091  -0.849  0.00  0.00    -0.640 N 
ATOM      5  C   LIG    1        0.032  -2.292   0.607  0.00  0.00    +0.490 C 
ATOM      6  N   LIG    1       -1.246  -2.875   1.039  0.00  0.00    -0.680 N 
ATOM      7  H   LIG    1       -1.544  -3.778   0.848  0.00  0.00    +0.450 HD
ATOM      8  C   LIG    1       -1.936  -1.963   1.738  0.00  0.00    +0.700 C 
ATOM      9  N   LIG    1       -1.307  -0.787   1.865  0.00  0.00    -0.730 N 
ATOM     10  H   LIG    1       -1.654  -0.013   2.336  0.00  0.00    +0.440 HD
ATOM     11  N   LIG    1       -3.150  -2.208   2.267  0.00  0.00    -0.530 NA
ATOM     12  C   LIG    1        0.030  -3.159  -1.852  0.00  0.00    +0.340 C 
ATOM     13  O   LIG    1       -0.028  -0.333  -2.245  0.00  0.00    -0.550 OA
ATOM     14  C   LIG    1        0.014  -0.851   1.177  0.00  0.00    +0.500 C 
ENDROOT
BRANCH  11  15
ATOM     15  N   LIG    1       -3.718  -1.324   3.016  0.00  0.00    +0.220 N 
ATOM     16  O   LIG    1       -3.463  -1.280   4.206  0.00  0.00    -0.220 OA
ATOM     17  O   LIG    1       -4.508  -0.533   2.532  0.00  0.00    -0.220 OA
ENDBRANCH  11  15
TORSDOF 1
ENDMDL
MODEL     1304
REMARK  Name = ZINC000013533701
REMARK                            x       y       z     vdW  Elec       q    Type
REMARK                         _______ _______ _______ _____ _____    ______ ____
ROOT
ATOM      1  C   LIG    1        0.746  -1.888  -1.280  0.00  0.00    +0.310 C 
ATOM      2  O   LIG    1       -0.557  -2.416  -1.538  0.00  0.00    -0.360 OA
ATOM      3  C   LIG    1       -1.163  -1.915  -2.732  0.00  0.00    +0.190 C 
ATOM      4  C   LIG    1       -0.300  -2.293  -3.938  0.00  0.00    +0.170 C 
ATOM      5  C   LIG    1        1.111  -1.731  -3.744  0.00  0.00    +0.170 C 
ATOM      6  C   LIG    1        1.685  -2.266  -2.428  0.00  0.00    +0.150 C 
ENDROOT
BRANCH   5   7
ATOM      7  O   LIG    1        1.943  -2.140  -4.831  0.00  0.00    -0.560 OA
ATOM      8  H   LIG    1        2.853  -1.819  -4.773  0.00  0.00    +0.390 HD
ENDBRANCH   5   7
BRANCH   4   9
ATOM      9  O   LIG    1       -0.237  -3.717  -4.052  0.00  0.00    -0.550 OA
ATOM     10  H   LIG    1        0.295  -4.028  -4.798  0.00  0.00    +0.390 HD
ENDBRANCH   4   9
BRANCH   6  11
ATOM     11  O   LIG    1        2.974  -1.692  -2.201  0.00  0.00    -0.550 OA
ATOM     12  H   LIG    1        3.397  -1.986  -1.383  0.00  0.00    +0.390 HD
ENDBRANCH   6  11
BRANCH   1  13
ATOM     13  O   LIG    1        0.671  -0.465  -1.174  0.00  0.00    -0.390 OA
BRANCH  13  15
ATOM     14  C   LIG    1       -0.019   1.526   0.010  0.00  0.00    +0.040 C 
ATOM     15  C   LIG    1        0.002  -0.004   0.002  0.00  0.00    +0.170 C 
ENDBRANCH  13  15
ENDBRANCH   1  13
BRANCH   3  16
ATOM     16  C   LIG    1       -2.558  -2.524  -2.890  0.00  0.00    +0.220 C 
BRANCH  16  17
ATOM     17  O   LIG    1       -3.397  -2.076  -1.823  0.00  0.00    -0.570 OA
ATOM     18  H   LIG    1       -4.298  -2.424  -1.860  0.00  0.00    +0.380 HD
ENDBRANCH  16  17
ENDBRANCH   3  16
TORSDOF 7
ENDMDL
MODEL     1305
REMARK  Name = ZINC000013535594
REMARK                            x       y       z     vdW  Elec       q    Type
REMARK                         _______ _______ _______ _____ _____    ______ ____
ROOT
ATOM      1  C   LIG    1        0.018   1.500   0.012  0.00  0.00    +0.140 C 
ATOM      2  C   LIG    1        0.027  -0.007   0.003  0.00  0.00    +0.540 C 
ATOM      3  N   LIG    1        0.022  -0.675  -1.168  0.00  0.00    -0.560 N 
ATOM      4  C   LIG    1        0.015  -0.142  -2.433  0.00  0.00    +0.730 C 
ATOM      5  N   LIG    1       -0.230  -1.093  -3.387  0.00  0.00    -0.730 N 
ATOM      6  H   LIG    1       -0.037  -1.039  -4.336  0.00  0.00    +0.440 HD
ATOM      7  C   LIG    1       -0.843  -2.207  -2.668  0.00  0.00    +0.440 C 
ATOM      8  N   LIG    1       -0.484  -3.584  -2.984  0.00  0.00    -0.590 N 
ATOM      9  C   LIG    1       -0.350  -4.149  -4.200  0.00  0.00    +0.540 C 
ATOM     10  O   LIG    1        0.059  -5.286  -4.299  0.00  0.00    -0.470 OA
ATOM     11  C   LIG    1       -0.707  -3.366  -5.438  0.00  0.00    +0.130 C 
ATOM     12  C   LIG    1       -0.299  -4.198  -1.754  0.00  0.00    +0.720 C 
ATOM     13  O   LIG    1       -0.261  -5.404  -1.603  0.00  0.00    -0.470 OA
ATOM     14  N   LIG    1       -0.171  -3.294  -0.730  0.00  0.00    -0.690 N 
ATOM     15  H   LIG    1       -0.210  -3.472   0.223  0.00  0.00    +0.440 HD
ATOM     16  O   LIG    1        0.203   1.033  -2.677  0.00  0.00    -0.490 OA
ATOM     17  C   LIG    1        0.029  -2.061  -1.358  0.00  0.00    +0.370 C 
ATOM     18  O   LIG    1        0.039  -0.619   1.050  0.00  0.00    -0.490 OA
ENDROOT
TORSDOF 0
ENDMDL
MODEL     1306
REMARK  Name = ZINC000013545118
REMARK                            x       y       z     vdW  Elec       q    Type
REMARK                         _______ _______ _______ _____ _____    ______ ____
ROOT
ATOM      1  C   LIG    1        0.877  -0.392  -1.539  0.00  0.00    +0.180 C 
ATOM      2  O   LIG    1        0.099   0.051  -2.653  0.00  0.00    -0.340 OA
ATOM      3  C   LIG    1        0.711  -0.184  -3.923  0.00  0.00    +0.190 C 
ATOM      4  C   LIG    1        0.919  -1.688  -4.117  0.00  0.00    +0.180 C 
ATOM      5  C   LIG    1        1.776  -2.229  -2.969  0.00  0.00    +0.170 C 
ATOM      6  C   LIG    1        1.092  -1.904  -1.637  0.00  0.00    +0.160 C 
ENDROOT
BRANCH   1   8
ATOM      7  C   LIG    1       -0.022   1.810   0.012  0.00  0.00    +0.150 C 
ATOM      8  S   LIG    1        0.002  -0.004   0.002  0.00  0.00    -0.220 S 
ENDBRANCH   1   8
BRANCH   5   9
ATOM      9  O   LIG    1        3.067  -1.617  -3.006  0.00  0.00    -0.560 OA
ATOM     10  H   LIG    1        3.664  -1.915  -2.306  0.00  0.00    +0.390 HD
ENDBRANCH   5   9
BRANCH   4  11
ATOM     11  O   LIG    1       -0.348  -2.349  -4.121  0.00  0.00    -0.540 OA
ATOM     12  H   LIG    1       -0.291  -3.307  -4.240  0.00  0.00    +0.380 HD
ENDBRANCH   4  11
BRANCH   6  13
ATOM     13  O   LIG    1        1.917  -2.342  -0.556  0.00  0.00    -0.560 OA
ATOM     14  H   LIG    1        1.545  -2.168   0.319  0.00  0.00    +0.390 HD
ENDBRANCH   6  13
BRANCH   3  15
ATOM     15  C   LIG    1       -0.194   0.354  -5.033  0.00  0.00    +0.220 C 
BRANCH  15  16
ATOM     16  O   LIG    1       -0.295   1.774  -4.919  0.00  0.00    -0.570 OA
ATOM     17  H   LIG    1       -0.856   2.184  -5.593  0.00  0.00    +0.380 HD
ENDBRANCH  15  16
ENDBRANCH   3  15
TORSDOF 6
ENDMDL
MODEL     1307
REMARK  Name = ZINC000013582034
REMARK                            x       y       z     vdW  Elec       q    Type
REMARK                         _______ _______ _______ _____ _____    ______ ____
ROOT
ATOM      1  C   LIG    1       -0.846  -0.529  -1.450  0.00  0.00    -0.670 A 
ATOM      2  C   LIG    1       -2.213  -0.747  -1.410  0.00  0.00    +0.150 A 
ATOM      3  C   LIG    1       -2.885  -1.158  -2.543  0.00  0.00    +0.010 A 
ATOM      4  C   LIG    1       -2.190  -1.356  -3.731  0.00  0.00    +0.180 A 
ATOM      5  N   LIG    1       -2.875  -1.772  -4.870  0.00  0.00    -0.640 N 
ATOM      6  H   LIG    1       -3.832  -1.922  -4.831  0.00  0.00    +0.430 HD
ATOM      7  C   LIG    1       -2.209  -1.966  -6.026  0.00  0.00    +0.510 A 
ATOM      8  C   LIG    1       -0.736  -1.732  -6.069  0.00  0.00    +0.510 A 
ATOM      9  N   LIG    1       -0.098  -1.330  -4.951  0.00  0.00    -0.630 N 
ATOM     10  H   LIG    1        0.859  -1.175  -4.969  0.00  0.00    +0.430 HD
ATOM     11  O   LIG    1       -0.118  -1.901  -7.101  0.00  0.00    -0.460 OA
ATOM     12  O   LIG    1       -2.802  -2.328  -7.022  0.00  0.00    -0.450 OA
ATOM     13  C   LIG    1       -0.812  -1.137  -3.772  0.00  0.00    +0.100 A 
ATOM     14  C   LIG    1       -0.147  -0.717  -2.625  0.00  0.00    +0.150 A 
ENDROOT
BRANCH   1  15
ATOM     15  S   LIG    1        0.002  -0.004   0.002  0.00  0.00    +2.710 S 
ATOM     16  O   LIG    1       -0.792  -0.422   1.104  0.00  0.00    -0.950 OA
ATOM     17  O   LIG    1        1.360  -0.386  -0.166  0.00  0.00    -0.950 OA
BRANCH  15  18
ATOM     18  N   LIG    1       -0.020   1.652   0.011  0.00  0.00    -1.240 NA
ATOM     19  H   LIG    1       -0.867   2.125   0.018  0.00  0.00    +0.420 HD
ATOM     20  H   LIG    1        0.813   2.148   0.006  0.00  0.00    +0.420 HD
ENDBRANCH  15  18
ENDBRANCH   1  15
TORSDOF 2
ENDMDL
MODEL     1308
REMARK  Name = ZINC000013639034
REMARK                            x       y       z     vdW  Elec       q    Type
REMARK                         _______ _______ _______ _____ _____    ______ ____
ROOT
ATOM      1  C   LIG    1        0.002  -0.004   0.002  0.00  0.00    +0.480 A 
ATOM      2  C   LIG    1       -1.169  -0.710   0.004  0.00  0.00    -0.240 A 
ATOM      3  C   LIG    1       -1.120  -2.112  -0.004  0.00  0.00    +0.560 A 
ATOM      4  N   LIG    1        0.075  -2.736  -0.013  0.00  0.00    -0.660 N 
ATOM      5  H   LIG    1        0.111  -3.706  -0.018  0.00  0.00    +0.430 HD
ATOM      6  C   LIG    1        1.218  -2.026  -0.015  0.00  0.00    +0.710 A 
ATOM      7  O   LIG    1        2.285  -2.609  -0.023  0.00  0.00    -0.530 OA
ATOM      8  O   LIG    1       -2.151  -2.763  -0.003  0.00  0.00    -0.530 OA
ATOM      9  N   LIG    1        1.198  -0.681  -0.013  0.00  0.00    -0.540 N 
ENDROOT
BRANCH   1  10
ATOM     10  N   LIG    1       -0.017   1.367   0.010  0.00  0.00    -0.840 N 
ATOM     11  H   LIG    1       -0.863   1.841   0.016  0.00  0.00    +0.430 HD
ATOM     12  H   LIG    1        0.817   1.864   0.004  0.00  0.00    +0.400 HD
ENDBRANCH   1  10
BRANCH   9  13
ATOM     13  C   LIG    1        2.458   0.067  -0.015  0.00  0.00    +0.310 C 
BRANCH  13  14
ATOM     14  C   LIG    1        2.893   0.328  -1.459  0.00  0.00    +0.170 C 
BRANCH  14  15
ATOM     15  N   LIG    1        4.156   1.078  -1.461  0.00  0.00    -0.530 NA
ATOM     16  C   LIG    1        4.105   2.200  -0.512  0.00  0.00    +0.140 C 
ATOM     17  C   LIG    1        5.458   2.915  -0.503  0.00  0.00    +0.220 C 
ATOM     18  O   LIG    1        5.775   3.342  -1.831  0.00  0.00    -0.380 OA
ATOM     19  C   LIG    1        5.834   2.275  -2.780  0.00  0.00    +0.220 C 
ATOM     20  C   LIG    1        4.484   1.553  -2.813  0.00  0.00    +0.160 C 
ENDBRANCH  14  15
ENDBRANCH  13  14
ENDBRANCH   9  13
TORSDOF 4
ENDMDL
MODEL     1309
REMARK  Name = ZINC000013531111
REMARK                            x       y       z     vdW  Elec       q    Type
REMARK                         _______ _______ _______ _____ _____    ______ ____
ROOT
ATOM      1  C   LIG    1       -0.018   1.461   0.010  0.00  0.00    +0.380 C 
ATOM      2  N   LIG    1        0.002  -0.004   0.002  0.00  0.00    -0.350 N 
ATOM      3  N   LIG    1        0.009  -0.836  -1.128  0.00  0.00    -0.030 NA
ATOM      4  N   LIG    1        0.027  -2.066  -0.748  0.00  0.00    -0.160 NA
ATOM      5  C   LIG    1        0.033  -2.132   0.591  0.00  0.00    -0.150 A 
ATOM      6  C   LIG    1        0.052  -3.232   1.558  0.00  0.00    +0.590 A 
ATOM      7  O   LIG    1        0.062  -4.394   1.192  0.00  0.00    -0.490 OA
ATOM      8  N   LIG    1        0.051  -2.912   2.872  0.00  0.00    -0.530 N 
ATOM      9  C   LIG    1        0.040  -1.612   3.261  0.00  0.00    +0.650 A 
ATOM     10  N   LIG    1        0.027  -0.623   2.416  0.00  0.00    -0.520 NA
ATOM     11  C   LIG    1        0.024  -0.823   1.090  0.00  0.00    +0.300 A 
ENDROOT
BRANCH   8  12
ATOM     12  C   LIG    1        0.065  -3.974   3.881  0.00  0.00    +0.360 C 
BRANCH  12  13
ATOM     13  C   LIG    1       -1.351  -4.351   4.233  0.00  0.00    +0.500 C 
ATOM     14  O   LIG    1       -2.281  -3.788   3.694  0.00  0.00    -0.530 OA
ATOM     15  N   LIG    1       -1.585  -5.314   5.146  0.00  0.00    -0.850 N 
ATOM     16  H   LIG    1       -2.497  -5.557   5.373  0.00  0.00    +0.410 HD
ATOM     17  H   LIG    1       -0.842  -5.764   5.578  0.00  0.00    +0.410 HD
ENDBRANCH  12  13
ENDBRANCH   8  12
TORSDOF 2
ENDMDL
MODEL     1310
REMARK  Name = ZINC000001498437
REMARK                            x       y       z     vdW  Elec       q    Type
REMARK                         _______ _______ _______ _____ _____    ______ ____
ROOT
ATOM      1  C   LIG    1       -0.018   1.461   0.010  0.00  0.00    +0.350 C 
ATOM      2  N   LIG    1        0.002  -0.004   0.002  0.00  0.00    -0.510 N 
ATOM      3  C   LIG    1       -1.189  -0.713   0.004  0.00  0.00    +0.360 A 
ATOM      4  C   LIG    1       -1.141  -2.102  -0.004  0.00  0.00    -0.180 A 
ATOM      5  N   LIG    1       -2.460  -2.538   0.001  0.00  0.00    -0.440 N 
ATOM      6  C   LIG    1       -3.240  -1.425   0.011  0.00  0.00    +0.570 A 
ATOM      7  C   LIG    1        0.108  -2.747  -0.013  0.00  0.00    +0.600 A 
ATOM      8  N   LIG    1        1.234  -2.004  -0.015  0.00  0.00    -0.650 N 
ATOM      9  H   LIG    1        2.098  -2.445  -0.021  0.00  0.00    +0.440 HD
ATOM     10  O   LIG    1        0.173  -3.964  -0.021  0.00  0.00    -0.520 OA
ATOM     11  N   LIG    1       -2.474  -0.354   0.012  0.00  0.00    -0.520 NA
ATOM     12  C   LIG    1        1.177  -0.661  -0.013  0.00  0.00    +0.710 A 
ATOM     13  O   LIG    1        2.213  -0.023  -0.014  0.00  0.00    -0.540 OA
ENDROOT
BRANCH   6  14
ATOM     14  N   LIG    1       -4.616  -1.419   0.018  0.00  0.00    -0.550 N 
ATOM     15  H   LIG    1       -5.105  -2.257   0.017  0.00  0.00    +0.420 HD
BRANCH  14  16
ATOM     16  N   LIG    1       -5.293  -0.233   0.028  0.00  0.00    -0.580 NA
ATOM     17  H   LIG    1       -6.291  -0.386   0.033  0.00  0.00    +0.370 HD
ATOM     18  H   LIG    1       -5.020   0.346  -0.752  0.00  0.00    +0.350 HD
ENDBRANCH  14  16
ENDBRANCH   6  14
BRANCH   5  19
ATOM     19  C   LIG    1       -2.921  -3.929  -0.004  0.00  0.00    +0.330 C 
BRANCH  19  20
ATOM     20  C   LIG    1       -3.074  -4.420   1.437  0.00  0.00    +0.170 C 
BRANCH  20  21
ATOM     21  O   LIG    1       -3.523  -5.777   1.433  0.00  0.00    -0.570 OA
ATOM     22  H   LIG    1       -3.643  -6.154   2.315  0.00  0.00    +0.390 HD
ENDBRANCH  20  21
ENDBRANCH  19  20
ENDBRANCH   5  19
TORSDOF 5
ENDMDL
MODEL     1311
REMARK  Name = ZINC000014242230
REMARK                            x       y       z     vdW  Elec       q    Type
REMARK                         _______ _______ _______ _____ _____    ______ ____
ROOT
ATOM      1  N   LIG    1        0.690  -0.478  -1.207  0.00  0.00    -0.520 NA
ATOM      2  C   LIG    1        0.225   0.248  -2.395  0.00  0.00    +0.180 C 
ATOM      3  C   LIG    1        1.062  -0.166  -3.608  0.00  0.00    +0.040 C 
ATOM      4  C   LIG    1        0.926  -1.676  -3.823  0.00  0.00    +0.230 C 
ATOM      5  C   LIG    1        1.371  -2.407  -2.554  0.00  0.00    +0.040 C 
ATOM      6  C   LIG    1        0.525  -1.928  -1.372  0.00  0.00    +0.170 C 
ENDROOT
BRANCH   1   8
ATOM      7  C   LIG    1       -0.019   1.526   0.010  0.00  0.00    +0.060 C 
ATOM      8  C   LIG    1        0.002  -0.004   0.002  0.00  0.00    +0.130 C 
BRANCH   8   9
ATOM      9  C   LIG    1        0.731  -0.503   1.223  0.00  0.00    +0.520 C 
ATOM     10  O   LIG    1        1.725  -1.187   1.099  0.00  0.00    -0.520 OA
ATOM     11  N   LIG    1        0.278  -0.191   2.453  0.00  0.00    -0.860 N 
ATOM     12  H   LIG    1        0.747  -0.512   3.239  0.00  0.00    +0.400 HD
ATOM     13  H   LIG    1       -0.517   0.356   2.553  0.00  0.00    +0.400 HD
ENDBRANCH   8   9
ENDBRANCH   1   8
BRANCH   4  14
ATOM     14  N   LIG    1        1.770  -2.088  -4.947  0.00  0.00    -1.110 NA
ATOM     15  H   LIG    1        2.622  -1.650  -5.100  0.00  0.00    +0.420 HD
BRANCH  14  16
ATOM     16  S   LIG    1        1.272  -3.303  -5.956  0.00  0.00    +2.610 S 
ATOM     17  O   LIG    1        0.923  -4.366  -5.080  0.00  0.00    -0.950 OA
ATOM     18  O   LIG    1        2.334  -3.441  -6.890  0.00  0.00    -0.960 OA
ATOM     19  C   LIG    1       -0.207  -2.637  -6.769  0.00  0.00    -0.280 C 
ENDBRANCH  14  16
ENDBRANCH   4  14
TORSDOF 4
ENDMDL
MODEL     1312
REMARK  Name = ZINC000014242231
REMARK                            x       y       z     vdW  Elec       q    Type
REMARK                         _______ _______ _______ _____ _____    ______ ____
ROOT
ATOM      1  N   LIG    1        0.713  -0.491   1.192  0.00  0.00    -0.510 NA
ATOM      2  C   LIG    1        2.064   0.079   1.268  0.00  0.00    +0.180 C 
ATOM      3  C   LIG    1        2.719  -0.333   2.588  0.00  0.00    +0.030 C 
ATOM      4  C   LIG    1        2.784  -1.860   2.666  0.00  0.00    +0.230 C 
ATOM      5  C   LIG    1        1.368  -2.430   2.537  0.00  0.00    +0.030 C 
ATOM      6  C   LIG    1        0.752  -1.958   1.218  0.00  0.00    +0.180 C 
ENDROOT
BRANCH   1   8
ATOM      7  C   LIG    1       -0.019   1.526   0.010  0.00  0.00    +0.060 C 
ATOM      8  C   LIG    1        0.002  -0.004   0.002  0.00  0.00    +0.170 C 
BRANCH   8   9
ATOM      9  C   LIG    1        0.707  -0.490  -1.238  0.00  0.00    +0.490 C 
ATOM     10  O   LIG    1        1.704  -1.174  -1.140  0.00  0.00    -0.540 OA
ATOM     11  N   LIG    1        0.231  -0.164  -2.456  0.00  0.00    -0.850 N 
ATOM     12  H   LIG    1        0.685  -0.477  -3.254  0.00  0.00    +0.400 HD
ATOM     13  H   LIG    1       -0.566   0.383  -2.534  0.00  0.00    +0.400 HD
ENDBRANCH   8   9
ENDBRANCH   1   8
BRANCH   4  14
ATOM     14  N   LIG    1        3.357  -2.261   3.954  0.00  0.00    -1.110 NA
ATOM     15  H   LIG    1        3.170  -1.740   4.751  0.00  0.00    +0.420 HD
BRANCH  14  16
ATOM     16  S   LIG    1        4.323  -3.602   4.048  0.00  0.00    +2.610 S 
ATOM     17  O   LIG    1        3.567  -4.624   3.414  0.00  0.00    -0.950 OA
ATOM     18  O   LIG    1        4.665  -3.692   5.425  0.00  0.00    -0.960 OA
ATOM     19  C   LIG    1        5.782  -3.180   3.056  0.00  0.00    -0.280 C 
ENDBRANCH  14  16
ENDBRANCH   4  14
TORSDOF 4
ENDMDL
MODEL     1313
REMARK  Name = ZINC000000895331
REMARK                            x       y       z     vdW  Elec       q    Type
REMARK                         _______ _______ _______ _____ _____    ______ ____
ROOT
ATOM      1  C   LIG    1       -1.136  -2.159   0.001  0.00  0.00    +0.260 C 
ATOM      2  C   LIG    1       -0.993  -2.676   1.435  0.00  0.00    +0.370 C 
ATOM      3  O   LIG    1       -2.124  -2.264   2.204  0.00  0.00    -0.370 OA
ATOM      4  C   LIG    1       -3.372  -2.765   1.721  0.00  0.00    +0.150 C 
ATOM      5  C   LIG    1       -3.611  -2.252   0.299  0.00  0.00    +0.120 C 
ATOM      6  C   LIG    1       -2.444  -2.685  -0.596  0.00  0.00    +0.200 C 
ENDROOT
BRANCH   1   9
ATOM      7  C   LIG    1       -0.018   1.503   0.010  0.00  0.00    +0.110 C 
ATOM      8  C   LIG    1        0.002  -0.004   0.002  0.00  0.00    +0.510 C 
ATOM      9  N   LIG    1       -1.156  -0.694   0.009  0.00  0.00    -0.710 N 
ATOM     10  H   LIG    1       -2.002  -0.220   0.020  0.00  0.00    +0.400 HD
ATOM     11  O   LIG    1        1.060  -0.596  -0.011  0.00  0.00    -0.540 OA
ENDBRANCH   1   9
BRANCH   5  12
ATOM     12  O   LIG    1       -4.831  -2.797  -0.207  0.00  0.00    -0.550 OA
ATOM     13  H   LIG    1       -5.612  -2.565   0.314  0.00  0.00    +0.380 HD
ENDBRANCH   5  12
BRANCH   2  14
ATOM     14  O   LIG    1       -0.920  -4.103   1.421  0.00  0.00    -0.570 OA
ATOM     15  H   LIG    1       -0.828  -4.501   2.298  0.00  0.00    +0.390 HD
ENDBRANCH   2  14
BRANCH   6  16
ATOM     16  O   LIG    1       -2.624  -2.149  -1.909  0.00  0.00    -0.550 OA
ATOM     17  H   LIG    1       -3.439  -2.437  -2.343  0.00  0.00    +0.390 HD
ENDBRANCH   6  16
BRANCH   4  18
ATOM     18  C   LIG    1       -4.503  -2.286   2.634  0.00  0.00    +0.200 C 
BRANCH  18  19
ATOM     19  O   LIG    1       -4.342  -2.860   3.933  0.00  0.00    -0.560 OA
ATOM     20  H   LIG    1       -5.025  -2.598   4.565  0.00  0.00    +0.380 HD
ENDBRANCH  18  19
ENDBRANCH   4  18
TORSDOF 6
ENDMDL
MODEL     1314
REMARK  Name = ZINC000001042084
REMARK                            x       y       z     vdW  Elec       q    Type
REMARK                         _______ _______ _______ _____ _____    ______ ____
ROOT
ATOM      1  C   LIG    1        0.880  -0.358  -1.545  0.00  0.00    -0.420 C 
ATOM      2  C   LIG    1        0.165   0.366  -2.703  0.00  0.00    -0.270 C 
ATOM      3  S   LIG    1        0.385  -0.795  -4.111  0.00  0.00    +2.400 S 
ATOM      4  C   LIG    1        0.253  -2.301  -3.067  0.00  0.00    -0.310 C 
ATOM      5  O   LIG    1        1.704  -0.680  -4.628  0.00  0.00    -0.920 OA
ATOM      6  O   LIG    1       -0.734  -0.713  -4.983  0.00  0.00    -0.920 OA
ATOM      7  C   LIG    1        0.927  -1.867  -1.753  0.00  0.00    +0.240 C 
ENDROOT
BRANCH   1   9
ATOM      8  C   LIG    1       -0.022   1.810   0.012  0.00  0.00    -0.280 C 
ATOM      9  S   LIG    1        0.002  -0.004   0.002  0.00  0.00    +2.470 S 
ATOM     10  O   LIG    1       -1.334  -0.474  -0.117  0.00  0.00    -0.910 OA
ATOM     11  O   LIG    1        0.801  -0.452   1.088  0.00  0.00    -0.920 OA
ENDBRANCH   1   9
BRANCH   7  12
ATOM     12  O   LIG    1        0.263  -2.504  -0.659  0.00  0.00    -0.570 OA
ATOM     13  H   LIG    1        0.307  -3.470  -0.681  0.00  0.00    +0.410 HD
ENDBRANCH   7  12
TORSDOF 2
ENDMDL
MODEL     1315
REMARK  Name = ZINC000001042083
REMARK                            x       y       z     vdW  Elec       q    Type
REMARK                         _______ _______ _______ _____ _____    ______ ____
ROOT
ATOM      1  C   LIG    1        0.880  -0.358  -1.545  0.00  0.00    -0.430 C 
ATOM      2  C   LIG    1        2.308   0.243  -1.484  0.00  0.00    -0.260 C 
ATOM      3  S   LIG    1        3.147  -0.695  -2.825  0.00  0.00    +2.410 S 
ATOM      4  C   LIG    1        2.258  -2.267  -2.515  0.00  0.00    -0.330 C 
ATOM      5  O   LIG    1        4.524  -0.851  -2.508  0.00  0.00    -0.920 OA
ATOM      6  O   LIG    1        2.763  -0.169  -4.088  0.00  0.00    -0.920 OA
ATOM      7  C   LIG    1        0.996  -1.872  -1.736  0.00  0.00    +0.230 C 
ENDROOT
BRANCH   1   9
ATOM      8  C   LIG    1       -0.022   1.810   0.012  0.00  0.00    -0.250 C 
ATOM      9  S   LIG    1        0.002  -0.004   0.002  0.00  0.00    +2.440 S 
ATOM     10  O   LIG    1       -1.334  -0.474  -0.117  0.00  0.00    -0.920 OA
ATOM     11  O   LIG    1        0.801  -0.452   1.088  0.00  0.00    -0.930 OA
ENDBRANCH   1   9
BRANCH   7  12
ATOM     12  O   LIG    1       -0.153  -2.332  -2.450  0.00  0.00    -0.550 OA
ATOM     13  H   LIG    1       -0.190  -3.292  -2.559  0.00  0.00    +0.400 HD
ENDBRANCH   7  12
TORSDOF 2
ENDMDL
MODEL     1316
REMARK  Name = ZINC000000973528
REMARK                            x       y       z     vdW  Elec       q    Type
REMARK                         _______ _______ _______ _____ _____    ______ ____
ROOT
ATOM      1  C   LIG    1        1.280   1.980   0.001  0.00  0.00    +0.170 C 
ENDROOT
BRANCH   1   3
ATOM      2  O   LIG    1        0.002  -0.004   0.002  0.00  0.00    -0.460 OA
ATOM      3  C   LIG    1       -0.014   1.209   0.009  0.00  0.00    +0.520 C 
ATOM      4  N   LIG    1       -1.191   1.867   0.018  0.00  0.00    -0.520 N 
ATOM      5  H   LIG    1       -1.204   2.837   0.023  0.00  0.00    +0.440 HD
BRANCH   4   6
ATOM      6  N   LIG    1       -2.394   1.150   0.020  0.00  0.00    -0.280 N 
ATOM      7  C   LIG    1       -2.541  -0.197   0.019  0.00  0.00    +0.420 A 
ATOM      8  N   LIG    1       -3.821  -0.449   0.022  0.00  0.00    -0.290 NA
ATOM      9  N   LIG    1       -4.479   0.656   0.025  0.00  0.00    -0.270 NA
ATOM     10  C   LIG    1       -3.648   1.663   0.028  0.00  0.00    +0.370 A 
ENDBRANCH   4   6
ENDBRANCH   1   3
BRANCH   1  11
ATOM     11  C   LIG    1        2.439   1.016  -0.016  0.00  0.00    +0.520 C 
ATOM     12  N   LIG    1        3.703   1.483  -0.025  0.00  0.00    -0.520 N 
ATOM     13  H   LIG    1        3.868   2.439  -0.022  0.00  0.00    +0.440 HD
ATOM     14  O   LIG    1        2.233  -0.179  -0.020  0.00  0.00    -0.460 OA
BRANCH  12  15
ATOM     15  N   LIG    1        4.780   0.587  -0.040  0.00  0.00    -0.280 N 
ATOM     16  C   LIG    1        4.715  -0.766  -0.053  0.00  0.00    +0.420 A 
ATOM     17  N   LIG    1        5.941  -1.214  -0.066  0.00  0.00    -0.290 NA
ATOM     18  N   LIG    1        6.763  -0.226  -0.061  0.00  0.00    -0.270 NA
ATOM     19  C   LIG    1        6.099   0.898  -0.051  0.00  0.00    +0.370 A 
ENDBRANCH  12  15
ENDBRANCH   1  11
TORSDOF 4
ENDMDL
MODEL     1317
REMARK  Name = ZINC000014732702
REMARK                            x       y       z     vdW  Elec       q    Type
REMARK                         _______ _______ _______ _____ _____    ______ ____
ROOT
ATOM      1  O   UNK A  1        0.002  -0.004   0.002  0.00  0.00    -0.500 OA
ATOM      2  C   UNK A  1       -0.014   1.209   0.009  0.00  0.00    +0.550 C 
ATOM      3  C   UNK A  1       -1.327   1.943   0.031  0.00  0.00    +0.190 C 
ATOM      4  C   UNK A  1       -2.147   1.413   1.210  0.00  0.00    +0.250 C 
ATOM      5  N   UNK A  1       -3.491   2.004   1.173  0.00  0.00    -0.680 NA
ATOM      6  H   UNK A  1       -3.969   1.764   0.317  0.00  0.00    +0.350 HD
ATOM      7  C   UNK A  1       -3.444   3.461   1.359  0.00  0.00    +0.220 C 
ATOM      8  C   UNK A  1       -2.643   4.093   0.213  0.00  0.00    +0.260 C 
ATOM      9  N   UNK A  1       -1.350   3.406   0.129  0.00  0.00    -0.600 N 
ATOM     10  C   UNK A  2       -0.196   4.098   0.144  0.00  0.00    +0.540 C 
ATOM     11  C   UNK A  2        1.115   3.361   0.158  0.00  0.00    +0.210 C 
ATOM     12  C   UNK A  2        1.991   3.967  -0.968  0.00  0.00    +0.170 C 
ATOM     13  S   UNK A  2        3.416   2.806  -0.954  0.00  0.00    -0.250 S 
ATOM     14  C   UNK A  2        2.537   1.419  -0.138  0.00  0.00    +0.390 C 
ATOM     15  O   UNK A  2       -0.213   5.311   0.146  0.00  0.00    -0.510 OA
ATOM     16  N   UNK A  2        1.146   1.899   0.001  0.00  0.00    -0.610 N 
ENDROOT
TORSDOF 0
ENDMDL
MODEL     1318
REMARK  Name = ZINC000103337537
REMARK                            x       y       z     vdW  Elec       q    Type
REMARK                         _______ _______ _______ _____ _____    ______ ____
ROOT
ATOM      1  N   LIG    1        1.412  -0.251   2.990  0.00  0.00    -0.670 NA
ATOM      2  H   LIG    1        1.935  -1.102   2.847  0.00  0.00    +0.370 HD
ENDROOT
BRANCH   1   3
ATOM      3  C   LIG    1        1.453   0.163   4.399  0.00  0.00    +0.160 C 
ATOM      4  C   LIG    1        2.804  -0.220   5.037  0.00  0.00    +0.100 C 
ATOM      5  C   LIG    1        3.395   1.112   5.444  0.00  0.00    +0.540 C 
ATOM      6  N   LIG    1        2.548   2.091   5.106  0.00  0.00    -0.680 N 
ATOM      7  H   LIG    1        2.733   3.028   5.277  0.00  0.00    +0.420 HD
ATOM      8  O   LIG    1        4.466   1.267   5.989  0.00  0.00    -0.480 OA
ATOM      9  C   LIG    1        1.419   1.672   4.512  0.00  0.00    +0.540 C 
ATOM     10  O   LIG    1        0.521   2.388   4.125  0.00  0.00    -0.470 OA
ENDBRANCH   1   3
BRANCH   1  11
ATOM     11  C   LIG    1        0.026  -0.400   2.526  0.00  0.00    +0.320 C 
BRANCH  11  17
ATOM     12  C   LIG    1       -0.018   1.461   0.010  0.00  0.00    +0.340 C 
ATOM     13  N   LIG    1        0.002  -0.004   0.002  0.00  0.00    -0.460 N 
ATOM     14  C   LIG    1        0.009  -0.813  -1.085  0.00  0.00    +0.380 A 
ATOM     15  N   LIG    1        0.027  -2.044  -0.652  0.00  0.00    -0.300 NA
ATOM     16  N   LIG    1        0.032  -2.051   0.634  0.00  0.00    -0.290 NA
ATOM     17  C   LIG    1        0.024  -0.825   1.080  0.00  0.00    +0.170 A 
ENDBRANCH  11  17
ENDBRANCH   1  11
TORSDOF 3
ENDMDL
MODEL     1319
REMARK  Name = ZINC000008769238
REMARK                            x       y       z     vdW  Elec       q    Type
REMARK                         _______ _______ _______ _____ _____    ______ ____
ROOT
ATOM      1  C   LIG    1       -0.018   1.461   0.010  0.00  0.00    +0.340 C 
ATOM      2  N   LIG    1        0.002  -0.004   0.002  0.00  0.00    -0.580 N 
ATOM      3  C   LIG    1        0.007  -0.750  -1.109  0.00  0.00    +0.700 C 
ATOM      4  N   LIG    1        0.027  -2.070  -0.842  0.00  0.00    -0.720 N 
ATOM      5  H   LIG    1        0.034  -2.794  -1.488  0.00  0.00    +0.440 HD
ATOM      6  C   LIG    1        0.036  -2.196   0.621  0.00  0.00    +0.120 C 
ATOM      7  C   LIG    1       -1.205  -2.943   1.101  0.00  0.00    +0.070 C 
ATOM      8  C   LIG    1       -1.146  -4.392   0.610  0.00  0.00    +0.190 C 
ATOM      9  N   LIG    1        0.078  -5.030   1.113  0.00  0.00    -0.520 NA
ATOM     10  C   LIG    1        1.279  -4.358   0.599  0.00  0.00    +0.190 C 
ATOM     11  C   LIG    1        1.301  -2.908   1.090  0.00  0.00    +0.070 C 
ATOM     12  O   LIG    1       -0.004  -0.289  -2.234  0.00  0.00    -0.540 OA
ATOM     13  C   LIG    1        0.023  -0.768   1.114  0.00  0.00    +0.530 C 
ATOM     14  O   LIG    1        0.025  -0.389   2.265  0.00  0.00    -0.460 OA
ENDROOT
BRANCH   9  15
ATOM     15  C   LIG    1        0.097  -6.462   0.789  0.00  0.00    +0.210 C 
BRANCH  15  16
ATOM     16  C   LIG    1        1.232  -7.129   1.523  0.00  0.00    +0.520 C 
ATOM     17  O   LIG    1        1.954  -6.474   2.245  0.00  0.00    -0.520 OA
ATOM     18  N   LIG    1        1.444  -8.451   1.377  0.00  0.00    -0.860 N 
ATOM     19  H   LIG    1        2.175  -8.880   1.850  0.00  0.00    +0.400 HD
ATOM     20  H   LIG    1        0.866  -8.975   0.800  0.00  0.00    +0.400 HD
ENDBRANCH  15  16
ENDBRANCH   9  15
TORSDOF 2
ENDMDL
MODEL     1320
REMARK  Name = ZINC000015107678
REMARK                            x       y       z     vdW  Elec       q    Type
REMARK                         _______ _______ _______ _____ _____    ______ ____
ROOT
ATOM      1  O   LIG    1        0.002  -0.004   0.002  0.00  0.00    -0.490 OA
ATOM      2  C   LIG    1       -0.014   1.214   0.009  0.00  0.00    +0.560 A 
ATOM      3  N   LIG    1       -1.188   1.878   0.029  0.00  0.00    -0.650 N 
ATOM      4  H   LIG    1       -2.022   1.384   0.038  0.00  0.00    +0.440 HD
ATOM      5  C   LIG    1       -1.205   3.224   0.036  0.00  0.00    +0.700 A 
ATOM      6  N   LIG    1       -0.061   3.931   0.024  0.00  0.00    -0.520 N 
ATOM      7  C   LIG    1        1.152   3.295   0.003  0.00  0.00    +0.380 A 
ATOM      8  O   LIG    1       -2.271   3.809   0.055  0.00  0.00    -0.530 OA
ATOM      9  C   LIG    1        1.199   1.945   0.001  0.00  0.00    -0.220 A 
ATOM     10 CL   LIG    1        2.725   1.118  -0.025  0.00  0.00    +0.000 Cl
ENDROOT
BRANCH   6  11
ATOM     11  C   LIG    1       -0.112   5.395   0.033  0.00  0.00    +0.300 C 
BRANCH  11  12
ATOM     12  C   LIG    1       -0.109   5.897   1.478  0.00  0.00    +0.200 C 
BRANCH  12  13
ATOM     13  O   LIG    1       -1.248   5.376   2.166  0.00  0.00    -0.540 OA
ATOM     14  H   LIG    1       -2.095   5.634   1.776  0.00  0.00    +0.380 HD
ENDBRANCH  12  13
BRANCH  12  15
ATOM     15  C   LIG    1       -0.162   7.426   1.487  0.00  0.00    +0.170 C 
BRANCH  15  16
ATOM     16  O   LIG    1       -0.042   7.898   2.831  0.00  0.00    -0.560 OA
ATOM     17  H   LIG    1       -0.068   8.861   2.913  0.00  0.00    +0.380 HD
ENDBRANCH  15  16
ENDBRANCH  12  15
ENDBRANCH  11  12
ENDBRANCH   6  11
TORSDOF 5
ENDMDL
MODEL     1321
REMARK  Name = ZINC000015107681
REMARK                            x       y       z     vdW  Elec       q    Type
REMARK                         _______ _______ _______ _____ _____    ______ ____
ROOT
ATOM      1  O   LIG    1        0.002  -0.004   0.002  0.00  0.00    -0.490 OA
ATOM      2  C   LIG    1       -0.014   1.214   0.009  0.00  0.00    +0.560 A 
ATOM      3  N   LIG    1       -1.188   1.878   0.029  0.00  0.00    -0.650 N 
ATOM      4  H   LIG    1       -2.022   1.384   0.038  0.00  0.00    +0.440 HD
ATOM      5  C   LIG    1       -1.205   3.224   0.036  0.00  0.00    +0.700 A 
ATOM      6  N   LIG    1       -0.061   3.931   0.024  0.00  0.00    -0.520 N 
ATOM      7  C   LIG    1        1.152   3.295   0.003  0.00  0.00    +0.390 A 
ATOM      8  O   LIG    1       -2.271   3.809   0.055  0.00  0.00    -0.530 OA
ATOM      9  C   LIG    1        1.199   1.945   0.001  0.00  0.00    -0.220 A 
ATOM     10 CL   LIG    1        2.725   1.118  -0.025  0.00  0.00    +0.000 Cl
ENDROOT
BRANCH   6  11
ATOM     11  C   LIG    1       -0.112   5.395   0.033  0.00  0.00    +0.310 C 
BRANCH  11  12
ATOM     12  C   LIG    1       -0.109   5.897   1.478  0.00  0.00    +0.210 C 
BRANCH  12  13
ATOM     13  O   LIG    1        1.134   5.558   2.097  0.00  0.00    -0.540 OA
ATOM     14  H   LIG    1        1.908   5.940   1.661  0.00  0.00    +0.370 HD
ENDBRANCH  12  13
BRANCH  12  15
ATOM     15  C   LIG    1       -0.288   7.416   1.491  0.00  0.00    +0.170 C 
BRANCH  15  16
ATOM     16  O   LIG    1       -0.402   7.871   2.841  0.00  0.00    -0.560 OA
ATOM     17  H   LIG    1       -0.518   8.827   2.925  0.00  0.00    +0.390 HD
ENDBRANCH  15  16
ENDBRANCH  12  15
ENDBRANCH  11  12
ENDBRANCH   6  11
TORSDOF 5
ENDMDL
MODEL     1322
REMARK  Name = ZINC000001319177
REMARK                            x       y       z     vdW  Elec       q    Type
REMARK                         _______ _______ _______ _____ _____    ______ ____
ROOT
ATOM      1  C   LIG    1       -0.019   1.526   0.010  0.00  0.00    +0.070 C 
ATOM      2  C   LIG    1        0.002  -0.004   0.002  0.00  0.00    +0.140 C 
ATOM      3  O   LIG    1        0.734  -0.491  -1.144  0.00  0.00    -0.360 OA
ATOM      4  C   LIG    1        1.116  -1.842  -0.806  0.00  0.00    +0.450 C 
ATOM      5  C   LIG    1        1.531  -1.775   0.681  0.00  0.00    +0.160 C 
ATOM      6  C   LIG    1        0.779  -0.538   1.226  0.00  0.00    +0.130 C 
ENDROOT
BRANCH   4   7
ATOM      7  N   LIG    1        2.244  -2.276  -1.634  0.00  0.00    -0.510 N 
ATOM      8  C   LIG    1        3.383  -1.515  -1.682  0.00  0.00    +0.330 A 
ATOM      9  C   LIG    1        4.423  -1.916  -2.445  0.00  0.00    -0.060 A 
ATOM     10  C   LIG    1        4.311  -3.121  -3.183  0.00  0.00    +0.540 A 
ATOM     11  N   LIG    1        3.173  -3.840  -3.108  0.00  0.00    -0.650 N 
ATOM     12  H   LIG    1        3.090  -4.666  -3.610  0.00  0.00    +0.440 HD
ATOM     13  O   LIG    1        5.236  -3.504  -3.878  0.00  0.00    -0.480 OA
ATOM     14  F   LIG    1        5.553  -1.179  -2.504  0.00  0.00    -0.100 F 
ATOM     15  C   LIG    1        2.154  -3.420  -2.335  0.00  0.00    +0.700 A 
ATOM     16  O   LIG    1        1.135  -4.080  -2.278  0.00  0.00    -0.520 OA
ENDBRANCH   4   7
BRANCH   5  17
ATOM     17  O   LIG    1        1.118  -2.957   1.370  0.00  0.00    -0.530 OA
ATOM     18  H   LIG    1        1.353  -2.968   2.308  0.00  0.00    +0.390 HD
ENDBRANCH   5  17
BRANCH   6  19
ATOM     19  O   LIG    1       -0.120  -0.918   2.270  0.00  0.00    -0.540 OA
ATOM     20  H   LIG    1       -0.618  -0.181   2.648  0.00  0.00    +0.390 HD
ENDBRANCH   6  19
TORSDOF 3
ENDMDL
MODEL     1323
REMARK  Name = ZINC000096023856
REMARK                            x       y       z     vdW  Elec       q    Type
REMARK                         _______ _______ _______ _____ _____    ______ ____
ROOT
ATOM      1  C   LIG    1        0.746  -1.888  -1.280  0.00  0.00    +0.340 C 
ATOM      2  O   LIG    1        1.557  -2.403  -0.222  0.00  0.00    -0.370 OA
ATOM      3  C   LIG    1        1.615  -3.830  -0.161  0.00  0.00    +0.200 C 
ATOM      4  C   LIG    1        2.307  -4.362  -1.422  0.00  0.00    +0.140 C 
ATOM      5  C   LIG    1        1.613  -3.764  -2.628  0.00  0.00    +0.300 C 
ATOM      6  O   LIG    1        1.266  -4.455  -3.557  0.00  0.00    -0.410 OA
ATOM      7  C   LIG    1        1.369  -2.269  -2.628  0.00  0.00    +0.150 C 
ENDROOT
BRANCH   4   8
ATOM      8  O   LIG    1        2.206  -5.787  -1.462  0.00  0.00    -0.540 OA
ATOM      9  H   LIG    1        2.624  -6.189  -2.236  0.00  0.00    +0.390 HD
ENDBRANCH   4   8
BRANCH   7  10
ATOM     10  O   LIG    1        0.476  -1.925  -3.689  0.00  0.00    -0.530 OA
ATOM     11  H   LIG    1        0.802  -2.159  -4.569  0.00  0.00    +0.390 HD
ENDBRANCH   7  10
BRANCH   1  12
ATOM     12  O   LIG    1        0.671  -0.465  -1.174  0.00  0.00    -0.350 OA
BRANCH  12  14
ATOM     13  C   LIG    1       -0.019   1.526   0.010  0.00  0.00    +0.050 C 
ATOM     14  C   LIG    1        0.002  -0.004   0.002  0.00  0.00    +0.170 C 
ENDBRANCH  12  14
ENDBRANCH   1  12
BRANCH   3  15
ATOM     15  C   LIG    1        2.407  -4.256   1.076  0.00  0.00    +0.230 C 
BRANCH  15  16
ATOM     16  O   LIG    1        1.703  -3.856   2.254  0.00  0.00    -0.570 OA
ATOM     17  H   LIG    1        2.148  -4.095   3.078  0.00  0.00    +0.390 HD
ENDBRANCH  15  16
ENDBRANCH   3  15
TORSDOF 6
ENDMDL
MODEL     1324
REMARK  Name = ZINC000000192450
REMARK                            x       y       z     vdW  Elec       q    Type
REMARK                         _______ _______ _______ _____ _____    ______ ____
ROOT
ATOM      1  O   LIG    1        0.002  -0.004   0.002  0.00  0.00    -0.540 OA
ATOM      2  C   LIG    1       -0.014   1.209   0.009  0.00  0.00    +0.530 C 
ATOM      3  N   LIG    1        1.143   1.898   0.001  0.00  0.00    -0.710 N 
ATOM      4  H   LIG    1        1.130   2.868   0.007  0.00  0.00    +0.420 HD
ENDROOT
BRANCH   2   5
ATOM      5  C   LIG    1       -1.330   1.944   0.019  0.00  0.00    +0.000 C 
ATOM      6  C   LIG    1       -2.478   0.932   0.023  0.00  0.00    +0.060 C 
ATOM      7  C   LIG    1       -3.788   1.685  -0.243  0.00  0.00    +0.030 C 
ATOM      8  C   LIG    1       -3.765   2.213  -1.678  0.00  0.00    +0.250 C 
ATOM      9  N   LIG    1       -2.528   2.941  -1.934  0.00  0.00    -0.710 N 
ATOM     10  H   LIG    1       -2.508   3.553  -2.687  0.00  0.00    +0.410 HD
ATOM     11  C   LIG    1       -1.423   2.816  -1.200  0.00  0.00    +0.530 C 
ATOM     12  O   LIG    1       -0.439   3.442  -1.533  0.00  0.00    -0.540 OA
ENDBRANCH   2   5
BRANCH   3  13
ATOM     13  C   LIG    1        2.422   1.183  -0.015  0.00  0.00    +0.240 C 
BRANCH  13  14
ATOM     14  C   LIG    1        3.571   2.193  -0.020  0.00  0.00    +0.210 C 
BRANCH  14  15
ATOM     15  O   LIG    1        3.473   3.020  -1.182  0.00  0.00    -0.540 OA
ATOM     16  H   LIG    1        3.517   2.533  -2.016  0.00  0.00    +0.380 HD
ENDBRANCH  14  15
BRANCH  14  17
ATOM     17  C   LIG    1        4.907   1.446  -0.037  0.00  0.00    +0.160 C 
BRANCH  17  18
ATOM     18  O   LIG    1        5.979   2.384   0.075  0.00  0.00    -0.560 OA
ATOM     19  H   LIG    1        6.857   1.980   0.071  0.00  0.00    +0.380 HD
ENDBRANCH  17  18
ENDBRANCH  14  17
ENDBRANCH  13  14
ENDBRANCH   3  13
TORSDOF 6
ENDMDL
MODEL     1325
REMARK  Name = ZINC000015443890
REMARK                            x       y       z     vdW  Elec       q    Type
REMARK                         _______ _______ _______ _____ _____    ______ ____
ROOT
ATOM      1  O   LIG    1        0.002  -0.004   0.002  0.00  0.00    -0.530 OA
ATOM      2  C   LIG    1       -0.014   1.209   0.009  0.00  0.00    +0.520 C 
ATOM      3  C   LIG    1       -1.322   1.957   0.032  0.00  0.00    +0.040 C 
ATOM      4  C   LIG    1       -2.304   1.239   0.960  0.00  0.00    +0.190 C 
ATOM      5  N   LIG    1       -1.936   1.499   2.358  0.00  0.00    -0.690 NA
ATOM      6  H   LIG    1       -0.935   1.579   2.459  0.00  0.00    +0.350 HD
ATOM      7  C   LIG    1       -2.474   0.461   3.247  0.00  0.00    +0.160 C 
ATOM      8  C   LIG    1       -1.837   0.594   4.631  0.00  0.00    +0.290 C 
ATOM      9  N   LIG    1       -0.604  -0.234   4.660  0.00  0.00    -0.750 N 
ATOM     10  H   LIG    1       -0.615  -1.195   4.790  0.00  0.00    +0.410 HD
ATOM     11  C   LIG    1        0.553   0.484   4.488  0.00  0.00    +0.530 C 
ATOM     12  C   LIG    1        1.865  -0.258   4.500  0.00  0.00    +0.050 C 
ATOM     13  C   LIG    1        2.877   0.485   3.625  0.00  0.00    +0.190 C 
ATOM     14  N   LIG    1        2.642   0.152   2.213  0.00  0.00    -0.680 NA
ATOM     15  H   LIG    1        3.092  -0.716   1.966  0.00  0.00    +0.340 HD
ATOM     16  C   LIG    1        3.083   1.243   1.335  0.00  0.00    +0.160 C 
ATOM     17  C   LIG    1        2.393   1.114  -0.025  0.00  0.00    +0.280 C 
ATOM     18  O   LIG    1        0.520   1.686   4.332  0.00  0.00    -0.530 OA
ATOM     19  N   LIG    1        1.151   1.918   0.001  0.00  0.00    -0.730 N 
ATOM     20  H   LIG    1        1.165   2.888   0.007  0.00  0.00    +0.410 HD
ENDROOT
TORSDOF 0
ENDMDL
MODEL     1326
REMARK  Name = ZINC000024752416
REMARK                            x       y       z     vdW  Elec       q    Type
REMARK                         _______ _______ _______ _____ _____    ______ ____
ROOT
ATOM      1  C   LIG    1       -5.624  -7.223  -0.057  0.00  0.00    +0.240 C 
ENDROOT
BRANCH   1   2
ATOM      2  C   LIG    1       -5.817  -7.595   1.390  0.00  0.00    +0.520 C 
ATOM      3  O   LIG    1       -5.064  -7.158   2.235  0.00  0.00    -0.510 OA
ATOM      4  N   LIG    1       -6.827  -8.414   1.747  0.00  0.00    -0.850 N 
ATOM      5  H   LIG    1       -6.910  -8.710   2.666  0.00  0.00    +0.410 HD
ATOM      6  H   LIG    1       -7.471  -8.706   1.083  0.00  0.00    +0.400 HD
ENDBRANCH   1   2
BRANCH   1   7
ATOM      7  C   LIG    1       -4.831  -8.300  -0.751  0.00  0.00    +0.530 C 
ATOM      8  O   LIG    1       -3.626  -8.201  -0.844  0.00  0.00    -0.510 OA
ATOM      9  N   LIG    1       -5.461  -9.373  -1.269  0.00  0.00    -0.840 N 
ATOM     10  H   LIG    1       -4.946 -10.101  -1.651  0.00  0.00    +0.410 HD
ATOM     11  H   LIG    1       -6.430  -9.418  -1.258  0.00  0.00    +0.410 HD
ENDBRANCH   1   7
BRANCH   1  13
ATOM     12  C   LIG    1       -5.573  -4.787  -0.066  0.00  0.00    +0.540 C 
ATOM     13  N   LIG    1       -4.900  -5.952  -0.142  0.00  0.00    -0.700 N 
ATOM     14  H   LIG    1       -3.936  -5.950  -0.253  0.00  0.00    +0.420 HD
ATOM     15  O   LIG    1       -6.777  -4.790   0.072  0.00  0.00    -0.510 OA
BRANCH  12  16
ATOM     16  C   LIG    1       -4.828  -3.480  -0.153  0.00  0.00    +0.110 C 
BRANCH  16  17
ATOM     17  S   LIG    1       -6.003  -2.104  -0.020  0.00  0.00    -0.180 S 
BRANCH  17  18
ATOM     18  C   LIG    1       -4.936  -0.642  -0.144  0.00  0.00    +0.060 C 
BRANCH  18  19
ATOM     19  C   LIG    1       -5.791   0.623  -0.048  0.00  0.00    +0.040 C 
BRANCH  19  21
ATOM     20  C   LIG    1       -5.745   3.121  -0.056  0.00  0.00    +0.030 C 
ATOM     21  C   LIG    1       -4.891   1.856  -0.153  0.00  0.00    +0.000 C 
ENDBRANCH  19  21
ENDBRANCH  18  19
ENDBRANCH  17  18
ENDBRANCH  16  17
ENDBRANCH  12  16
ENDBRANCH   1  13
TORSDOF 8
ENDMDL
MODEL     1327
REMARK  Name = ZINC000012421691
REMARK                            x       y       z     vdW  Elec       q    Type
REMARK                         _______ _______ _______ _____ _____    ______ ____
ROOT
ATOM      1  C   LIG    1       -1.246  -2.124   0.003  0.00  0.00    +0.540 C 
ATOM      2  N   LIG    1       -2.439  -2.752   0.011  0.00  0.00    -0.690 N 
ATOM      3  H   LIG    1       -3.259  -2.235   0.021  0.00  0.00    +0.420 HD
ATOM      4  O   LIG    1       -0.220  -2.771  -0.011  0.00  0.00    -0.480 OA
ENDROOT
BRANCH   2   5
ATOM      5  C   LIG    1       -2.495  -4.216   0.003  0.00  0.00    +0.300 C 
ATOM      6  C   LIG    1       -2.392  -4.725   1.406  0.00  0.00    +0.080 C 
ATOM      7  C   LIG    1       -3.152  -5.716   1.780  0.00  0.00    -0.450 C 
ATOM      8  S   LIG    1       -4.156  -6.177   0.387  0.00  0.00    +2.450 S 
ATOM      9  O   LIG    1       -5.492  -6.205   0.873  0.00  0.00    -0.920 OA
ATOM     10  O   LIG    1       -3.533  -7.326  -0.169  0.00  0.00    -0.920 OA
ATOM     11  C   LIG    1       -3.836  -4.677  -0.624  0.00  0.00    -0.280 C 
ENDBRANCH   2   5
BRANCH   1  12
ATOM     12  C   LIG    1       -1.188  -0.631   0.010  0.00  0.00    +0.460 C 
ATOM     13  O   LIG    1       -2.214   0.015   0.023  0.00  0.00    -0.480 OA
BRANCH  12  15
ATOM     14  C   LIG    1       -0.018   1.448   0.010  0.00  0.00    +0.280 C 
ATOM     15  O   LIG    1        0.002  -0.004   0.002  0.00  0.00    -0.330 OA
ENDBRANCH  12  15
ENDBRANCH   1  12
TORSDOF 3
ENDMDL
MODEL     1328
REMARK  Name = ZINC000048367832
REMARK                            x       y       z     vdW  Elec       q    Type
REMARK                         _______ _______ _______ _____ _____    ______ ____
ROOT
ATOM      1  S   LIG    1        1.455  -2.756  -2.519  0.00  0.00    +2.570 S 
ATOM      2  O   LIG    1        2.839  -2.442  -2.461  0.00  0.00    -0.880 OA
ATOM      3  O   LIG    1        0.685  -2.464  -3.677  0.00  0.00    -0.910 OA
ENDROOT
BRANCH   1   4
ATOM      4  C   LIG    1        1.403  -4.513  -2.394  0.00  0.00    -0.350 A 
ATOM      5  N   LIG    1        2.301  -5.261  -1.814  0.00  0.00    -0.390 NA
ATOM      6  C   LIG    1        1.934  -6.548  -1.910  0.00  0.00    +0.160 A 
ATOM      7  C   LIG    1        0.764  -6.599  -2.576  0.00  0.00    +0.190 A 
ATOM      8  N   LIG    1        0.424  -5.308  -2.878  0.00  0.00    -0.410 N 
ATOM      9  C   LIG    1       -0.774  -4.871  -3.600  0.00  0.00    +0.350 C 
ENDBRANCH   1   4
BRANCH   1  10
ATOM     10  C   LIG    1        0.606  -2.171  -1.026  0.00  0.00    -0.320 C 
BRANCH  10  14
ATOM     11  C   LIG    1       -0.018   1.461   0.010  0.00  0.00    +0.300 C 
ATOM     12  N   LIG    1        0.002  -0.004   0.002  0.00  0.00    -0.720 N 
ATOM     13  H   LIG    1       -0.404  -0.499   0.731  0.00  0.00    +0.410 HD
ATOM     14  C   LIG    1        0.585  -0.664  -1.018  0.00  0.00    +0.540 C 
ATOM     15  O   LIG    1        1.093  -0.046  -1.929  0.00  0.00    -0.530 OA
ENDBRANCH  10  14
ENDBRANCH   1  10
TORSDOF 3
ENDMDL
MODEL     1329
REMARK  Name = ZINC000005883988
REMARK                            x       y       z     vdW  Elec       q    Type
REMARK                         _______ _______ _______ _____ _____    ______ ____
ROOT
ATOM      1  C   LIG    1        0.673  -0.582   1.123  0.00  0.00    +0.350 C 
ATOM      2  O   LIG    1       -0.104  -0.373   2.304  0.00  0.00    -0.360 OA
ATOM      3  C   LIG    1       -1.419  -0.927   2.243  0.00  0.00    +0.140 C 
ATOM      4  C   LIG    1       -1.325  -2.443   2.056  0.00  0.00    +0.130 C 
ATOM      5  C   LIG    1       -0.526  -2.745   0.784  0.00  0.00    +0.200 C 
ATOM      6  C   LIG    1        0.852  -2.085   0.891  0.00  0.00    +0.260 C 
ENDROOT
BRANCH   6   7
ATOM      7  N   LIG    1        1.598  -2.305  -0.350  0.00  0.00    -0.710 N 
ATOM      8  H   LIG    1        1.123  -2.466  -1.180  0.00  0.00    +0.410 HD
ATOM      9  C   LIG    1        2.946  -2.285  -0.339  0.00  0.00    +0.510 C 
ATOM     10  O   LIG    1        3.541  -2.084   0.699  0.00  0.00    -0.550 OA
ATOM     11  C   LIG    1        3.713  -2.511  -1.616  0.00  0.00    +0.110 C 
ENDBRANCH   6   7
BRANCH   1  13
ATOM     12  C   LIG    1       -0.017   1.425   0.010  0.00  0.00    +0.210 C 
ATOM     13  O   LIG    1        0.002  -0.004   0.002  0.00  0.00    -0.400 OA
ENDBRANCH   1  13
BRANCH   5  14
ATOM     14  O   LIG    1       -0.372  -4.158   0.640  0.00  0.00    -0.540 OA
ATOM     15  H   LIG    1       -1.207  -4.640   0.573  0.00  0.00    +0.380 HD
ENDBRANCH   5  14
BRANCH   4  16
ATOM     16  O   LIG    1       -0.666  -3.023   3.184  0.00  0.00    -0.540 OA
ATOM     17  H   LIG    1       -1.116  -2.867   4.025  0.00  0.00    +0.380 HD
ENDBRANCH   4  16
BRANCH   3  18
ATOM     18  C   LIG    1       -2.164  -0.618   3.543  0.00  0.00    +0.200 C 
BRANCH  18  19
ATOM     19  O   LIG    1       -2.354   0.794   3.659  0.00  0.00    -0.560 OA
ATOM     20  H   LIG    1       -2.821   1.063   4.462  0.00  0.00    +0.380 HD
ENDBRANCH  18  19
ENDBRANCH   3  18
TORSDOF 6
ENDMDL
MODEL     1330
REMARK  Name = ZINC000103218260
REMARK                            x       y       z     vdW  Elec       q    Type
REMARK                         _______ _______ _______ _____ _____    ______ ____
ROOT
ATOM      1  C   LIG    1        0.705  -0.739  -0.636  0.00  0.00    +0.170 C 
ATOM      2  C   LIG    1       -0.604  -0.922  -1.410  0.00  0.00    +0.180 C 
ATOM      3  C   LIG    1       -1.349  -2.138  -0.852  0.00  0.00    +0.140 C 
ATOM      4  C   LIG    1       -0.443  -3.368  -0.943  0.00  0.00    +0.160 C 
ATOM      5  O   LIG    1        0.769  -3.120  -0.228  0.00  0.00    -0.340 OA
ATOM      6  C   LIG    1        1.533  -2.022  -0.736  0.00  0.00    +0.430 C 
ENDROOT
BRANCH   1   8
ATOM      7  C   LIG    1        0.274   0.927   1.032  0.00  0.00    +0.220 C 
ATOM      8  O   LIG    1        0.414  -0.464   0.736  0.00  0.00    -0.350 OA
ENDBRANCH   1   8
BRANCH   3   9
ATOM      9  O   LIG    1       -2.538  -2.361  -1.613  0.00  0.00    -0.560 OA
ATOM     10  H   LIG    1       -3.061  -3.117  -1.313  0.00  0.00    +0.380 HD
ENDBRANCH   3   9
BRANCH   2  11
ATOM     11  O   LIG    1       -1.414   0.246  -1.263  0.00  0.00    -0.550 OA
ATOM     12  H   LIG    1       -2.260   0.200  -1.729  0.00  0.00    +0.390 HD
ENDBRANCH   2  11
BRANCH   6  13
ATOM     13  O   LIG    1        2.730  -1.880   0.031  0.00  0.00    -0.360 OA
ATOM     14  C   LIG    1        3.528  -3.064   0.088  0.00  0.00    +0.230 C 
ENDBRANCH   6  13
BRANCH   6  15
ATOM     15  O   LIG    1        1.869  -2.268  -2.103  0.00  0.00    -0.410 OA
ATOM     16  C   LIG    1        2.720  -1.275  -2.680  0.00  0.00    +0.240 C 
ENDBRANCH   6  15
BRANCH   4  17
ATOM     17  C   LIG    1       -1.158  -4.575  -0.332  0.00  0.00    +0.210 C 
BRANCH  17  18
ATOM     18  O   LIG    1       -0.362  -5.747  -0.522  0.00  0.00    -0.560 OA
ATOM     19  H   LIG    1       -0.755  -6.552  -0.158  0.00  0.00    +0.380 HD
ENDBRANCH  17  18
ENDBRANCH   4  17
TORSDOF 7
ENDMDL
MODEL     1331
REMARK  Name = ZINC000001578622
REMARK                            x       y       z     vdW  Elec       q    Type
REMARK                         _______ _______ _______ _____ _____    ______ ____
ROOT
ATOM      1  C   VAL A  1        2.165  -0.079  -1.208  0.00  0.00    +0.500 C 
ATOM      2  N   SER A  2        3.046  -0.785  -0.471  0.00  0.00    -0.660 N 
ATOM      3  H   SER A  2        2.749  -1.562   0.028  0.00  0.00    +0.400 HD
ATOM      4  O   VAL A  1        2.537   0.892  -1.832  0.00  0.00    -0.540 OA
ENDROOT
BRANCH   1   5
ATOM      5  CA  VAL A  1        0.718  -0.497  -1.257  0.00  0.00    +0.170 C 
BRANCH   5   6
ATOM      6  N   VAL A  1        0.080   0.086  -2.444  0.00  0.00    -0.620 N 
ATOM      7  H1  VAL A  1        0.552  -0.239  -3.274  0.00  0.00    +0.440 HD
ATOM      8  H2  VAL A  1        0.138   1.092  -2.397  0.00  0.00    +0.440 HD
ATOM      9  H3  VAL A  1       -0.889  -0.194  -2.477  0.00  0.00    +0.430 HD
ENDBRANCH   5   6
BRANCH   5  11
ATOM     10  CG1 VAL A  1       -0.019   1.526   0.010  0.00  0.00    +0.050 C 
ATOM     11  CB  VAL A  1        0.002  -0.004   0.002  0.00  0.00    +0.010 C 
ATOM     12  CG2 VAL A  1       -1.433  -0.534   0.013  0.00  0.00    +0.050 C 
ENDBRANCH   5  11
ENDBRANCH   1   5
BRANCH   2  13
ATOM     13  CA  SER A  2        4.453  -0.379  -0.424  0.00  0.00    +0.170 C 
BRANCH  13  14
ATOM     14  C   SER A  2        5.186  -0.968  -1.601  0.00  0.00    +0.500 C 
ATOM     15  OXT SER A  2        6.376  -0.750  -1.749  0.00  0.00    -0.680 OA
ATOM     16  O   SER A  2        4.589  -1.663  -2.405  0.00  0.00    -0.690 OA
ENDBRANCH  13  14
BRANCH  13  17
ATOM     17  CB  SER A  2        5.085  -0.882   0.875  0.00  0.00    +0.200 C 
BRANCH  17  18
ATOM     18  OG  SER A  2        5.105  -2.311   0.873  0.00  0.00    -0.560 OA
ATOM     19  H   SER A  2        5.493  -2.700   1.668  0.00  0.00    +0.380 HD
ENDBRANCH  17  18
ENDBRANCH  13  17
ENDBRANCH   2  13
TORSDOF 7
ENDMDL
MODEL     1332
REMARK  Name = ZINC000001578623
REMARK                            x       y       z     vdW  Elec       q    Type
REMARK                         _______ _______ _______ _____ _____    ______ ____
ROOT
ATOM      1  C   VAL A  1        2.132   0.024  -1.268  0.00  0.00    +0.490 C 
ATOM      2  N   SER A  2        2.381   1.288  -1.662  0.00  0.00    -0.650 N 
ATOM      3  H   SER A  2        1.650   1.863  -1.940  0.00  0.00    +0.410 HD
ATOM      4  O   VAL A  1        3.046  -0.694  -0.921  0.00  0.00    -0.540 OA
ENDROOT
BRANCH   1   5
ATOM      5  CA  VAL A  1        0.718  -0.497  -1.257  0.00  0.00    +0.170 C 
BRANCH   5   6
ATOM      6  N   VAL A  1        0.738  -1.966  -1.265  0.00  0.00    -0.620 N 
ATOM      7  H1  VAL A  1       -0.208  -2.316  -1.258  0.00  0.00    +0.430 HD
ATOM      8  H2  VAL A  1        1.226  -2.301  -0.447  0.00  0.00    +0.440 HD
ATOM      9  H3  VAL A  1        1.210  -2.292  -2.095  0.00  0.00    +0.440 HD
ENDBRANCH   5   6
BRANCH   5  11
ATOM     10  CG1 VAL A  1       -0.019   1.526   0.010  0.00  0.00    +0.060 C 
ATOM     11  CB  VAL A  1        0.002  -0.004   0.002  0.00  0.00    -0.010 C 
ATOM     12  CG2 VAL A  1       -1.433  -0.534   0.013  0.00  0.00    +0.050 C 
ENDBRANCH   5  11
ENDBRANCH   1   5
BRANCH   2  13
ATOM     13  CA  SER A  2        3.755   1.796  -1.673  0.00  0.00    +0.160 C 
BRANCH  13  14
ATOM     14  C   SER A  2        4.422   1.413  -2.969  0.00  0.00    +0.500 C 
ATOM     15  OXT SER A  2        5.626   1.226  -3.003  0.00  0.00    -0.680 OA
ATOM     16  O   SER A  2        3.757   1.291  -3.983  0.00  0.00    -0.680 OA
ENDBRANCH  13  14
BRANCH  13  17
ATOM     17  CB  SER A  2        3.738   3.320  -1.539  0.00  0.00    +0.190 C 
BRANCH  17  18
ATOM     18  OG  SER A  2        3.115   3.892  -2.690  0.00  0.00    -0.560 OA
ATOM     19  H   SER A  2        3.069   4.858  -2.674  0.00  0.00    +0.370 HD
ENDBRANCH  17  18
ENDBRANCH  13  17
ENDBRANCH   2  13
TORSDOF 7
ENDMDL
MODEL     1333
REMARK  Name = ZINC000001578624
REMARK                            x       y       z     vdW  Elec       q    Type
REMARK                         _______ _______ _______ _____ _____    ______ ____
ROOT
ATOM      1  C   VAL A  1        2.165  -0.079  -1.208  0.00  0.00    +0.490 C 
ATOM      2  N   SER A  2        3.046  -0.785  -0.471  0.00  0.00    -0.650 N 
ATOM      3  H   SER A  2        2.749  -1.562   0.028  0.00  0.00    +0.410 HD
ATOM      4  O   VAL A  1        2.537   0.892  -1.832  0.00  0.00    -0.540 OA
ENDROOT
BRANCH   1   5
ATOM      5  CA  VAL A  1        0.718  -0.497  -1.257  0.00  0.00    +0.170 C 
BRANCH   5   6
ATOM      6  N   VAL A  1        0.080   0.086  -2.444  0.00  0.00    -0.620 N 
ATOM      7  H1  VAL A  1        0.552  -0.239  -3.274  0.00  0.00    +0.440 HD
ATOM      8  H2  VAL A  1        0.138   1.092  -2.397  0.00  0.00    +0.440 HD
ATOM      9  H3  VAL A  1       -0.889  -0.194  -2.477  0.00  0.00    +0.430 HD
ENDBRANCH   5   6
BRANCH   5  11
ATOM     10  CG1 VAL A  1       -0.019   1.526   0.010  0.00  0.00    +0.050 C 
ATOM     11  CB  VAL A  1        0.002  -0.004   0.002  0.00  0.00    +0.020 C 
ATOM     12  CG2 VAL A  1       -1.433  -0.534   0.013  0.00  0.00    +0.050 C 
ENDBRANCH   5  11
ENDBRANCH   1   5
BRANCH   2  13
ATOM     13  CA  SER A  2        4.453  -0.379  -0.424  0.00  0.00    +0.170 C 
BRANCH  13  14
ATOM     14  C   SER A  2        4.635   0.679   0.634  0.00  0.00    +0.500 C 
ATOM     15  OXT SER A  2        5.504   1.524   0.508  0.00  0.00    -0.680 OA
ATOM     16  O   SER A  2        3.912   0.689   1.617  0.00  0.00    -0.670 OA
ENDBRANCH  13  14
BRANCH  13  17
ATOM     17  CB  SER A  2        5.323  -1.591  -0.088  0.00  0.00    +0.190 C 
BRANCH  17  18
ATOM     18  OG  SER A  2        5.016  -2.047   1.232  0.00  0.00    -0.550 OA
ATOM     19  H   SER A  2        5.532  -2.815   1.512  0.00  0.00    +0.370 HD
ENDBRANCH  17  18
ENDBRANCH  13  17
ENDBRANCH   2  13
TORSDOF 7
ENDMDL
MODEL     1334
REMARK  Name = ZINC000167103496
REMARK                            x       y       z     vdW  Elec       q    Type
REMARK                         _______ _______ _______ _____ _____    ______ ____
ROOT
ATOM      1  C   LIG    1        0.652  -0.570  -1.138  0.00  0.00    +0.190 C 
ATOM      2  C   LIG    1        2.140  -0.759  -0.835  0.00  0.00    +0.140 C 
ATOM      3  C   LIG    1        2.835  -1.365  -2.056  0.00  0.00    +0.170 C 
ATOM      4  C   LIG    1        2.205  -2.721  -2.381  0.00  0.00    +0.200 C 
ATOM      5  C   LIG    1        0.717  -2.532  -2.684  0.00  0.00    +0.140 C 
ATOM      6  C   LIG    1        0.021  -1.926  -1.463  0.00  0.00    +0.160 C 
ENDROOT
BRANCH   1   8
ATOM      7  C   LIG    1       -0.017   1.425   0.010  0.00  0.00    +0.210 C 
ATOM      8  O   LIG    1        0.002  -0.004   0.002  0.00  0.00    -0.370 OA
ENDBRANCH   1   8
BRANCH   5   9
ATOM      9  O   LIG    1        0.566  -1.656  -3.802  0.00  0.00    -0.550 OA
ATOM     10  H   LIG    1       -0.354  -1.490  -4.051  0.00  0.00    +0.390 HD
ENDBRANCH   5   9
BRANCH   4  11
ATOM     11  O   LIG    1        2.356  -3.597  -1.262  0.00  0.00    -0.370 OA
ATOM     12  C   LIG    1        2.451  -4.979  -1.615  0.00  0.00    +0.210 C 
ENDBRANCH   4  11
BRANCH   3  13
ATOM     13  O   LIG    1        4.225  -1.542  -1.773  0.00  0.00    -0.550 OA
ATOM     14  H   LIG    1        4.690  -0.722  -1.558  0.00  0.00    +0.380 HD
ENDBRANCH   3  13
BRANCH   2  15
ATOM     15  O   LIG    1        2.728   0.507  -0.531  0.00  0.00    -0.560 OA
ATOM     16  H   LIG    1        3.673   0.463  -0.329  0.00  0.00    +0.380 HD
ENDBRANCH   2  15
BRANCH   6  17
ATOM     17  O   LIG    1       -1.368  -1.749  -1.746  0.00  0.00    -0.550 OA
ATOM     18  H   LIG    1       -1.833  -2.570  -1.961  0.00  0.00    +0.380 HD
ENDBRANCH   6  17
TORSDOF 6
ENDMDL
MODEL     1335
REMARK  Name = ZINC000503600485
REMARK                            x       y       z     vdW  Elec       q    Type
REMARK                         _______ _______ _______ _____ _____    ______ ____
ROOT
ATOM      1  N   LIG    1        1.398  -2.528   2.296  0.00  0.00    -0.330 N 
ATOM      2  N   LIG    1        2.780  -2.743   2.421  0.00  0.00    -0.330 NA
ATOM      3  C   LIG    1        3.001  -3.099   3.669  0.00  0.00    +0.480 A 
ATOM      4  N   LIG    1        1.845  -3.119   4.326  0.00  0.00    -0.500 NA
ATOM      5  C   LIG    1        0.865  -2.772   3.515  0.00  0.00    +0.280 A 
ENDROOT
BRANCH   3   6
ATOM      6  N   LIG    1        4.248  -3.406   4.215  0.00  0.00    -0.820 N 
ATOM      7  H   LIG    1        4.320  -3.661   5.148  0.00  0.00    +0.420 HD
ATOM      8  H   LIG    1        5.043  -3.365   3.661  0.00  0.00    +0.420 HD
ENDBRANCH   3   6
BRANCH   5   9
ATOM      9  C   LIG    1       -0.564  -2.675   3.872  0.00  0.00    +0.560 C 
ATOM     10  O   LIG    1       -1.379  -2.342   3.035  0.00  0.00    -0.490 OA
BRANCH   9  11
ATOM     11  O   LIG    1       -0.965  -2.957   5.128  0.00  0.00    -0.320 OA
ATOM     12  C   LIG    1       -2.385  -2.841   5.408  0.00  0.00    +0.280 C 
ENDBRANCH   9  11
ENDBRANCH   5   9
BRANCH   1  13
ATOM     13  C   LIG    1        0.679  -2.115   1.088  0.00  0.00    +0.450 C 
BRANCH  13  14
ATOM     14  C   LIG    1        0.618  -0.611   1.029  0.00  0.00    +0.450 C 
ATOM     15  O   LIG    1        1.124   0.049   1.905  0.00  0.00    -0.490 OA
BRANCH  14  17
ATOM     16  C   LIG    1       -0.018   1.448   0.010  0.00  0.00    +0.290 C 
ATOM     17  O   LIG    1        0.002  -0.004   0.002  0.00  0.00    -0.350 OA
ENDBRANCH  14  17
ENDBRANCH  13  14
ENDBRANCH   1  13
TORSDOF 6
ENDMDL
MODEL     1336
REMARK  Name = ZINC000058306236
REMARK                            x       y       z     vdW  Elec       q    Type
REMARK                         _______ _______ _______ _____ _____    ______ ____
ROOT
ATOM      1  N   LIG    1       -1.263  -0.724   0.248  0.00  0.00    -1.110 NA
ATOM      2  H   LIG    1       -1.845  -0.927  -0.500  0.00  0.00    +0.430 HD
ENDROOT
BRANCH   1   3
ATOM      3  S   LIG    1       -1.711  -1.148   1.785  0.00  0.00    +2.790 S 
ATOM      4  O   LIG    1       -0.590  -1.802   2.364  0.00  0.00    -0.970 OA
ATOM      5  O   LIG    1       -2.993  -1.752   1.677  0.00  0.00    -0.970 OA
BRANCH   3   6
ATOM      6  N   LIG    1       -1.925   0.255   2.639  0.00  0.00    -1.010 NA
ATOM      7  C   LIG    1       -0.801   0.850   3.365  0.00  0.00    +0.300 C 
ATOM      8  C   LIG    1       -3.240   0.901   2.667  0.00  0.00    +0.310 C 
ENDBRANCH   3   6
ENDBRANCH   1   3
BRANCH   1  10
ATOM      9  C   LIG    1       -0.217   1.471  -0.022  0.00  0.00    +0.050 C 
ATOM     10  C   LIG    1        0.013  -0.041   0.020  0.00  0.00    +0.240 C 
BRANCH  10  11
ATOM     11  C   LIG    1        0.598  -0.496  -1.292  0.00  0.00    +0.510 C 
ATOM     12  N   LIG    1        1.888  -0.232  -1.583  0.00  0.00    -0.620 N 
ATOM     13  C   LIG    1        2.742   0.427  -0.592  0.00  0.00    +0.280 C 
ATOM     14  C   LIG    1        2.435  -0.603  -2.890  0.00  0.00    +0.290 C 
ATOM     15  O   LIG    1       -0.091  -1.101  -2.086  0.00  0.00    -0.530 OA
ENDBRANCH  10  11
ENDBRANCH   1  10
TORSDOF 4
ENDMDL
MODEL     1337
REMARK  Name = ZINC000095451503
REMARK                            x       y       z     vdW  Elec       q    Type
REMARK                         _______ _______ _______ _____ _____    ______ ____
ROOT
ATOM      1  N   LIG    1        0.828  -2.255   1.338  0.00  0.00    -1.000 NA
ATOM      2  C   LIG    1       -0.288  -3.018   1.915  0.00  0.00    +0.300 C 
ATOM      3  C   LIG    1       -0.918  -3.875   0.810  0.00  0.00    +0.280 C 
ATOM      4  N   LIG    1        0.151  -4.602   0.112  0.00  0.00    -0.610 N 
ATOM      5  C   LIG    1        1.266  -3.839  -0.465  0.00  0.00    +0.270 C 
ATOM      6  C   LIG    1        0.108  -5.944   0.002  0.00  0.00    +0.510 C 
ATOM      7  O   LIG    1       -0.818  -6.563   0.482  0.00  0.00    -0.510 OA
ATOM      8  C   LIG    1        1.894  -2.982   0.634  0.00  0.00    +0.290 C 
ENDROOT
BRANCH   1   9
ATOM      9  S   LIG    1        0.879  -0.605   1.472  0.00  0.00    +2.600 S 
ATOM     10  O   LIG    1        0.132  -0.325   2.647  0.00  0.00    -0.950 OA
ATOM     11  O   LIG    1        2.263  -0.290   1.390  0.00  0.00    -0.950 OA
BRANCH   9  13
ATOM     12  C   LIG    1       -0.019   1.526   0.010  0.00  0.00    +0.070 C 
ATOM     13  C   LIG    1        0.002  -0.004   0.002  0.00  0.00    -0.370 C 
ENDBRANCH   9  13
ENDBRANCH   1   9
BRANCH   6  14
ATOM     14  C   LIG    1        1.212  -6.677  -0.717  0.00  0.00    +0.220 C 
BRANCH  14  15
ATOM     15  O   LIG    1        0.942  -8.080  -0.700  0.00  0.00    -0.550 OA
ATOM     16  H   LIG    1        1.613  -8.615  -1.146  0.00  0.00    +0.390 HD
ENDBRANCH  14  15
ENDBRANCH   6  14
TORSDOF 4
ENDMDL
MODEL     1338
REMARK  Name = ZINC000019168868
REMARK                            x       y       z     vdW  Elec       q    Type
REMARK                         _______ _______ _______ _____ _____    ______ ____
ROOT
ATOM      1  O   LIG    1        0.082  -0.001  -0.056  0.00  0.00    -0.940 OA
ATOM      2  S   LIG    1        0.014   1.418  -0.013  0.00  0.00    +2.410 S 
ATOM      3  C   LIG    1       -0.566   1.924   1.635  0.00  0.00    -0.300 C 
ATOM      4  C   LIG    1        0.450   1.451   2.679  0.00  0.00    +0.180 C 
ATOM      5  N   LIG    1        1.742   2.102   2.449  0.00  0.00    -0.380 NA
ATOM      6  C   LIG    1        2.421   1.589   1.257  0.00  0.00    +0.240 C 
ATOM      7  O   LIG    1       -0.743   2.109  -0.997  0.00  0.00    -0.930 OA
ATOM      8  C   LIG    1        1.706   2.083  -0.005  0.00  0.00    -0.300 C 
ENDROOT
BRANCH   5   9
ATOM      9  N   LIG    1        2.595   1.996   3.621  0.00  0.00    -0.340 NA
ATOM     10  C   LIG    1        2.778   0.591   4.014  0.00  0.00    +0.100 C 
ATOM     11  C   LIG    1        3.728   0.522   5.213  0.00  0.00    +0.240 C 
ATOM     12  O   LIG    1        3.202   1.318   6.278  0.00  0.00    -0.380 OA
ATOM     13  C   LIG    1        3.012   2.692   5.930  0.00  0.00    +0.240 C 
ATOM     14  C   LIG    1        2.054   2.783   4.739  0.00  0.00    +0.160 C 
ENDBRANCH   5   9
TORSDOF 1
ENDMDL
MODEL     1339
REMARK  Name = ZINC000000501121
REMARK                            x       y       z     vdW  Elec       q    Type
REMARK                         _______ _______ _______ _____ _____    ______ ____
ROOT
ATOM      1  C   LIG    1       -0.018   1.461   0.010  0.00  0.00    +0.370 C 
ATOM      2  N   LIG    1        0.002  -0.004   0.002  0.00  0.00    -0.540 N 
ATOM      3  C   LIG    1       -1.103  -0.776   0.003  0.00  0.00    +0.520 C 
ATOM      4  C   LIG    1       -0.602  -2.207  -0.008  0.00  0.00    +0.220 C 
ATOM      5  N   LIG    1        0.864  -2.061  -0.015  0.00  0.00    -0.660 N 
ATOM      6  H   LIG    1        1.517  -2.778  -0.022  0.00  0.00    +0.450 HD
ATOM      7  O   LIG    1       -2.256  -0.404   0.011  0.00  0.00    -0.440 OA
ATOM      8  C   LIG    1        1.119  -0.741  -0.013  0.00  0.00    +0.540 C 
ATOM      9  S   LIG    1        2.697  -0.076  -0.019  0.00  0.00    -0.550 S 
ENDROOT
BRANCH   4  10
ATOM     10  C   LIG    1       -1.067  -2.950   1.246  0.00  0.00    +0.100 C 
BRANCH  10  11
ATOM     11  C   LIG    1       -0.656  -4.420   1.151  0.00  0.00    +0.070 C 
BRANCH  11  12
ATOM     12  C   LIG    1       -1.113  -5.151   2.386  0.00  0.00    +0.520 C 
ATOM     13  O   LIG    1       -1.710  -4.555   3.258  0.00  0.00    -0.540 OA
ATOM     14  N   LIG    1       -0.860  -6.468   2.523  0.00  0.00    -0.850 N 
ATOM     15  H   LIG    1       -1.155  -6.939   3.318  0.00  0.00    +0.410 HD
ATOM     16  H   LIG    1       -0.383  -6.945   1.826  0.00  0.00    +0.400 HD
ENDBRANCH  11  12
ENDBRANCH  10  11
ENDBRANCH   4  10
TORSDOF 3
ENDMDL
MODEL     1340
REMARK  Name = ZINC000016513477
REMARK                            x       y       z     vdW  Elec       q    Type
REMARK                         _______ _______ _______ _____ _____    ______ ____
ROOT
ATOM      1  N   LIG    1        1.406  -0.867   1.736  0.00  0.00    -0.370 N 
ATOM      2  C   LIG    1        2.038  -0.061   2.618  0.00  0.00    +0.600 A 
ATOM      3  N   LIG    1        3.260  -0.509   2.771  0.00  0.00    -0.230 N 
ATOM      4  C   LIG    1        3.444  -1.589   2.010  0.00  0.00    +0.480 A 
ATOM      5  N   LIG    1        2.337  -1.851   1.364  0.00  0.00    -0.230 NA
ENDROOT
BRANCH   1   6
ATOM      6  C   LIG    1        0.024  -0.743   1.267  0.00  0.00    +0.690 C 
BRANCH   6   8
ATOM      7  C   LIG    1       -0.018   1.461   0.010  0.00  0.00    +0.360 C 
ATOM      8  N   LIG    1        0.002  -0.004   0.002  0.00  0.00    -0.520 N 
BRANCH   8   9
ATOM      9  N   LIG    1        0.000  -0.698  -1.215  0.00  0.00    +0.200 N 
ATOM     10  O   LIG    1        0.017  -1.916  -1.222  0.00  0.00    -0.160 OA
ATOM     11  O   LIG    1       -0.018  -0.083  -2.267  0.00  0.00    -0.170 OA
ENDBRANCH   8   9
ENDBRANCH   6   8
ENDBRANCH   1   6
BRANCH   3  12
ATOM     12  N   LIG    1        4.227   0.062   3.608  0.00  0.00    -0.280 NA
BRANCH  12  13
ATOM     13  N   LIG    1        5.505  -0.506   3.691  0.00  0.00    +0.190 N 
ATOM     14  O   LIG    1        6.346  -0.010   4.418  0.00  0.00    -0.210 OA
ATOM     15  O   LIG    1        5.775  -1.496   3.035  0.00  0.00    -0.330 OA
ENDBRANCH  12  13
ENDBRANCH   3  12
TORSDOF 5
ENDMDL
MODEL     1341
REMARK  Name = ZINC000003865797
REMARK                            x       y       z     vdW  Elec       q    Type
REMARK                         _______ _______ _______ _____ _____    ______ ____
ROOT
ATOM      1  N   LIG    1        3.255   2.652   1.799  0.00  0.00    -0.680 N 
ATOM      2  H   LIG    1        3.501   1.939   2.409  0.00  0.00    +0.400 HD
ENDROOT
BRANCH   1   7
ATOM      3  O   LIG    1        0.002  -0.004   0.002  0.00  0.00    -0.930 OA
ATOM      4  S   LIG    1       -0.017   1.417   0.010  0.00  0.00    +2.400 S 
ATOM      5  C   LIG    1       -0.460   2.009   1.687  0.00  0.00    -0.290 C 
ATOM      6  C   LIG    1        0.923   2.140   2.374  0.00  0.00    +0.070 C 
ATOM      7  C   LIG    1        1.869   2.779   1.343  0.00  0.00    +0.300 C 
ATOM      8  O   LIG    1       -0.784   2.119  -0.959  0.00  0.00    -0.930 OA
ATOM      9  C   LIG    1        1.700   2.046  -0.003  0.00  0.00    -0.310 C 
ENDBRANCH   1   7
BRANCH   1  10
ATOM     10  C   LIG    1        4.188   3.525   1.372  0.00  0.00    +0.560 C 
ATOM     11  S   LIG    1        3.754   4.784   0.296  0.00  0.00    -0.630 S 
BRANCH  10  12
ATOM     12  N   LIG    1        5.464   3.408   1.792  0.00  0.00    -0.670 N 
ATOM     13  H   LIG    1        5.710   2.695   2.402  0.00  0.00    +0.400 HD
BRANCH  12  14
ATOM     14  C   LIG    1        6.478   4.358   1.328  0.00  0.00    +0.320 C 
BRANCH  14  15
ATOM     15  C   LIG    1        7.830   4.003   1.950  0.00  0.00    +0.180 C 
BRANCH  15  16
ATOM     16  O   LIG    1        8.257   2.728   1.467  0.00  0.00    -0.570 OA
ATOM     17  H   LIG    1        9.110   2.439   1.821  0.00  0.00    +0.390 HD
ENDBRANCH  15  16
ENDBRANCH  14  15
ENDBRANCH  12  14
ENDBRANCH  10  12
ENDBRANCH   1  10
TORSDOF 6
ENDMDL
MODEL     1342
REMARK  Name = ZINC000002601206
REMARK                            x       y       z     vdW  Elec       q    Type
REMARK                         _______ _______ _______ _____ _____    ______ ____
ROOT
ATOM      1  C   LIG    1       -0.019   1.526   0.010  0.00  0.00    +0.080 C 
ATOM      2  C   LIG    1        0.002  -0.004   0.002  0.00  0.00    +0.260 C 
ATOM      3  N   LIG    1        0.667  -0.465  -1.209  0.00  0.00    -0.700 N 
ATOM      4  H   LIG    1        0.168  -0.466  -2.041  0.00  0.00    +0.430 HD
ATOM      5  C   LIG    1        1.935  -0.888  -1.224  0.00  0.00    +0.530 C 
ATOM      6  C   LIG    1        2.790  -0.928   0.007  0.00  0.00    +0.310 C 
ATOM      7  N   LIG    1        1.978  -0.910   1.216  0.00  0.00    -0.730 N 
ATOM      8  H   LIG    1        2.376  -1.214   2.046  0.00  0.00    +0.420 HD
ATOM      9  O   LIG    1        2.413  -1.255  -2.276  0.00  0.00    -0.470 OA
ATOM     10  C   LIG    1        0.710  -0.492   1.230  0.00  0.00    +0.530 C 
ATOM     11  O   LIG    1        0.104  -0.508   2.281  0.00  0.00    -0.500 OA
ENDROOT
BRANCH   6  12
ATOM     12  C   LIG    1        3.719   0.288   0.010  0.00  0.00    +0.420 C 
ATOM     13  F   LIG    1        4.531   0.257  -1.129  0.00  0.00    -0.150 F 
ATOM     14  F   LIG    1        4.521   0.259   1.156  0.00  0.00    -0.170 F 
ATOM     15  F   LIG    1        2.954   1.459   0.006  0.00  0.00    -0.170 F 
ENDBRANCH   6  12
BRANCH   6  16
ATOM     16  O   LIG    1        3.579  -2.119  -0.010  0.00  0.00    -0.500 OA
ATOM     17  H   LIG    1        4.160  -2.216   0.757  0.00  0.00    +0.400 HD
ENDBRANCH   6  16
TORSDOF 2
ENDMDL
MODEL     1343
REMARK  Name = ZINC000002601204
REMARK                            x       y       z     vdW  Elec       q    Type
REMARK                         _______ _______ _______ _____ _____    ______ ____
ROOT
ATOM      1  C   LIG    1       -0.019   1.526   0.010  0.00  0.00    +0.090 C 
ATOM      2  C   LIG    1        0.002  -0.004   0.002  0.00  0.00    +0.250 C 
ATOM      3  N   LIG    1        0.667  -0.465  -1.209  0.00  0.00    -0.700 N 
ATOM      4  H   LIG    1        0.491   0.001  -2.041  0.00  0.00    +0.430 HD
ATOM      5  C   LIG    1        1.509  -1.503  -1.223  0.00  0.00    +0.530 C 
ATOM      6  C   LIG    1        1.848  -2.288   0.008  0.00  0.00    +0.310 C 
ATOM      7  N   LIG    1        1.546  -1.534   1.216  0.00  0.00    -0.730 N 
ATOM      8  H   LIG    1        1.972  -1.798   2.047  0.00  0.00    +0.420 HD
ATOM      9  O   LIG    1        2.020  -1.823  -2.276  0.00  0.00    -0.470 OA
ATOM     10  C   LIG    1        0.710  -0.492   1.230  0.00  0.00    +0.530 C 
ATOM     11  O   LIG    1        0.513   0.081   2.280  0.00  0.00    -0.500 OA
ENDROOT
BRANCH   6  12
ATOM     12  C   LIG    1        1.037  -3.586   0.013  0.00  0.00    +0.420 C 
ATOM     13  F   LIG    1       -0.328  -3.282   0.010  0.00  0.00    -0.170 F 
ATOM     14  F   LIG    1        1.348  -4.325   1.160  0.00  0.00    -0.170 F 
ATOM     15  F   LIG    1        1.351  -4.337  -1.125  0.00  0.00    -0.150 F 
ENDBRANCH   6  12
BRANCH   6  16
ATOM     16  O   LIG    1        3.241  -2.607  -0.009  0.00  0.00    -0.500 OA
ATOM     17  H   LIG    1        3.537  -3.116   0.757  0.00  0.00    +0.400 HD
ENDBRANCH   6  16
TORSDOF 2
ENDMDL
MODEL     1344
REMARK  Name = ZINC000002601205
REMARK                            x       y       z     vdW  Elec       q    Type
REMARK                         _______ _______ _______ _____ _____    ______ ____
ROOT
ATOM      1  C   LIG    1       -0.019   1.526   0.010  0.00  0.00    +0.090 C 
ATOM      2  C   LIG    1        0.002  -0.004   0.002  0.00  0.00    +0.250 C 
ATOM      3  N   LIG    1       -1.368  -0.500  -0.009  0.00  0.00    -0.700 N 
ATOM      4  H   LIG    1       -2.023  -0.041  -0.558  0.00  0.00    +0.430 HD
ATOM      5  C   LIG    1       -1.761  -1.559   0.706  0.00  0.00    +0.530 C 
ATOM      6  C   LIG    1       -0.828  -2.334   1.586  0.00  0.00    +0.310 C 
ATOM      7  N   LIG    1        0.357  -1.554   1.918  0.00  0.00    -0.730 N 
ATOM      8  H   LIG    1        0.884  -1.816   2.689  0.00  0.00    +0.420 HD
ATOM      9  O   LIG    1       -2.921  -1.907   0.639  0.00  0.00    -0.470 OA
ATOM     10  C   LIG    1        0.747  -0.491   1.208  0.00  0.00    +0.530 C 
ATOM     11  O   LIG    1        1.747   0.102   1.552  0.00  0.00    -0.500 OA
ENDROOT
BRANCH   6  12
ATOM     12  C   LIG    1       -0.398  -3.610   0.860  0.00  0.00    +0.420 C 
ATOM     13  F   LIG    1       -1.526  -4.386   0.572  0.00  0.00    -0.150 F 
ATOM     14  F   LIG    1        0.474  -4.340   1.675  0.00  0.00    -0.170 F 
ATOM     15  F   LIG    1        0.252  -3.272  -0.332  0.00  0.00    -0.170 F 
ENDBRANCH   6  12
BRANCH   6  16
ATOM     16  O   LIG    1       -1.508  -2.688   2.792  0.00  0.00    -0.500 OA
ATOM     17  H   LIG    1       -0.967  -3.194   3.414  0.00  0.00    +0.400 HD
ENDBRANCH   6  16
TORSDOF 2
ENDMDL
MODEL     1345
REMARK  Name = ZINC000075249622
REMARK                            x       y       z     vdW  Elec       q    Type
REMARK                         _______ _______ _______ _____ _____    ______ ____
ROOT
ATOM      1  C   LIG    1        0.880  -0.358  -1.545  0.00  0.00    -0.850 C 
ATOM      2  C   LIG    1        1.220  -1.814  -1.777  0.00  0.00    +0.130 C 
ATOM      3  O   LIG    1        0.560  -2.876  -2.382  0.00  0.00    -0.320 OA
ATOM      4  C   LIG    1        1.602  -3.857  -2.665  0.00  0.00    +0.230 C 
ATOM      5  C   LIG    1        2.962  -3.126  -2.430  0.00  0.00    +0.100 C 
ATOM      6  C   LIG    1        2.520  -1.670  -2.696  0.00  0.00    -0.370 C 
ATOM      7  S   LIG    1        2.726  -0.395  -1.417  0.00  0.00    +2.420 S 
ATOM      8  O   LIG    1        3.152  -0.955  -0.182  0.00  0.00    -0.860 OA
ATOM      9  O   LIG    1        3.316   0.785  -1.944  0.00  0.00    -0.890 OA
ENDROOT
BRANCH   1  11
ATOM     10  C   LIG    1       -0.022   1.810   0.012  0.00  0.00    -0.230 C 
ATOM     11  S   LIG    1        0.002  -0.004   0.002  0.00  0.00    +2.440 S 
ATOM     12  O   LIG    1       -1.334  -0.474  -0.117  0.00  0.00    -0.910 OA
ATOM     13  O   LIG    1        0.801  -0.452   1.088  0.00  0.00    -0.900 OA
ENDBRANCH   1  11
TORSDOF 1
ENDMDL
MODEL     1346
REMARK  Name = ZINC000075249628
REMARK                            x       y       z     vdW  Elec       q    Type
REMARK                         _______ _______ _______ _____ _____    ______ ____
ROOT
ATOM      1  C   LIG    1        0.880  -0.358  -1.545  0.00  0.00    -0.880 C 
ATOM      2  C   LIG    1        1.149  -1.874  -1.800  0.00  0.00    +0.210 C 
ATOM      3  O   LIG    1        1.229  -2.602  -0.557  0.00  0.00    -0.360 OA
ATOM      4  C   LIG    1        2.163  -3.677  -0.782  0.00  0.00    +0.250 C 
ATOM      5  C   LIG    1        3.292  -3.047  -1.624  0.00  0.00    +0.080 C 
ATOM      6  C   LIG    1        2.623  -1.873  -2.336  0.00  0.00    -0.370 C 
ATOM      7  S   LIG    1        2.704  -0.297  -1.409  0.00  0.00    +2.410 S 
ATOM      8  O   LIG    1        3.143  -0.504  -0.074  0.00  0.00    -0.850 OA
ATOM      9  O   LIG    1        3.236   0.748  -2.212  0.00  0.00    -0.910 OA
ENDROOT
BRANCH   1  11
ATOM     10  C   LIG    1       -0.022   1.810   0.012  0.00  0.00    -0.260 C 
ATOM     11  S   LIG    1        0.002  -0.004   0.002  0.00  0.00    +2.460 S 
ATOM     12  O   LIG    1       -1.334  -0.474  -0.117  0.00  0.00    -0.910 OA
ATOM     13  O   LIG    1        0.801  -0.452   1.088  0.00  0.00    -0.880 OA
ENDBRANCH   1  11
TORSDOF 1
ENDMDL
MODEL     1347
REMARK  Name = ZINC000075250180
REMARK                            x       y       z     vdW  Elec       q    Type
REMARK                         _______ _______ _______ _____ _____    ______ ____
ROOT
ATOM      1  C   LIG    1        0.002  -0.004   0.002  0.00  0.00    +0.420 A 
ATOM      2  N   LIG    1       -1.043  -0.795   0.002  0.00  0.00    -0.330 NA
ATOM      3  N   LIG    1       -0.625  -2.130  -0.007  0.00  0.00    -0.440 N 
ATOM      4  H   LIG    1       -1.214  -2.901  -0.009  0.00  0.00    +0.450 HD
ATOM      5  C   LIG    1        0.730  -2.179  -0.014  0.00  0.00    +0.360 A 
ATOM      6  N   LIG    1        1.627  -3.180  -0.023  0.00  0.00    -0.520 NA
ATOM      7  C   LIG    1        2.908  -2.940  -0.024  0.00  0.00    +0.590 A 
ATOM      8  N   LIG    1        3.412  -1.680  -0.024  0.00  0.00    -0.390 N 
ATOM      9  C   LIG    1        2.583  -0.612  -0.019  0.00  0.00    +0.590 A 
ATOM     10  O   LIG    1        3.023   0.524  -0.019  0.00  0.00    -0.500 OA
ATOM     11  C   LIG    1        1.188  -0.852  -0.014  0.00  0.00    -0.370 A 
ENDROOT
BRANCH   1  12
ATOM     12  N   LIG    1       -0.017   1.391   0.010  0.00  0.00    -0.820 N 
ATOM     13  H   LIG    1       -0.863   1.865   0.016  0.00  0.00    +0.410 HD
ATOM     14  H   LIG    1        0.817   1.888   0.004  0.00  0.00    +0.420 HD
ENDBRANCH   1  12
BRANCH   8  15
ATOM     15  N   LIG    1        4.765  -1.489  -0.029  0.00  0.00    -0.430 N 
ATOM     16  H   LIG    1        5.206  -2.050  -0.742  0.00  0.00    +0.360 HD
BRANCH  15  17
ATOM     17  C   LIG    1        5.341  -1.769   1.293  0.00  0.00    +0.180 C 
BRANCH  17  18
ATOM     18  C   LIG    1        6.854  -1.546   1.248  0.00  0.00    +0.190 C 
BRANCH  18  19
ATOM     19  O   LIG    1        7.124  -0.164   1.003  0.00  0.00    -0.560 OA
ATOM     20  H   LIG    1        8.066   0.051   0.962  0.00  0.00    +0.380 HD
ENDBRANCH  18  19
ENDBRANCH  17  18
ENDBRANCH  15  17
ENDBRANCH   8  15
TORSDOF 5
ENDMDL
MODEL     1348
REMARK  Name = ZINC000050103469
REMARK                            x       y       z     vdW  Elec       q    Type
REMARK                         _______ _______ _______ _____ _____    ______ ____
ROOT
ATOM      1  N   LIG    1       -1.117   4.220   1.248  0.00  0.00    -0.510 NA
ATOM      2  C   LIG    1       -2.569   4.115   1.454  0.00  0.00    +0.180 C 
ATOM      3  C   LIG    1       -2.946   4.800   2.769  0.00  0.00    +0.190 C 
ATOM      4  N   LIG    1       -2.523   6.207   2.724  0.00  0.00    -0.530 NA
ATOM      5  C   LIG    1       -1.072   6.312   2.519  0.00  0.00    +0.190 C 
ATOM      6  C   LIG    1       -0.695   5.626   1.203  0.00  0.00    +0.200 C 
ENDROOT
BRANCH   1  10
ATOM      7  O   LIG    1       -2.961   2.845  -2.671  0.00  0.00    -0.480 OA
ATOM      8  C   LIG    1       -2.228   2.853  -1.705  0.00  0.00    +0.530 C 
ATOM      9  C   LIG    1       -1.458   4.053  -1.199  0.00  0.00    +0.060 C 
ATOM     10  C   LIG    1       -0.705   3.507   0.032  0.00  0.00    +0.190 C 
ATOM     11  C   LIG    1       -1.129   2.056   0.091  0.00  0.00    +0.540 C 
ATOM     12  O   LIG    1       -0.763   1.251   0.921  0.00  0.00    -0.460 OA
ATOM     13  N   LIG    1       -1.977   1.803  -0.914  0.00  0.00    -0.680 N 
ATOM     14  H   LIG    1       -2.371   0.929  -1.060  0.00  0.00    +0.420 HD
ENDBRANCH   1  10
BRANCH   4  15
ATOM     15  C   LIG    1       -2.935   6.920   3.941  0.00  0.00    +0.180 C 
BRANCH  15  16
ATOM     16  C   LIG    1       -2.705   8.421   3.755  0.00  0.00    +0.180 C 
BRANCH  16  17
ATOM     17  O   LIG    1       -3.562   8.911   2.722  0.00  0.00    -0.560 OA
ATOM     18  H   LIG    1       -3.469   9.857   2.550  0.00  0.00    +0.380 HD
ENDBRANCH  16  17
ENDBRANCH  15  16
ENDBRANCH   4  15
TORSDOF 4
ENDMDL
MODEL     1349
REMARK  Name = ZINC000075252105
REMARK                            x       y       z     vdW  Elec       q    Type
REMARK                         _______ _______ _______ _____ _____    ______ ____
ROOT
ATOM      1  C   LIG    1       -0.019   1.526   0.010  0.00  0.00    +0.110 C 
ATOM      2  C   LIG    1        0.002  -0.004   0.002  0.00  0.00    -0.290 C 
ATOM      3  N   LIG    1        0.770  -0.496  -1.150  0.00  0.00    -0.580 N 
ATOM      4  C   LIG    1        1.895  -1.365  -0.811  0.00  0.00    +0.260 C 
ATOM      5  C   LIG    1        2.458  -0.954   0.578  0.00  0.00    -0.270 C 
ATOM      6  C   LIG    1        0.460  -0.172  -2.421  0.00  0.00    +0.670 C 
ATOM      7  O   LIG    1        1.127  -0.605  -3.337  0.00  0.00    -0.530 OA
ATOM      8  C   LIG    1       -1.426  -0.552  -0.037  0.00  0.00    +0.110 C 
ATOM      9  S   LIG    1        0.885  -0.635   1.480  0.00  0.00    +2.380 S 
ATOM     10  O   LIG    1        0.310  -1.867   1.895  0.00  0.00    -0.890 OA
ATOM     11  O   LIG    1        1.072   0.418   2.416  0.00  0.00    -0.910 OA
ENDROOT
BRANCH   4  12
ATOM     12  C   LIG    1        1.429  -2.797  -0.760  0.00  0.00    +0.500 C 
ATOM     13  O   LIG    1        0.268  -3.065  -0.987  0.00  0.00    -0.510 OA
ATOM     14  N   LIG    1        2.302  -3.780  -0.464  0.00  0.00    -0.850 N 
ATOM     15  H   LIG    1        2.001  -4.702  -0.431  0.00  0.00    +0.410 HD
ATOM     16  H   LIG    1        3.230  -3.566  -0.283  0.00  0.00    +0.400 HD
ENDBRANCH   4  12
TORSDOF 1
ENDMDL
MODEL     1350
REMARK  Name = ZINC000075252108
REMARK                            x       y       z     vdW  Elec       q    Type
REMARK                         _______ _______ _______ _____ _____    ______ ____
ROOT
ATOM      1  C   LIG    1       -0.799   0.910  -0.982  0.00  0.00    +0.110 C 
ATOM      2  C   LIG    1       -0.354  -0.472  -0.501  0.00  0.00    -0.280 C 
ATOM      3  N   LIG    1        0.653  -1.029  -1.415  0.00  0.00    -0.590 N 
ATOM      4  C   LIG    1        1.925  -1.377  -0.786  0.00  0.00    +0.230 C 
ATOM      5  C   LIG    1        2.181  -0.422   0.412  0.00  0.00    -0.280 C 
ATOM      6  C   LIG    1        0.420  -1.206  -2.731  0.00  0.00    +0.660 C 
ATOM      7  O   LIG    1       -0.681  -0.985  -3.187  0.00  0.00    -0.520 OA
ATOM      8  C   LIG    1       -1.558  -1.411  -0.400  0.00  0.00    +0.110 C 
ATOM      9  S   LIG    1        0.485  -0.339   1.124  0.00  0.00    +2.390 S 
ATOM     10  O   LIG    1        0.229  -1.505   1.895  0.00  0.00    -0.900 OA
ATOM     11  O   LIG    1        0.259   0.949   1.679  0.00  0.00    -0.900 OA
ENDROOT
BRANCH   4  12
ATOM     12  C   LIG    1        3.040  -1.232  -1.791  0.00  0.00    +0.520 C 
ATOM     13  O   LIG    1        2.956  -0.406  -2.675  0.00  0.00    -0.520 OA
ATOM     14  N   LIG    1        4.129  -2.021  -1.707  0.00  0.00    -0.840 N 
ATOM     15  H   LIG    1        4.846  -1.928  -2.353  0.00  0.00    +0.410 HD
ATOM     16  H   LIG    1        4.196  -2.682  -1.000  0.00  0.00    +0.410 HD
ENDBRANCH   4  12
TORSDOF 1
ENDMDL
MODEL     1351
REMARK  Name = ZINC000019229292
REMARK                            x       y       z     vdW  Elec       q    Type
REMARK                         _______ _______ _______ _____ _____    ______ ____
ROOT
ATOM      1  O   LIG    1        0.315  -0.139  -0.052  0.00  0.00    -0.930 OA
ATOM      2  S   LIG    1        0.218   1.277  -0.109  0.00  0.00    +2.380 S 
ATOM      3  C   LIG    1       -0.405   1.918   1.497  0.00  0.00    -0.330 C 
ATOM      4  C   LIG    1        0.294   3.302   1.560  0.00  0.00    +0.160 C 
ATOM      5  C   LIG    1        1.738   3.144   1.080  0.00  0.00    +0.210 C 
ATOM      6  O   LIG    1       -0.479   1.900  -1.179  0.00  0.00    -0.920 OA
ATOM      7  C   LIG    1        1.888   2.015   0.049  0.00  0.00    -0.280 C 
ENDROOT
BRANCH   5   8
ATOM      8  N   LIG    1        2.177   4.405   0.469  0.00  0.00    -0.520 NA
ATOM      9  C   LIG    1        2.147   5.503   1.447  0.00  0.00    +0.170 C 
ATOM     10  C   LIG    1        2.668   6.782   0.787  0.00  0.00    +0.220 C 
ATOM     11  O   LIG    1        1.882   7.068  -0.373  0.00  0.00    -0.380 OA
ATOM     12  C   LIG    1        1.890   6.021  -1.347  0.00  0.00    +0.230 C 
ATOM     13  C   LIG    1        1.361   4.734  -0.708  0.00  0.00    +0.130 C 
ENDBRANCH   5   8
BRANCH   4  14
ATOM     14  O   LIG    1        0.287   3.783   2.906  0.00  0.00    -0.540 OA
ATOM     15  H   LIG    1       -0.598   3.916   3.272  0.00  0.00    +0.390 HD
ENDBRANCH   4  14
TORSDOF 2
ENDMDL
MODEL     1352
REMARK  Name = ZINC000001644619
REMARK                            x       y       z     vdW  Elec       q    Type
REMARK                         _______ _______ _______ _____ _____    ______ ____
ROOT
ATOM      1  C   VAL A  1       -1.413  -2.041   0.005  0.00  0.00    +0.500 C 
ATOM      2  N   GLY A  2       -1.190  -2.718   1.148  0.00  0.00    -0.680 N 
ATOM      3  H   GLY A  2       -1.043  -2.235   1.977  0.00  0.00    +0.420 HD
ATOM      4  O   VAL A  1       -1.597  -2.644  -1.031  0.00  0.00    -0.530 OA
ENDROOT
BRANCH   1   5
ATOM      5  CA  VAL A  1       -1.433  -0.534   0.013  0.00  0.00    +0.180 C 
BRANCH   5   6
ATOM      6  N   VAL A  1       -2.144  -0.047  -1.177  0.00  0.00    -0.620 N 
ATOM      7  H1  VAL A  1       -3.090  -0.396  -1.170  0.00  0.00    +0.440 HD
ATOM      8  H2  VAL A  1       -1.671  -0.372  -2.007  0.00  0.00    +0.440 HD
ATOM      9  H3  VAL A  1       -2.158   0.962  -1.172  0.00  0.00    +0.440 HD
ENDBRANCH   5   6
BRANCH   5  11
ATOM     10  CG1 VAL A  1       -0.019   1.526   0.010  0.00  0.00    +0.050 C 
ATOM     11  CB  VAL A  1        0.002  -0.004   0.002  0.00  0.00    -0.010 C 
ATOM     12  CG2 VAL A  1        0.742  -0.511   1.242  0.00  0.00    +0.080 C 
ENDBRANCH   5  11
ENDBRANCH   1   5
BRANCH   2  13
ATOM     13  CA  GLY A  2       -1.170  -4.183   1.140  0.00  0.00    +0.310 C 
BRANCH  13  14
ATOM     14  C   GLY A  2       -0.903  -4.689   2.534  0.00  0.00    +0.490 C 
ATOM     15  N   GLY A  3       -0.840  -6.015   2.769  0.00  0.00    -0.680 N 
ATOM     16  H   GLY A  3       -0.967  -6.643   2.041  0.00  0.00    +0.410 HD
ATOM     17  O   GLY A  2       -0.745  -3.904   3.445  0.00  0.00    -0.560 OA
BRANCH  15  18
ATOM     18  CA  GLY A  3       -0.581  -6.507   4.124  0.00  0.00    +0.190 C 
BRANCH  18  19
ATOM     19  C   GLY A  3       -0.560  -8.014   4.116  0.00  0.00    +0.490 C 
ATOM     20  OXT GLY A  3       -0.359  -8.626   5.151  0.00  0.00    -0.680 OA
ATOM     21  O   GLY A  3       -0.746  -8.620   3.075  0.00  0.00    -0.690 OA
ENDBRANCH  18  19
ENDBRANCH  15  18
ENDBRANCH  13  14
ENDBRANCH   2  13
TORSDOF 7
ENDMDL
MODEL     1353
REMARK  Name = ZINC000001635604
REMARK                            x       y       z     vdW  Elec       q    Type
REMARK                         _______ _______ _______ _____ _____    ______ ____
ROOT
ATOM      1  N   VAL A  3       -1.413  -1.998   0.005  0.00  0.00    -0.680 N 
ATOM      2  H   VAL A  3       -0.642  -2.475   0.350  0.00  0.00    +0.400 HD
ATOM      3  C   GLY A  2       -2.467  -2.684  -0.482  0.00  0.00    +0.500 C 
ATOM      4  O   GLY A  2       -3.431  -2.088  -0.914  0.00  0.00    -0.550 OA
ENDROOT
BRANCH   1   5
ATOM      5  CA  VAL A  3       -1.433  -0.534   0.013  0.00  0.00    +0.150 C 
BRANCH   5   7
ATOM      6  CG1 VAL A  3       -0.019   1.526   0.010  0.00  0.00    +0.030 C 
ATOM      7  CB  VAL A  3        0.002  -0.004   0.002  0.00  0.00    -0.020 C 
ATOM      8  CG2 VAL A  3        0.742  -0.511   1.242  0.00  0.00    +0.020 C 
ENDBRANCH   5   7
BRANCH   5   9
ATOM      9  C   VAL A  3       -2.139  -0.048   1.253  0.00  0.00    +0.500 C 
ATOM     10  OXT VAL A  3       -2.421  -0.834   2.141  0.00  0.00    -0.690 OA
ATOM     11  O   VAL A  3       -2.426   1.131   1.368  0.00  0.00    -0.680 OA
ENDBRANCH   5   9
ENDBRANCH   1   5
BRANCH   3  12
ATOM     12  CA  GLY A  2       -2.446  -4.191  -0.490  0.00  0.00    +0.320 C 
BRANCH  12  13
ATOM     13  N   GLY A  2       -3.697  -4.693  -1.065  0.00  0.00    -0.680 N 
ATOM     14  H   GLY A  2       -4.377  -4.070  -1.367  0.00  0.00    +0.420 HD
ATOM     15  C   GLY A  1       -3.903  -6.021  -1.174  0.00  0.00    +0.490 C 
ATOM     16  O   GLY A  1       -3.053  -6.799  -0.797  0.00  0.00    -0.540 OA
BRANCH  15  17
ATOM     17  CA  GLY A  1       -5.189  -6.537  -1.765  0.00  0.00    +0.310 C 
BRANCH  17  18
ATOM     18  N   GLY A  1       -5.170  -8.006  -1.773  0.00  0.00    -0.620 N 
ATOM     19  H1  GLY A  1       -5.073  -8.346  -0.828  0.00  0.00    +0.440 HD
ATOM     20  H2  GLY A  1       -4.391  -8.329  -2.328  0.00  0.00    +0.440 HD
ATOM     21  H3  GLY A  1       -6.031  -8.352  -2.169  0.00  0.00    +0.440 HD
ENDBRANCH  17  18
ENDBRANCH  15  17
ENDBRANCH  12  13
ENDBRANCH   3  12
TORSDOF 7
ENDMDL
MODEL     1354
REMARK  Name = ZINC000222663139
REMARK                            x       y       z     vdW  Elec       q    Type
REMARK                         _______ _______ _______ _____ _____    ______ ____
ROOT
ATOM      1  C   LIG    1       -2.449   1.117   0.020  0.00  0.00    +0.220 C 
ATOM      2  C   LIG    1       -2.833   0.758  -1.418  0.00  0.00    +0.220 C 
ATOM      3  O   LIG    1       -3.045   1.956  -2.167  0.00  0.00    -0.370 OA
ATOM      4  C   LIG    1       -4.101   2.778  -1.665  0.00  0.00    +0.210 C 
ATOM      5  C   LIG    1       -3.768   3.219  -0.237  0.00  0.00    -0.020 C 
ATOM      6  C   LIG    1       -3.556   1.977   0.637  0.00  0.00    +0.160 C 
ENDROOT
BRANCH   1   9
ATOM      7  O   LIG    1        0.002  -0.004   0.002  0.00  0.00    -0.550 OA
ATOM      8  C   LIG    1       -0.014   1.209   0.009  0.00  0.00    +0.520 C 
ATOM      9  N   LIG    1       -1.191   1.867   0.018  0.00  0.00    -0.710 N 
ATOM     10  H   LIG    1       -1.204   2.837   0.023  0.00  0.00    +0.410 HD
BRANCH   8  11
ATOM     11  C   LIG    1        1.280   1.980   0.001  0.00  0.00    +0.060 C 
BRANCH  11  12
ATOM     12  C   LIG    1        2.457   1.002  -0.016  0.00  0.00    +0.190 C 
BRANCH  12  13
ATOM     13  O   LIG    1        3.684   1.733  -0.024  0.00  0.00    -0.580 OA
ATOM     14  H   LIG    1        4.474   1.175  -0.034  0.00  0.00    +0.390 HD
ENDBRANCH  12  13
ENDBRANCH  11  12
ENDBRANCH   8  11
ENDBRANCH   1   9
BRANCH   6  15
ATOM     15  O   LIG    1       -3.175   2.379   1.954  0.00  0.00    -0.360 OA
BRANCH  15  16
ATOM     16  C   LIG    1       -4.277   2.576   2.843  0.00  0.00    +0.190 C 
BRANCH  16  17
ATOM     17  C   LIG    1       -3.754   3.002   4.216  0.00  0.00    +0.190 C 
BRANCH  17  18
ATOM     18  O   LIG    1       -3.121   4.279   4.110  0.00  0.00    -0.570 OA
ATOM     19  H   LIG    1       -2.765   4.612   4.945  0.00  0.00    +0.380 HD
ENDBRANCH  17  18
ENDBRANCH  16  17
ENDBRANCH  15  16
ENDBRANCH   6  15
TORSDOF 8
ENDMDL
MODEL     1355
REMARK  Name = ZINC000085964506
REMARK                            x       y       z     vdW  Elec       q    Type
REMARK                         _______ _______ _______ _____ _____    ______ ____
ROOT
ATOM      1  N   LIG    1       -3.755   2.663  -1.218  0.00  0.00    -0.520 N 
ENDROOT
BRANCH   1   2
ATOM      2  N   LIG    1       -3.183   3.939  -1.299  0.00  0.00    +0.210 N 
ATOM      3  O   LIG    1       -3.256   4.574  -2.336  0.00  0.00    -0.170 OA
ATOM      4  O   LIG    1       -2.613   4.415  -0.333  0.00  0.00    -0.170 OA
ENDBRANCH   1   2
BRANCH   1   5
ATOM      5  C   LIG    1       -3.667   1.899   0.030  0.00  0.00    +0.400 C 
BRANCH   5   6
ATOM      6  C   LIG    1       -2.395   1.050   0.019  0.00  0.00    +0.220 C 
BRANCH   6   7
ATOM      7  O   LIG    1       -1.250   1.905   0.018  0.00  0.00    -0.210 OA
BRANCH   7   9
ATOM      8  O   LIG    1        0.002  -0.004   0.002  0.00  0.00    -0.130 OA
ATOM      9  N   LIG    1       -0.014   1.214   0.009  0.00  0.00    +0.120 N 
ATOM     10  O   LIG    1        1.032   1.837   0.002  0.00  0.00    -0.060 OA
ENDBRANCH   7   9
ENDBRANCH   6   7
ENDBRANCH   5   6
ENDBRANCH   1   5
BRANCH   1  11
ATOM     11  C   LIG    1       -4.440   2.091  -2.380  0.00  0.00    +0.400 C 
BRANCH  11  12
ATOM     12  C   LIG    1       -5.920   2.477  -2.339  0.00  0.00    +0.220 C 
BRANCH  12  13
ATOM     13  O   LIG    1       -6.048   3.893  -2.483  0.00  0.00    -0.210 OA
BRANCH  13  14
ATOM     14  N   LIG    1       -7.386   4.356  -2.459  0.00  0.00    +0.120 N 
ATOM     15  O   LIG    1       -7.620   5.545  -2.574  0.00  0.00    -0.060 OA
ATOM     16  O   LIG    1       -8.302   3.564  -2.324  0.00  0.00    -0.130 OA
ENDBRANCH  13  14
ENDBRANCH  12  13
ENDBRANCH  11  12
ENDBRANCH   1  11
TORSDOF 9
ENDMDL
MODEL     1356
REMARK  Name = ZINC000018089664
REMARK                            x       y       z     vdW  Elec       q    Type
REMARK                         _______ _______ _______ _____ _____    ______ ____
ROOT
ATOM      1  C   LIG    1       -2.395   1.050   0.019  0.00  0.00    +0.170 C 
ATOM      2  C   LIG    1       -2.834   0.709  -1.437  0.00  0.00    +0.270 C 
ATOM      3  O   LIG    1       -4.225   1.135  -1.562  0.00  0.00    -0.330 OA
ATOM      4  C   LIG    1       -4.731   1.024  -0.258  0.00  0.00    +0.160 C 
ATOM      5  C   LIG    1       -5.933   1.760   0.286  0.00  0.00    +0.180 C 
ATOM      6  C   LIG    1       -5.502   2.071   1.749  0.00  0.00    +0.270 C 
ATOM      7  O   LIG    1       -4.109   1.648   1.867  0.00  0.00    -0.330 OA
ATOM      8  C   LIG    1       -3.606   1.772   0.563  0.00  0.00    +0.150 C 
ENDROOT
BRANCH   1   9
ATOM      9  O   LIG    1       -1.250   1.905   0.018  0.00  0.00    -0.210 OA
BRANCH   9  11
ATOM     10  O   LIG    1        0.002  -0.004   0.002  0.00  0.00    -0.120 OA
ATOM     11  N   LIG    1       -0.014   1.214   0.009  0.00  0.00    +0.120 N 
ATOM     12  O   LIG    1        1.032   1.837   0.002  0.00  0.00    -0.050 OA
ENDBRANCH   9  11
ENDBRANCH   1   9
BRANCH   5  13
ATOM     13  O   LIG    1       -7.076   0.903   0.264  0.00  0.00    -0.210 OA
BRANCH  13  14
ATOM     14  N   LIG    1       -8.312   1.589   0.344  0.00  0.00    +0.120 N 
ATOM     15  O   LIG    1       -9.358   0.964   0.334  0.00  0.00    -0.060 OA
ATOM     16  O   LIG    1       -8.330   2.804   0.423  0.00  0.00    -0.120 OA
ENDBRANCH  13  14
ENDBRANCH   5  13
TORSDOF 4
ENDMDL
MODEL     1357
REMARK  Name = ZINC000005158609
REMARK                            x       y       z     vdW  Elec       q    Type
REMARK                         _______ _______ _______ _____ _____    ______ ____
ROOT
ATOM      1  C   LIG    1       -3.667   1.899   0.030  0.00  0.00    +0.230 C 
ENDROOT
BRANCH   1   2
ATOM      2  O   LIG    1       -3.741   2.631   1.255  0.00  0.00    -0.540 OA
ATOM      3  H   LIG    1       -3.763   2.074   2.045  0.00  0.00    +0.380 HD
ENDBRANCH   1   2
BRANCH   1   4
ATOM      4  C   LIG    1       -2.395   1.050   0.019  0.00  0.00    +0.210 C 
BRANCH   4   5
ATOM      5  O   LIG    1       -1.250   1.905   0.018  0.00  0.00    -0.210 OA
BRANCH   5   7
ATOM      6  O   LIG    1        0.002  -0.004   0.002  0.00  0.00    -0.130 OA
ATOM      7  N   LIG    1       -0.014   1.214   0.009  0.00  0.00    +0.120 N 
ATOM      8  O   LIG    1        1.032   1.837   0.002  0.00  0.00    -0.070 OA
ENDBRANCH   5   7
ENDBRANCH   4   5
ENDBRANCH   1   4
BRANCH   1   9
ATOM      9  C   LIG    1       -4.890   0.989  -0.095  0.00  0.00    +0.230 C 
BRANCH   9  10
ATOM     10  O   LIG    1       -4.856   0.001   0.937  0.00  0.00    -0.540 OA
ATOM     11  H   LIG    1       -4.863   0.367   1.832  0.00  0.00    +0.380 HD
ENDBRANCH   9  10
BRANCH   9  12
ATOM     12  C   LIG    1       -6.164   1.825   0.041  0.00  0.00    +0.210 C 
BRANCH  12  13
ATOM     13  O   LIG    1       -7.305   0.995  -0.192  0.00  0.00    -0.210 OA
BRANCH  13  14
ATOM     14  N   LIG    1       -8.542   1.676  -0.089  0.00  0.00    +0.120 N 
ATOM     15  O   LIG    1       -9.585   1.073  -0.267  0.00  0.00    -0.070 OA
ATOM     16  O   LIG    1       -8.563   2.865   0.176  0.00  0.00    -0.130 OA
ENDBRANCH  13  14
ENDBRANCH  12  13
ENDBRANCH   9  12
ENDBRANCH   1   9
TORSDOF 9
ENDMDL
MODEL     1358
REMARK  Name = ZINC000017059151
REMARK                            x       y       z     vdW  Elec       q    Type
REMARK                         _______ _______ _______ _____ _____    ______ ____
ROOT
ATOM      1  C   LIG    1        0.659  -2.064  -1.123  0.00  0.00    +0.300 A 
ATOM      2  N   LIG    1        0.127  -2.793  -0.179  0.00  0.00    -0.190 NA
ATOM      3  N   LIG    1        0.191  -4.191  -0.268  0.00  0.00    -0.580 N 
ATOM      4  H   LIG    1       -0.366  -4.743   0.303  0.00  0.00    +0.450 HD
ATOM      5  C   LIG    1        1.075  -4.791  -1.197  0.00  0.00    +0.300 A 
ATOM      6  N   LIG    1        1.606  -4.062  -2.142  0.00  0.00    -0.190 NA
ATOM      7  N   LIG    1        1.287  -2.698  -2.223  0.00  0.00    -0.580 N 
ATOM      8  H   LIG    1        1.501  -2.192  -3.022  0.00  0.00    +0.450 HD
ENDROOT
BRANCH   1   9
ATOM      9  C   LIG    1        0.602  -0.603  -1.049  0.00  0.00    +0.540 C 
ATOM     10  O   LIG    1        1.095   0.071  -1.933  0.00  0.00    -0.480 OA
BRANCH   9  12
ATOM     11  C   LIG    1       -0.017   1.425   0.010  0.00  0.00    +0.280 C 
ATOM     12  O   LIG    1        0.002  -0.004   0.002  0.00  0.00    -0.320 OA
ENDBRANCH   9  12
ENDBRANCH   1   9
BRANCH   5  13
ATOM     13  C   LIG    1        1.391  -6.217  -1.099  0.00  0.00    +0.540 C 
ATOM     14  O   LIG    1        0.893  -6.892  -0.217  0.00  0.00    -0.480 OA
BRANCH  13  15
ATOM     15  O   LIG    1        2.234  -6.784  -1.988  0.00  0.00    -0.320 OA
ATOM     16  C   LIG    1        2.498  -8.180  -1.833  0.00  0.00    +0.280 C 
ENDBRANCH  13  15
ENDBRANCH   5  13
TORSDOF 4
ENDMDL
MODEL     1359
REMARK  Name = ZINC000017311164
REMARK                            x       y       z     vdW  Elec       q    Type
REMARK                         _______ _______ _______ _____ _____    ______ ____
ROOT
ATOM      1  C   LIG    1        0.002  -0.004   0.002  0.00  0.00    +0.500 A 
ATOM      2  N   LIG    1       -1.135  -0.686   0.004  0.00  0.00    -0.590 NA
ATOM      3  C   LIG    1       -1.130  -2.018  -0.004  0.00  0.00    +0.660 A 
ATOM      4  N   LIG    1        0.025  -2.709  -0.013  0.00  0.00    -0.520 N 
ATOM      5  C   LIG    1        1.221  -2.052  -0.015  0.00  0.00    +0.360 A 
ATOM      6  O   LIG    1       -2.190  -2.622  -0.002  0.00  0.00    -0.510 OA
ATOM      7  C   LIG    1        1.232  -0.697  -0.013  0.00  0.00    -0.080 A 
ATOM      8  F   LIG    1        2.401  -0.020  -0.015  0.00  0.00    -0.120 F 
ENDROOT
BRANCH   4   9
ATOM      9  C1* LIG    1       -0.002  -4.174  -0.021  0.00  0.00    +0.400 C 
ATOM     10  C2* LIG    1       -0.654  -4.707   1.274  0.00  0.00    +0.010 C 
ATOM     11  C3* LIG    1       -1.461  -5.940   0.809  0.00  0.00    +0.170 C 
ATOM     12  C4* LIG    1       -1.202  -6.005  -0.712  0.00  0.00    +0.180 C 
ATOM     13  O4* LIG    1       -0.849  -4.655  -1.087  0.00  0.00    -0.340 OA
BRANCH  11  14
ATOM     14  O3* LIG    1       -0.983  -7.123   1.453  0.00  0.00    -0.560 OA
ATOM     15  H3* LIG    1       -1.068  -7.108   2.416  0.00  0.00    +0.390 HD
ENDBRANCH  11  14
BRANCH  12  16
ATOM     16  C5* LIG    1       -2.465  -6.453  -1.449  0.00  0.00    +0.210 C 
BRANCH  16  17
ATOM     17  O5* LIG    1       -2.174  -6.620  -2.838  0.00  0.00    -0.570 OA
ATOM     18  H5* LIG    1       -2.931  -6.904  -3.368  0.00  0.00    +0.380 HD
ENDBRANCH  16  17
ENDBRANCH  12  16
ENDBRANCH   4   9
BRANCH   1  19
ATOM     19  N   LIG    1       -0.017   1.372   0.010  0.00  0.00    -0.800 N 
ATOM     20  H   LIG    1       -0.863   1.846   0.016  0.00  0.00    +0.420 HD
ATOM     21  H   LIG    1        0.817   1.868   0.004  0.00  0.00    +0.420 HD
ENDBRANCH   1  19
TORSDOF 5
ENDMDL
MODEL     1360
REMARK  Name = ZINC000004277086
REMARK                            x       y       z     vdW  Elec       q    Type
REMARK                         _______ _______ _______ _____ _____    ______ ____
ROOT
ATOM      1  C   LIG    1        0.880  -0.358  -1.545  0.00  0.00    -0.410 C 
ATOM      2  C   LIG    1        0.165   0.366  -2.703  0.00  0.00    -0.270 C 
ATOM      3  S   LIG    1        0.385  -0.795  -4.111  0.00  0.00    +2.400 S 
ATOM      4  C   LIG    1        0.253  -2.301  -3.067  0.00  0.00    -0.310 C 
ATOM      5  O   LIG    1        1.704  -0.680  -4.628  0.00  0.00    -0.910 OA
ATOM      6  O   LIG    1       -0.734  -0.713  -4.983  0.00  0.00    -0.920 OA
ATOM      7  C   LIG    1        0.927  -1.867  -1.753  0.00  0.00    +0.220 C 
ENDROOT
BRANCH   1   9
ATOM      8  C   LIG    1       -0.022   1.810   0.012  0.00  0.00    -0.250 C 
ATOM      9  S   LIG    1        0.002  -0.004   0.002  0.00  0.00    +2.430 S 
ATOM     10  O   LIG    1       -1.334  -0.474  -0.117  0.00  0.00    -0.920 OA
ATOM     11  O   LIG    1        0.801  -0.452   1.088  0.00  0.00    -0.920 OA
ENDBRANCH   1   9
BRANCH   7  12
ATOM     12  O   LIG    1        2.294  -2.284  -1.773  0.00  0.00    -0.550 OA
ATOM     13  H   LIG    1        2.412  -3.241  -1.836  0.00  0.00    +0.400 HD
ENDBRANCH   7  12
TORSDOF 2
ENDMDL
MODEL     1361
REMARK  Name = ZINC000075261167
REMARK                            x       y       z     vdW  Elec       q    Type
REMARK                         _______ _______ _______ _____ _____    ______ ____
ROOT
ATOM      1  C   LIG    1       -0.018   1.503   0.010  0.00  0.00    +0.170 C 
ATOM      2  C   LIG    1        0.002  -0.004   0.002  0.00  0.00    +0.150 A 
ATOM      3  N   LIG    1        0.008  -0.762  -1.057  0.00  0.00    -0.300 NA
ATOM      4  N   LIG    1        0.028  -2.104  -0.664  0.00  0.00    -0.390 N 
ATOM      5  C   LIG    1        0.034  -2.156   0.684  0.00  0.00    +0.420 A 
ATOM      6  C   LIG    1        0.024  -0.840   1.144  0.00  0.00    -0.370 A 
ENDROOT
BRANCH   6   7
ATOM      7  C   LIG    1        0.026  -0.405   2.544  0.00  0.00    +0.610 C 
ATOM      8  N   LIG    1       -1.140  -0.216   3.193  0.00  0.00    -0.690 N 
ATOM      9  H   LIG    1       -1.980  -0.367   2.733  0.00  0.00    +0.410 HD
ATOM     10  C   LIG    1       -1.138   0.184   4.480  0.00  0.00    +0.690 C 
ATOM     11  O   LIG    1       -0.085   0.374   5.056  0.00  0.00    -0.530 OA
ATOM     12  N   LIG    1       -2.304   0.373   5.128  0.00  0.00    -0.860 N 
ATOM     13  H   LIG    1       -2.303   0.661   6.055  0.00  0.00    +0.420 HD
ATOM     14  H   LIG    1       -3.145   0.222   4.669  0.00  0.00    +0.400 HD
ATOM     15  O   LIG    1        1.081  -0.215   3.121  0.00  0.00    -0.460 OA
ENDBRANCH   6   7
BRANCH   5  16
ATOM     16  N   LIG    1        0.053  -3.296   1.460  0.00  0.00    -0.840 N 
ATOM     17  H   LIG    1        0.056  -3.224   2.428  0.00  0.00    +0.420 HD
ATOM     18  H   LIG    1        0.064  -4.170   1.039  0.00  0.00    +0.410 HD
ENDBRANCH   5  16
BRANCH   4  19
ATOM     19  C   LIG    1        0.040  -3.260  -1.564  0.00  0.00    +0.350 C 
BRANCH  19  20
ATOM     20  C   LIG    1        1.487  -3.642  -1.883  0.00  0.00    +0.170 C 
BRANCH  20  21
ATOM     21  O   LIG    1        1.499  -4.769  -2.762  0.00  0.00    -0.570 OA
ATOM     22  H   LIG    1        2.386  -5.067  -3.007  0.00  0.00    +0.390 HD
ENDBRANCH  20  21
ENDBRANCH  19  20
ENDBRANCH   4  19
TORSDOF 5
ENDMDL
MODEL     1362
REMARK  Name = ZINC000075260867
REMARK                            x       y       z     vdW  Elec       q    Type
REMARK                         _______ _______ _______ _____ _____    ______ ____
ROOT
ATOM      1  O   LIG    1        0.002  -0.004   0.002  0.00  0.00    -0.530 OA
ATOM      2  C   LIG    1       -0.014   1.209   0.009  0.00  0.00    +0.670 C 
ATOM      3  N   LIG    1        1.143   1.898   0.001  0.00  0.00    -0.660 N 
ATOM      4  C   LIG    1        2.491   1.229  -0.021  0.00  0.00    +0.560 C 
ATOM      5  N   LIG    1        3.463   1.943  -0.779  0.00  0.00    -0.500 N 
ATOM      6  C   LIG    1        4.320   2.939  -0.097  0.00  0.00    +0.350 C 
ATOM      7  C   LIG    1        3.572   4.196   0.064  0.00  0.00    +0.350 C 
ATOM      8  N   LIG    1        2.294   3.921   0.759  0.00  0.00    -0.510 N 
ATOM      9  C   LIG    1        1.197   3.402   0.009  0.00  0.00    +0.570 C 
ENDROOT
BRANCH   8  10
ATOM     10  N   LIG    1        2.166   4.168   2.133  0.00  0.00    +0.210 N 
ATOM     11  O   LIG    1        1.112   3.939   2.697  0.00  0.00    -0.180 OA
ATOM     12  O   LIG    1        3.110   4.612   2.762  0.00  0.00    -0.180 OA
ENDBRANCH   8  10
BRANCH   5  13
ATOM     13  N   LIG    1        3.605   1.706  -2.152  0.00  0.00    +0.210 N 
ATOM     14  O   LIG    1        4.439   2.321  -2.793  0.00  0.00    -0.180 OA
ATOM     15  O   LIG    1        2.896   0.885  -2.706  0.00  0.00    -0.170 OA
ENDBRANCH   5  13
TORSDOF 2
ENDMDL
MODEL     1363
REMARK  Name = ZINC000022046644
REMARK                            x       y       z     vdW  Elec       q    Type
REMARK                         _______ _______ _______ _____ _____    ______ ____
ROOT
ATOM      1  C   LIG    1        0.673  -0.582   1.123  0.00  0.00    +0.170 C 
ATOM      2  C   LIG    1       -0.330  -0.815   2.257  0.00  0.00    +0.140 C 
ATOM      3  C   LIG    1        0.381  -1.506   3.423  0.00  0.00    +0.150 C 
ATOM      4  O   LIG    1        0.956  -2.733   2.969  0.00  0.00    -0.380 OA
ATOM      5  C   LIG    1        1.936  -2.574   1.942  0.00  0.00    +0.320 C 
ATOM      6  C   LIG    1        1.289  -1.925   0.715  0.00  0.00    +0.250 C 
ENDROOT
BRANCH   6   7
ATOM      7  N   LIG    1        2.305  -1.708  -0.317  0.00  0.00    -0.720 N 
ATOM      8  H   LIG    1        2.751  -0.849  -0.386  0.00  0.00    +0.400 HD
ATOM      9  C   LIG    1        2.621  -2.701  -1.171  0.00  0.00    +0.510 C 
ATOM     10  O   LIG    1        2.063  -3.775  -1.085  0.00  0.00    -0.520 OA
ATOM     11  C   LIG    1        3.667  -2.479  -2.233  0.00  0.00    +0.080 C 
ENDBRANCH   6   7
BRANCH   1  13
ATOM     12  C   LIG    1       -0.017   1.425   0.010  0.00  0.00    +0.190 C 
ATOM     13  O   LIG    1        0.002  -0.004   0.002  0.00  0.00    -0.360 OA
ENDBRANCH   1  13
BRANCH   5  14
ATOM     14  O   LIG    1        2.462  -3.853   1.582  0.00  0.00    -0.520 OA
ATOM     15  H   LIG    1        2.888  -4.322   2.312  0.00  0.00    +0.380 HD
ENDBRANCH   5  14
BRANCH   2  16
ATOM     16  O   LIG    1       -1.397  -1.642   1.789  0.00  0.00    -0.530 OA
ATOM     17  H   LIG    1       -2.070  -1.831   2.456  0.00  0.00    +0.380 HD
ENDBRANCH   2  16
BRANCH   3  18
ATOM     18  C   LIG    1       -0.628  -1.796   4.537  0.00  0.00    +0.210 C 
BRANCH  18  19
ATOM     19  O   LIG    1        0.056  -2.334   5.670  0.00  0.00    -0.560 OA
ATOM     20  H   LIG    1       -0.523  -2.542   6.416  0.00  0.00    +0.390 HD
ENDBRANCH  18  19
ENDBRANCH   3  18
TORSDOF 6
ENDMDL
MODEL     1364
REMARK  Name = ZINC000022046640
REMARK                            x       y       z     vdW  Elec       q    Type
REMARK                         _______ _______ _______ _____ _____    ______ ____
ROOT
ATOM      1  C   LIG    1        0.673  -0.582   1.123  0.00  0.00    +0.180 C 
ATOM      2  C   LIG    1        2.156  -0.773   0.790  0.00  0.00    +0.140 C 
ATOM      3  C   LIG    1        2.287  -1.758  -0.374  0.00  0.00    +0.150 C 
ATOM      4  O   LIG    1        1.664  -2.995  -0.022  0.00  0.00    -0.390 OA
ATOM      5  C   LIG    1        0.266  -2.886   0.254  0.00  0.00    +0.320 C 
ATOM      6  C   LIG    1        0.053  -1.945   1.445  0.00  0.00    +0.260 C 
ENDROOT
BRANCH   6   7
ATOM      7  N   LIG    1       -1.383  -1.787   1.693  0.00  0.00    -0.720 N 
ATOM      8  H   LIG    1       -1.861  -1.035   1.310  0.00  0.00    +0.400 HD
ATOM      9  C   LIG    1       -2.038  -2.687   2.453  0.00  0.00    +0.510 C 
ATOM     10  O   LIG    1       -1.440  -3.627   2.931  0.00  0.00    -0.520 OA
ATOM     11  C   LIG    1       -3.515  -2.524   2.707  0.00  0.00    +0.090 C 
ENDBRANCH   6   7
BRANCH   1  13
ATOM     12  C   LIG    1       -0.017   1.425   0.010  0.00  0.00    +0.220 C 
ATOM     13  O   LIG    1        0.002  -0.004   0.002  0.00  0.00    -0.380 OA
ENDBRANCH   1  13
BRANCH   5  14
ATOM     14  O   LIG    1       -0.260  -4.178   0.567  0.00  0.00    -0.520 OA
ATOM     15  H   LIG    1       -0.159  -4.826  -0.143  0.00  0.00    +0.380 HD
ENDBRANCH   5  14
BRANCH   2  16
ATOM     16  O   LIG    1        2.840  -1.289   1.934  0.00  0.00    -0.550 OA
ATOM     17  H   LIG    1        3.786  -1.435   1.794  0.00  0.00    +0.380 HD
ENDBRANCH   2  16
BRANCH   3  18
ATOM     18  C   LIG    1        3.768  -2.000  -0.674  0.00  0.00    +0.200 C 
BRANCH  18  19
ATOM     19  O   LIG    1        3.890  -2.827  -1.833  0.00  0.00    -0.560 OA
ATOM     20  H   LIG    1        4.804  -3.022  -2.082  0.00  0.00    +0.380 HD
ENDBRANCH  18  19
ENDBRANCH   3  18
TORSDOF 6
ENDMDL
MODEL     1365
REMARK  Name = ZINC000075260600
REMARK                            x       y       z     vdW  Elec       q    Type
REMARK                         _______ _______ _______ _____ _____    ______ ____
ROOT
ATOM      1  C   LIG    1       -0.018   1.503   0.010  0.00  0.00    +0.140 C 
ATOM      2  C   LIG    1        0.002  -0.004   0.002  0.00  0.00    -0.350 A 
ATOM      3  C   LIG    1       -1.183  -0.715   0.004  0.00  0.00    +0.310 A 
ATOM      4  C   LIG    1       -1.122  -2.129  -0.005  0.00  0.00    -0.310 A 
ATOM      5  C   LIG    1        0.118  -2.769  -0.015  0.00  0.00    +0.490 A 
ATOM      6  N   LIG    1        0.154  -4.138  -0.023  0.00  0.00    -0.540 N 
ATOM      7  C   LIG    1       -0.979  -4.860  -0.022  0.00  0.00    +0.710 A 
ATOM      8  N   LIG    1       -2.198  -4.294  -0.012  0.00  0.00    -0.560 N 
ATOM      9  C   LIG    1       -3.390  -5.145  -0.011  0.00  0.00    +0.340 C 
ATOM     10  O   LIG    1       -0.899  -6.072  -0.029  0.00  0.00    -0.520 OA
ATOM     11  C   LIG    1        1.447  -4.827  -0.033  0.00  0.00    +0.360 C 
ATOM     12  N   LIG    1        1.261  -2.036  -0.016  0.00  0.00    -0.610 N 
ATOM     13  H   LIG    1        2.119  -2.488  -0.023  0.00  0.00    +0.420 HD
ATOM     14  C   LIG    1       -2.336  -2.950  -0.004  0.00  0.00    +0.580 A 
ATOM     15  O   LIG    1       -3.439  -2.435   0.005  0.00  0.00    -0.470 OA
ATOM     16  C   LIG    1        1.221  -0.691  -0.013  0.00  0.00    +0.560 A 
ATOM     17  O   LIG    1        2.265  -0.060  -0.015  0.00  0.00    -0.520 OA
ENDROOT
BRANCH   3  18
ATOM     18  O   LIG    1       -2.375  -0.074   0.013  0.00  0.00    -0.430 OA
ATOM     19  H   LIG    1       -2.303   0.890   0.018  0.00  0.00    +0.410 HD
ENDBRANCH   3  18
TORSDOF 1
ENDMDL
MODEL     1366
REMARK  Name = ZINC000017721961
REMARK                            x       y       z     vdW  Elec       q    Type
REMARK                         _______ _______ _______ _____ _____    ______ ____
ROOT
ATOM      1  C   LIG    1        0.020  -2.247  -1.298  0.00  0.00    +0.230 C 
ATOM      2  C   LIG    1       -1.400  -2.787  -1.074  0.00  0.00    +0.320 C 
ATOM      3  N   LIG    1       -2.234  -2.370  -2.211  0.00  0.00    -0.740 N 
ATOM      4  H   LIG    1       -3.120  -2.005  -2.063  0.00  0.00    +0.400 HD
ATOM      5  C   LIG    1       -1.739  -2.505  -3.493  0.00  0.00    +0.340 A 
ATOM      6  C   LIG    1       -0.401  -2.681  -3.702  0.00  0.00    -0.040 A 
ATOM      7  C   LIG    1        0.076  -2.811  -5.022  0.00  0.00    +0.540 A 
ATOM      8  N   LIG    1       -0.794  -2.763  -6.044  0.00  0.00    -0.630 NA
ATOM      9  C   LIG    1       -2.082  -2.596  -5.832  0.00  0.00    +0.660 A 
ATOM     10  O   LIG    1        1.270  -2.967  -5.234  0.00  0.00    -0.530 OA
ATOM     11  N   LIG    1       -2.582  -2.465  -4.574  0.00  0.00    -0.640 N 
ATOM     12  H   LIG    1       -3.535  -2.343  -4.441  0.00  0.00    +0.410 HD
ATOM     13  N   LIG    1        0.488  -2.732  -2.606  0.00  0.00    -0.710 N 
ATOM     14  H   LIG    1        1.388  -3.078  -2.714  0.00  0.00    +0.420 HD
ENDROOT
BRANCH   9  15
ATOM     15  N   LIG    1       -2.938  -2.553  -6.903  0.00  0.00    -0.820 N 
ATOM     16  H   LIG    1       -3.889  -2.430  -6.758  0.00  0.00    +0.410 HD
ATOM     17  H   LIG    1       -2.592  -2.645  -7.804  0.00  0.00    +0.430 HD
ENDBRANCH   9  15
BRANCH   1  18
ATOM     18  C   LIG    1       -0.000  -0.740  -1.289  0.00  0.00    +0.300 C 
ATOM     19  O   LIG    1       -0.018  -0.131  -2.332  0.00  0.00    -0.380 OA
BRANCH  18  21
ATOM     20  C   LIG    1       -0.018   1.503   0.010  0.00  0.00    +0.100 C 
ATOM     21  C   LIG    1        0.002  -0.004   0.002  0.00  0.00    +0.320 C 
ATOM     22  O   LIG    1        0.020  -0.614   1.045  0.00  0.00    -0.410 OA
ENDBRANCH  18  21
ENDBRANCH   1  18
TORSDOF 3
ENDMDL
MODEL     1367
REMARK  Name = ZINC000003843455
REMARK                            x       y       z     vdW  Elec       q    Type
REMARK                         _______ _______ _______ _____ _____    ______ ____
ROOT
ATOM      1  C   LIG    1       -1.190  -0.521  -0.119  0.00  0.00    -0.020 C 
ATOM      2  C   LIG    1       -1.302  -2.072  -0.228  0.00  0.00    +0.210 C 
ATOM      3  O   LIG    1       -1.136  -2.469   1.173  0.00  0.00    -0.360 OA
ATOM      4  C   LIG    1       -2.185  -1.651   1.788  0.00  0.00    +0.210 C 
ATOM      5  C   LIG    1       -3.428  -2.070   0.947  0.00  0.00    -0.010 C 
ATOM      6  C   LIG    1       -2.817  -2.361  -0.448  0.00  0.00    -0.010 C 
ATOM      7  C   LIG    1       -1.802  -0.226   1.274  0.00  0.00    +0.000 C 
ENDROOT
BRANCH   1   8
ATOM      8  C   LIG    1        0.273  -0.079  -0.173  0.00  0.00    +0.180 C 
BRANCH   8   9
ATOM      9  O   LIG    1        0.341   1.348  -0.130  0.00  0.00    -0.560 OA
ATOM     10  H   LIG    1        1.241   1.700  -0.160  0.00  0.00    +0.380 HD
ENDBRANCH   8   9
ENDBRANCH   1   8
BRANCH   5  11
ATOM     11  C   LIG    1       -4.080  -3.325   1.531  0.00  0.00    +0.180 C 
BRANCH  11  12
ATOM     12  O   LIG    1       -5.280  -3.617   0.812  0.00  0.00    -0.560 OA
ATOM     13  H   LIG    1       -5.747  -4.402   1.129  0.00  0.00    +0.380 HD
ENDBRANCH  11  12
ENDBRANCH   5  11
BRANCH   6  14
ATOM     14  C   LIG    1       -3.405  -1.422  -1.503  0.00  0.00    +0.180 C 
BRANCH  14  15
ATOM     15  O   LIG    1       -4.793  -1.711  -1.678  0.00  0.00    -0.560 OA
ATOM     16  H   LIG    1       -5.232  -1.152  -2.334  0.00  0.00    +0.380 HD
ENDBRANCH  14  15
ENDBRANCH   6  14
BRANCH   7  17
ATOM     17  C   LIG    1       -3.045   0.659   1.153  0.00  0.00    +0.190 C 
BRANCH  17  18
ATOM     18  O   LIG    1       -2.651   1.990   0.816  0.00  0.00    -0.560 OA
ATOM     19  H   LIG    1       -3.390   2.607   0.723  0.00  0.00    +0.380 HD
ENDBRANCH  17  18
ENDBRANCH   7  17
TORSDOF 8
ENDMDL
MODEL     1368
REMARK  Name = ZINC000004761956
REMARK                            x       y       z     vdW  Elec       q    Type
REMARK                         _______ _______ _______ _____ _____    ______ ____
ROOT
ATOM      1  C   UNK A  1       -1.416  -2.035  -0.119  0.00  0.00    +0.490 C 
ATOM      2  N   THR A  2       -1.251  -2.603  -1.330  0.00  0.00    -0.660 N 
ATOM      3  H   THR A  2       -1.144  -2.046  -2.117  0.00  0.00    +0.410 HD
ATOM      4  O   UNK A  1       -1.550  -2.732   0.864  0.00  0.00    -0.540 OA
ENDROOT
BRANCH   1   5
ATOM      5  C   UNK A  1       -1.433  -0.534   0.013  0.00  0.00    +0.170 C 
BRANCH   5   6
ATOM      6  N   UNK A  1       -2.083  -0.161   1.276  0.00  0.00    -0.620 N 
ATOM      7  H   UNK A  1       -1.571  -0.560   2.049  0.00  0.00    +0.440 HD
ATOM      8  H   UNK A  1       -3.030  -0.510   1.284  0.00  0.00    +0.440 HD
ATOM      9  H   UNK A  1       -2.095   0.844   1.365  0.00  0.00    +0.430 HD
ENDBRANCH   5   6
BRANCH   5  11
ATOM     10  C   UNK A  1       -0.019   1.526   0.010  0.00  0.00    +0.030 C 
ATOM     11  C   UNK A  1        0.002  -0.004   0.002  0.00  0.00    +0.070 C 
ENDBRANCH   5  11
ENDBRANCH   1   5
BRANCH   2  12
ATOM     12  CA  THR A  2       -1.234  -4.062  -1.459  0.00  0.00    +0.130 C 
BRANCH  12  13
ATOM     13  C   THR A  2       -2.648  -4.573  -1.571  0.00  0.00    +0.490 C 
ATOM     14  OXT THR A  2       -2.871  -5.770  -1.504  0.00  0.00    -0.670 OA
ATOM     15  O   THR A  2       -3.568  -3.789  -1.730  0.00  0.00    -0.680 OA
ENDBRANCH  12  13
BRANCH  12  16
ATOM     16  CB  THR A  2       -0.449  -4.455  -2.711  0.00  0.00    +0.200 C 
ATOM     17  CG2 THR A  2       -0.324  -5.978  -2.779  0.00  0.00    +0.020 C 
BRANCH  16  18
ATOM     18  OG1 THR A  2       -1.135  -3.981  -3.872  0.00  0.00    -0.570 OA
ATOM     19  HG1 THR A  2       -2.029  -4.336  -3.973  0.00  0.00    +0.390 HD
ENDBRANCH  16  18
ENDBRANCH  12  16
ENDBRANCH   2  12
TORSDOF 7
ENDMDL
MODEL     1369
REMARK  Name = ZINC000004761950
REMARK                            x       y       z     vdW  Elec       q    Type
REMARK                         _______ _______ _______ _____ _____    ______ ____
ROOT
ATOM      1  C   UNK A  1       -1.416  -2.035  -0.119  0.00  0.00    +0.490 C 
ATOM      2  N   THR A  2       -1.251  -2.603  -1.330  0.00  0.00    -0.660 N 
ATOM      3  H   THR A  2       -1.144  -2.046  -2.117  0.00  0.00    +0.400 HD
ATOM      4  O   UNK A  1       -1.550  -2.732   0.864  0.00  0.00    -0.530 OA
ENDROOT
BRANCH   1   5
ATOM      5  C   UNK A  1       -1.433  -0.534   0.013  0.00  0.00    +0.170 C 
BRANCH   5   6
ATOM      6  N   UNK A  1       -2.083  -0.161   1.276  0.00  0.00    -0.620 N 
ATOM      7  H   UNK A  1       -1.571  -0.560   2.049  0.00  0.00    +0.440 HD
ATOM      8  H   UNK A  1       -3.030  -0.510   1.284  0.00  0.00    +0.440 HD
ATOM      9  H   UNK A  1       -2.095   0.844   1.365  0.00  0.00    +0.430 HD
ENDBRANCH   5   6
BRANCH   5  11
ATOM     10  C   UNK A  1       -0.019   1.526   0.010  0.00  0.00    +0.040 C 
ATOM     11  C   UNK A  1        0.002  -0.004   0.002  0.00  0.00    +0.070 C 
ENDBRANCH   5  11
ENDBRANCH   1   5
BRANCH   2  12
ATOM     12  CA  THR A  2       -1.234  -4.062  -1.459  0.00  0.00    +0.140 C 
BRANCH  12  13
ATOM     13  C   THR A  2        0.157  -4.574  -1.190  0.00  0.00    +0.500 C 
ATOM     14  OXT THR A  2        1.124  -3.878  -1.451  0.00  0.00    -0.680 OA
ATOM     15  O   THR A  2        0.317  -5.684  -0.710  0.00  0.00    -0.680 OA
ENDBRANCH  12  13
BRANCH  12  16
ATOM     16  CB  THR A  2       -1.657  -4.454  -2.876  0.00  0.00    +0.230 C 
ATOM     17  CG2 THR A  2       -3.017  -3.830  -3.194  0.00  0.00    +0.010 C 
BRANCH  16  18
ATOM     18  OG1 THR A  2       -0.685  -3.981  -3.811  0.00  0.00    -0.540 OA
ATOM     19  HG1 THR A  2       -0.567  -3.022  -3.803  0.00  0.00    +0.360 HD
ENDBRANCH  16  18
ENDBRANCH  12  16
ENDBRANCH   2  12
TORSDOF 7
ENDMDL
MODEL     1370
REMARK  Name = ZINC000001732765
REMARK                            x       y       z     vdW  Elec       q    Type
REMARK                         _______ _______ _______ _____ _____    ______ ____
ROOT
ATOM      1  C   LIG    1       -0.997   1.974   1.431  0.00  0.00    -0.310 C 
ENDROOT
BRANCH   1   3
ATOM      2  O   LIG    1        0.002  -0.004   0.002  0.00  0.00    -0.920 OA
ATOM      3  S   LIG    1       -0.017   1.417   0.010  0.00  0.00    +2.440 S 
ATOM      4  O   LIG    1        1.213   2.127   0.002  0.00  0.00    -0.920 OA
BRANCH   3   5
ATOM      5  C   LIG    1       -1.024   1.989  -1.387  0.00  0.00    -0.340 C 
BRANCH   5   6
ATOM      6  C   LIG    1       -0.342   1.601  -2.700  0.00  0.00    +0.230 C 
BRANCH   6   7
ATOM      7  O   LIG    1       -1.135   2.052  -3.800  0.00  0.00    -0.560 OA
ATOM      8  H   LIG    1       -0.762   1.840  -4.667  0.00  0.00    +0.390 HD
ENDBRANCH   6   7
ENDBRANCH   5   6
ENDBRANCH   3   5
ENDBRANCH   1   3
BRANCH   1   9
ATOM      9  C   LIG    1       -0.290   1.572   2.727  0.00  0.00    -0.310 C 
BRANCH   9  10
ATOM     10  S   LIG    1       -1.270   2.129   4.149  0.00  0.00    +2.440 S 
ATOM     11  O   LIG    1       -2.500   1.418   4.156  0.00  0.00    -0.920 OA
ATOM     12  O   LIG    1       -1.289   3.550   4.156  0.00  0.00    -0.920 OA
BRANCH  10  13
ATOM     13  C   LIG    1       -0.263   1.557   5.545  0.00  0.00    -0.340 C 
BRANCH  13  14
ATOM     14  C   LIG    1       -0.945   1.944   6.858  0.00  0.00    +0.230 C 
BRANCH  14  15
ATOM     15  O   LIG    1       -0.152   1.494   7.958  0.00  0.00    -0.560 OA
ATOM     16  H   LIG    1       -0.525   1.706   8.825  0.00  0.00    +0.390 HD
ENDBRANCH  14  15
ENDBRANCH  13  14
ENDBRANCH  10  13
ENDBRANCH   9  10
ENDBRANCH   1   9
TORSDOF 9
ENDMDL
MODEL     1371
REMARK  Name = ZINC000033327139
REMARK                            x       y       z     vdW  Elec       q    Type
REMARK                         _______ _______ _______ _____ _____    ______ ____
ROOT
ATOM      1  C   LIG    1       -0.018   1.503   0.010  0.00  0.00    +0.190 C 
ATOM      2  C   LIG    1        0.002  -0.004   0.002  0.00  0.00    +0.350 A 
ATOM      3  C   LIG    1       -1.156  -0.698   0.004  0.00  0.00    -0.870 A 
ATOM      4  C   LIG    1       -1.111  -2.113  -0.005  0.00  0.00    +0.590 A 
ATOM      5  N   LIG    1        0.084  -2.737  -0.014  0.00  0.00    -0.650 N 
ATOM      6  H   LIG    1        0.123  -3.706  -0.020  0.00  0.00    +0.440 HD
ATOM      7  C   LIG    1        1.224  -2.020  -0.016  0.00  0.00    +0.700 A 
ATOM      8  O   LIG    1        2.294  -2.597  -0.024  0.00  0.00    -0.520 OA
ATOM      9  O   LIG    1       -2.142  -2.761  -0.004  0.00  0.00    -0.490 OA
ATOM     10  N   LIG    1        1.194  -0.675  -0.013  0.00  0.00    -0.630 N 
ATOM     11  H   LIG    1        2.026  -0.177  -0.014  0.00  0.00    +0.440 HD
ENDROOT
BRANCH   3  12
ATOM     12  S   LIG    1       -2.703   0.146   0.016  0.00  0.00    +2.730 S 
ATOM     13  O   LIG    1       -2.403   1.532   0.106  0.00  0.00    -0.960 OA
ATOM     14  O   LIG    1       -3.524  -0.534   0.955  0.00  0.00    -0.930 OA
BRANCH  12  15
ATOM     15  N   LIG    1       -3.399  -0.086  -1.469  0.00  0.00    -1.110 NA
ATOM     16  H   LIG    1       -3.542   0.669  -2.061  0.00  0.00    +0.420 HD
BRANCH  15  17
ATOM     17  C   LIG    1       -3.800  -1.431  -1.888  0.00  0.00    +0.290 C 
BRANCH  17  18
ATOM     18  C   LIG    1       -4.734  -1.333  -3.096  0.00  0.00    +0.190 C 
BRANCH  18  19
ATOM     19  O   LIG    1       -4.019  -0.788  -4.207  0.00  0.00    -0.570 OA
ATOM     20  H   LIG    1       -4.550  -0.697  -5.010  0.00  0.00    +0.380 HD
ENDBRANCH  18  19
ENDBRANCH  17  18
ENDBRANCH  15  17
ENDBRANCH  12  15
ENDBRANCH   3  12
TORSDOF 5
ENDMDL
MODEL     1372
REMARK  Name = ZINC000018089317
REMARK                            x       y       z     vdW  Elec       q    Type
REMARK                         _______ _______ _______ _____ _____    ______ ____
ROOT
ATOM      1  C   LIG    1       -2.395   1.050   0.019  0.00  0.00    +0.170 C 
ATOM      2  C   LIG    1       -2.798   0.695  -1.421  0.00  0.00    +0.230 C 
ATOM      3  O   LIG    1       -4.104   1.224  -1.657  0.00  0.00    -0.350 OA
ATOM      4  C   LIG    1       -4.755   1.466  -0.401  0.00  0.00    +0.200 C 
ATOM      5  C   LIG    1       -5.545   2.792  -0.512  0.00  0.00    +0.170 C 
ATOM      6  C   LIG    1       -4.774   3.770   0.401  0.00  0.00    +0.250 C 
ATOM      7  O   LIG    1       -3.436   3.229   0.477  0.00  0.00    -0.330 OA
ATOM      8  C   LIG    1       -3.613   1.786   0.605  0.00  0.00    +0.190 C 
ENDROOT
BRANCH   1   9
ATOM      9  O   LIG    1       -1.250   1.905   0.018  0.00  0.00    -0.190 OA
BRANCH   9  11
ATOM     10  O   LIG    1        0.002  -0.004   0.002  0.00  0.00    -0.130 OA
ATOM     11  N   LIG    1       -0.014   1.214   0.009  0.00  0.00    +0.120 N 
ATOM     12  O   LIG    1        1.032   1.837   0.002  0.00  0.00    -0.060 OA
ENDBRANCH   9  11
ENDBRANCH   1   9
BRANCH   5  13
ATOM     13  O   LIG    1       -6.884   2.617  -0.045  0.00  0.00    -0.210 OA
BRANCH  13  14
ATOM     14  N   LIG    1       -7.810   3.536  -0.594  0.00  0.00    +0.120 N 
ATOM     15  O   LIG    1       -8.983   3.485  -0.271  0.00  0.00    -0.060 OA
ATOM     16  O   LIG    1       -7.434   4.377  -1.391  0.00  0.00    -0.120 OA
ENDBRANCH  13  14
ENDBRANCH   5  13
TORSDOF 4
ENDMDL
MODEL     1373
REMARK  Name = ZINC000018084626
REMARK                            x       y       z     vdW  Elec       q    Type
REMARK                         _______ _______ _______ _____ _____    ______ ____
ROOT
ATOM      1  C   LIG    1       -2.395   1.050   0.019  0.00  0.00    +0.170 C 
ATOM      2  C   LIG    1       -2.834   0.709  -1.437  0.00  0.00    +0.260 C 
ATOM      3  O   LIG    1       -4.225   1.135  -1.562  0.00  0.00    -0.330 OA
ATOM      4  C   LIG    1       -4.731   1.024  -0.258  0.00  0.00    +0.170 C 
ATOM      5  C   LIG    1       -5.934   1.761   0.285  0.00  0.00    +0.180 C 
ATOM      6  C   LIG    1       -5.489   2.090   1.743  0.00  0.00    +0.260 C 
ATOM      7  O   LIG    1       -4.103   1.645   1.864  0.00  0.00    -0.330 OA
ATOM      8  C   LIG    1       -3.606   1.772   0.563  0.00  0.00    +0.130 C 
ENDROOT
BRANCH   1   9
ATOM      9  O   LIG    1       -1.250   1.905   0.018  0.00  0.00    -0.210 OA
BRANCH   9  11
ATOM     10  O   LIG    1        0.002  -0.004   0.002  0.00  0.00    -0.120 OA
ATOM     11  N   LIG    1       -0.014   1.214   0.009  0.00  0.00    +0.120 N 
ATOM     12  O   LIG    1        1.032   1.837   0.002  0.00  0.00    -0.060 OA
ENDBRANCH   9  11
ENDBRANCH   1   9
BRANCH   5  13
ATOM     13  O   LIG    1       -6.176   2.956  -0.459  0.00  0.00    -0.200 OA
BRANCH  13  14
ATOM     14  N   LIG    1       -7.521   3.398  -0.417  0.00  0.00    +0.120 N 
ATOM     15  O   LIG    1       -7.850   4.407  -1.014  0.00  0.00    -0.060 OA
ATOM     16  O   LIG    1       -8.349   2.768   0.217  0.00  0.00    -0.120 OA
ENDBRANCH  13  14
ENDBRANCH   5  13
TORSDOF 4
ENDMDL
MODEL     1374
REMARK  Name = ZINC000018144563
REMARK                            x       y       z     vdW  Elec       q    Type
REMARK                         _______ _______ _______ _____ _____    ______ ____
ROOT
ATOM      1  N   LIG    1       -1.372  -0.511   0.012  0.00  0.00    -0.570 N 
ATOM      2  C   LIG    1       -2.065  -0.771   1.141  0.00  0.00    +0.620 C 
ATOM      3  C   LIG    1       -3.463  -0.978   0.782  0.00  0.00    -0.290 C 
ATOM      4  C   LIG    1       -4.788  -0.955   0.985  0.00  0.00    +0.270 C 
ATOM      5  N   LIG    1       -5.462  -0.978  -0.218  0.00  0.00    -0.560 N 
ATOM      6  H   LIG    1       -6.427  -0.996  -0.315  0.00  0.00    +0.450 HD
ATOM      7  N   LIG    1       -4.564  -0.973  -1.264  0.00  0.00    -0.390 NA
ATOM      8  H   LIG    1       -4.881  -1.565  -2.016  0.00  0.00    +0.360 HD
ATOM      9  C   LIG    1       -3.328  -1.500  -0.662  0.00  0.00    +0.150 C 
ATOM     10  O   LIG    1       -1.603  -0.822   2.266  0.00  0.00    -0.460 OA
ATOM     11  C   LIG    1       -2.086  -0.764  -1.108  0.00  0.00    +0.560 C 
ATOM     12  O   LIG    1       -1.788  -0.465  -2.244  0.00  0.00    -0.460 OA
ENDROOT
BRANCH   1  14
ATOM     13  C   LIG    1       -0.019   1.526   0.010  0.00  0.00    +0.030 C 
ATOM     14  C   LIG    1        0.002  -0.004   0.002  0.00  0.00    +0.300 C 
ENDBRANCH   1  14
BRANCH   4  15
ATOM     15  C   LIG    1       -5.438  -0.912   2.317  0.00  0.00    +0.510 C 
ATOM     16  O   LIG    1       -4.759  -0.894   3.323  0.00  0.00    -0.450 OA
BRANCH  15  17
ATOM     17  O   LIG    1       -6.782  -0.892   2.410  0.00  0.00    -0.350 OA
ATOM     18  C   LIG    1       -7.349  -0.850   3.746  0.00  0.00    +0.290 C 
ENDBRANCH  15  17
ENDBRANCH   4  15
TORSDOF 3
ENDMDL
MODEL     1375
REMARK  Name = ZINC000003205100
REMARK                            x       y       z     vdW  Elec       q    Type
REMARK                         _______ _______ _______ _____ _____    ______ ____
ROOT
ATOM      1  N   LIG    1       -0.706  -1.340   1.802  0.00  0.00    -0.650 N 
ATOM      2  C   LIG    1       -0.700  -2.572   1.254  0.00  0.00    +0.640 C 
ATOM      3  O   LIG    1       -1.737  -3.190   1.142  0.00  0.00    -0.490 OA
ENDROOT
BRANCH   1   4
ATOM      4  C   LIG    1        0.546  -0.593   1.938  0.00  0.00    +0.590 C 
BRANCH   4   6
ATOM      5  C   LIG    1        0.424   1.824   1.174  0.00  0.00    +0.350 C 
ATOM      6  N   LIG    1        0.637   0.406   0.871  0.00  0.00    -0.520 N 
BRANCH   6   7
ATOM      7  N   LIG    1        0.927   0.007  -0.441  0.00  0.00    +0.220 N 
ATOM      8  O   LIG    1        1.104  -1.171  -0.693  0.00  0.00    -0.200 OA
ATOM      9  O   LIG    1        1.002   0.838  -1.328  0.00  0.00    -0.190 OA
ENDBRANCH   6   7
ENDBRANCH   4   6
ENDBRANCH   1   4
BRANCH   1  10
ATOM     10  C   LIG    1       -1.965  -0.749   2.262  0.00  0.00    +0.570 C 
BRANCH  10  11
ATOM     11  N   LIG    1       -2.104  -0.959   3.705  0.00  0.00    -0.520 N 
ATOM     12  C   LIG    1       -1.907   0.160   4.630  0.00  0.00    +0.350 C 
BRANCH  11  13
ATOM     13  N   LIG    1       -2.427  -2.229   4.201  0.00  0.00    +0.210 N 
ATOM     14  O   LIG    1       -2.441  -2.428   5.403  0.00  0.00    -0.210 OA
ATOM     15  O   LIG    1       -2.693  -3.134   3.431  0.00  0.00    -0.160 OA
ENDBRANCH  11  13
ENDBRANCH  10  11
ENDBRANCH   1  10
TORSDOF 6
ENDMDL
MODEL     1376
REMARK  Name = ZINC000018163127
REMARK                            x       y       z     vdW  Elec       q    Type
REMARK                         _______ _______ _______ _____ _____    ______ ____
ROOT
ATOM      1  C   LIG    1       -0.018   1.461   0.010  0.00  0.00    +0.350 C 
ATOM      2  N   LIG    1        0.002  -0.004   0.002  0.00  0.00    -0.560 N 
ATOM      3  C   LIG    1        0.005  -0.666  -1.177  0.00  0.00    +0.570 A 
ATOM      4  C   LIG    1        0.026  -2.128  -1.146  0.00  0.00    -0.360 A 
ATOM      5  C   LIG    1        0.041  -2.775   0.089  0.00  0.00    +0.470 A 
ATOM      6  N   LIG    1        0.036  -2.017   1.230  0.00  0.00    -0.540 N 
ATOM      7  C   LIG    1        0.052  -2.678   2.537  0.00  0.00    +0.350 C 
ATOM      8  N   LIG    1        0.060  -4.131   0.140  0.00  0.00    -0.610 N 
ATOM      9  H   LIG    1        0.070  -4.572   1.004  0.00  0.00    +0.420 HD
ATOM     10  C   LIG    1        0.064  -4.890  -0.994  0.00  0.00    +0.450 A 
ATOM     11  C   LIG    1        0.051  -4.333  -2.237  0.00  0.00    -0.200 A 
ATOM     12  C   LIG    1        0.031  -2.930  -2.372  0.00  0.00    +0.450 A 
ATOM     13  O   LIG    1        0.018  -2.401  -3.473  0.00  0.00    -0.480 OA
ATOM     14  O   LIG    1       -0.008  -0.062  -2.234  0.00  0.00    -0.460 OA
ATOM     15  C   LIG    1        0.022  -0.674   1.166  0.00  0.00    +0.710 A 
ATOM     16  O   LIG    1        0.019  -0.041   2.204  0.00  0.00    -0.530 OA
ENDROOT
BRANCH  10  17
ATOM     17  N   LIG    1        0.083  -6.260  -0.879  0.00  0.00    -0.850 N 
ATOM     18  H   LIG    1        0.087  -6.814  -1.675  0.00  0.00    +0.430 HD
ATOM     19  H   LIG    1        0.093  -6.673  -0.001  0.00  0.00    +0.400 HD
ENDBRANCH  10  17
TORSDOF 1
ENDMDL
MODEL     1377
REMARK  Name = ZINC000075273480
REMARK                            x       y       z     vdW  Elec       q    Type
REMARK                         _______ _______ _______ _____ _____    ______ ____
ROOT
ATOM      1  C   LIG    1       -0.000  -0.728  -1.268  0.00  0.00    -0.350 A 
ATOM      2  C   LIG    1        0.013  -2.114  -1.300  0.00  0.00    +0.450 A 
ATOM      3  N   LIG    1        0.010  -2.750  -2.498  0.00  0.00    -0.510 N 
ATOM      4  C   LIG    1       -0.004  -2.069  -3.654  0.00  0.00    +0.700 A 
ATOM      5  N   LIG    1       -0.018  -0.726  -3.695  0.00  0.00    -0.650 N 
ATOM      6  H   LIG    1       -0.028  -0.271  -4.551  0.00  0.00    +0.440 HD
ATOM      7  O   LIG    1       -0.006  -2.689  -4.700  0.00  0.00    -0.530 OA
ATOM      8  C   LIG    1       -0.022  -0.007  -2.553  0.00  0.00    +0.570 A 
ATOM      9  O   LIG    1       -0.034   1.209  -2.584  0.00  0.00    -0.490 OA
ENDROOT
BRANCH   1  11
ATOM     10  C   LIG    1       -0.018   1.503   0.010  0.00  0.00    +0.090 C 
ATOM     11  C   LIG    1        0.002  -0.004   0.002  0.00  0.00    +0.430 C 
ATOM     12  O   LIG    1        0.020  -0.617   1.050  0.00  0.00    -0.470 OA
ENDBRANCH   1  11
BRANCH   3  13
ATOM     13  C   LIG    1        0.023  -4.215  -2.530  0.00  0.00    +0.300 C 
BRANCH  13  14
ATOM     14  C   LIG    1       -1.415  -4.737  -2.531  0.00  0.00    +0.210 C 
BRANCH  14  15
ATOM     15  O   LIG    1       -2.084  -4.293  -1.350  0.00  0.00    -0.540 OA
ATOM     16  H   LIG    1       -1.672  -4.593  -0.528  0.00  0.00    +0.380 HD
ENDBRANCH  14  15
BRANCH  14  17
ATOM     17  C   LIG    1       -1.401  -6.267  -2.565  0.00  0.00    +0.170 C 
BRANCH  17  18
ATOM     18  O   LIG    1       -2.740  -6.753  -2.683  0.00  0.00    -0.560 OA
ATOM     19  H   LIG    1       -2.807  -7.717  -2.711  0.00  0.00    +0.390 HD
ENDBRANCH  17  18
ENDBRANCH  14  17
ENDBRANCH  13  14
ENDBRANCH   3  13
TORSDOF 6
ENDMDL
MODEL     1378
REMARK  Name = ZINC000001738718
REMARK                            x       y       z     vdW  Elec       q    Type
REMARK                         _______ _______ _______ _____ _____    ______ ____
ROOT
ATOM      1  N   LIG    1        0.033  -4.104  -2.630  0.00  0.00    -0.710 N 
ATOM      2  H   LIG    1        0.048  -4.593  -1.793  0.00  0.00    +0.410 HD
ATOM      3  C   LIG    1        0.031  -4.771  -3.801  0.00  0.00    +0.620 C 
ATOM      4  O   LIG    1        0.013  -4.158  -4.850  0.00  0.00    -0.520 OA
ENDROOT
BRANCH   3   5
ATOM      5  C   LIG    1        0.051  -6.252  -3.809  0.00  0.00    -0.090 A 
ATOM      6  N   LIG    1        0.066  -7.081  -2.788  0.00  0.00    -0.300 NA
ATOM      7  O   LIG    1        0.079  -8.219  -3.195  0.00  0.00    +0.350 OA
ATOM      8  N   LIG    1        0.076  -8.354  -4.396  0.00  0.00    -0.410 NA
ATOM      9  C   LIG    1        0.053  -7.172  -4.969  0.00  0.00    +0.330 A 
BRANCH   9  10
ATOM     10  N   LIG    1        0.041  -6.864  -6.322  0.00  0.00    -0.800 N 
ATOM     11  H   LIG    1        0.023  -5.937  -6.608  0.00  0.00    +0.430 HD
ATOM     12  H   LIG    1        0.051  -7.575  -6.982  0.00  0.00    +0.420 HD
ENDBRANCH   9  10
ENDBRANCH   3   5
BRANCH   1  13
ATOM     13  C   LIG    1        0.013  -2.639  -2.622  0.00  0.00    +0.270 C 
BRANCH  13  14
ATOM     14  C   LIG    1        0.020  -2.136  -1.177  0.00  0.00    +0.270 C 
BRANCH  14  17
ATOM     15  C   LIG    1       -0.018   1.503   0.010  0.00  0.00    +0.110 C 
ATOM     16  C   LIG    1        0.002  -0.004   0.002  0.00  0.00    +0.510 C 
ATOM     17  N   LIG    1        0.000  -0.672  -1.169  0.00  0.00    -0.730 N 
ATOM     18  H   LIG    1       -0.015  -0.182  -2.006  0.00  0.00    +0.410 HD
ATOM     19  O   LIG    1        0.020  -0.616   1.049  0.00  0.00    -0.540 OA
ENDBRANCH  14  17
ENDBRANCH  13  14
ENDBRANCH   1  13
TORSDOF 5
ENDMDL
MODEL     1379
REMARK  Name = ZINC000075273338
REMARK                            x       y       z     vdW  Elec       q    Type
REMARK                         _______ _______ _______ _____ _____    ______ ____
ROOT
ATOM      1  C   LIG    1        0.605  -2.132  -1.026  0.00  0.00    +0.080 A 
ATOM      2  C   LIG    1        1.173  -2.945  -2.004  0.00  0.00    -0.080 A 
ATOM      3  C   LIG    1        1.857  -2.717  -3.208  0.00  0.00    +0.520 A 
ATOM      4  N   LIG    1        2.273  -3.740  -3.918  0.00  0.00    -0.510 NA
ATOM      5  C   LIG    1        2.062  -5.004  -3.524  0.00  0.00    +0.300 A 
ATOM      6  N   LIG    1        1.429  -5.288  -2.409  0.00  0.00    -0.280 NA
ATOM      7  N   LIG    1        0.955  -4.250  -1.598  0.00  0.00    -0.310 N 
ATOM      8  C   LIG    1        0.282  -4.197  -0.419  0.00  0.00    +0.540 A 
ATOM      9  N   LIG    1        0.082  -2.945  -0.085  0.00  0.00    -0.480 NA
ENDROOT
BRANCH   1  13
ATOM     10  C   LIG    1       -0.018   1.461   0.010  0.00  0.00    +0.310 C 
ATOM     11  N   LIG    1        0.002  -0.004   0.002  0.00  0.00    -0.710 N 
ATOM     12  H   LIG    1       -0.404  -0.499   0.731  0.00  0.00    +0.410 HD
ATOM     13  C   LIG    1        0.585  -0.664  -1.018  0.00  0.00    +0.600 C 
ATOM     14  O   LIG    1        1.095  -0.044  -1.932  0.00  0.00    -0.530 OA
ENDBRANCH   1  13
BRANCH   5  15
ATOM     15  C   LIG    1        2.558  -6.113  -4.372  0.00  0.00    +0.590 C 
ATOM     16  N   LIG    1        2.357  -7.391  -3.995  0.00  0.00    -0.710 N 
ATOM     17  H   LIG    1        1.887  -7.585  -3.169  0.00  0.00    +0.410 HD
ATOM     18  C   LIG    1        2.848  -8.488  -4.833  0.00  0.00    +0.320 C 
ATOM     19  O   LIG    1        3.147  -5.870  -5.407  0.00  0.00    -0.480 OA
ENDBRANCH   5  15
BRANCH   8  20
ATOM     20  N   LIG    1       -0.126  -5.296   0.318  0.00  0.00    -0.820 N 
ATOM     21  H   LIG    1       -0.604  -5.170   1.153  0.00  0.00    +0.430 HD
ATOM     22  H   LIG    1        0.066  -6.192   0.000  0.00  0.00    +0.420 HD
ENDBRANCH   8  20
TORSDOF 3
ENDMDL
MODEL     1380
REMARK  Name = ZINC000075273483
REMARK                            x       y       z     vdW  Elec       q    Type
REMARK                         _______ _______ _______ _____ _____    ______ ____
ROOT
ATOM      1  C   LIG    1       -0.000  -0.728  -1.268  0.00  0.00    -0.350 A 
ATOM      2  C   LIG    1        0.013  -2.114  -1.300  0.00  0.00    +0.440 A 
ATOM      3  N   LIG    1        0.010  -2.750  -2.498  0.00  0.00    -0.520 N 
ATOM      4  C   LIG    1       -0.004  -2.069  -3.654  0.00  0.00    +0.700 A 
ATOM      5  N   LIG    1       -0.018  -0.726  -3.695  0.00  0.00    -0.650 N 
ATOM      6  H   LIG    1       -0.028  -0.271  -4.551  0.00  0.00    +0.440 HD
ATOM      7  O   LIG    1       -0.006  -2.689  -4.700  0.00  0.00    -0.520 OA
ATOM      8  C   LIG    1       -0.022  -0.007  -2.553  0.00  0.00    +0.570 A 
ATOM      9  O   LIG    1       -0.034   1.209  -2.584  0.00  0.00    -0.490 OA
ENDROOT
BRANCH   1  11
ATOM     10  C   LIG    1       -0.018   1.503   0.010  0.00  0.00    +0.090 C 
ATOM     11  C   LIG    1        0.002  -0.004   0.002  0.00  0.00    +0.430 C 
ATOM     12  O   LIG    1        0.020  -0.617   1.050  0.00  0.00    -0.470 OA
ENDBRANCH   1  11
BRANCH   3  13
ATOM     13  C   LIG    1        0.023  -4.215  -2.530  0.00  0.00    +0.310 C 
BRANCH  13  14
ATOM     14  C   LIG    1       -1.415  -4.737  -2.531  0.00  0.00    +0.200 C 
BRANCH  14  15
ATOM     15  O   LIG    1       -2.065  -4.339  -3.739  0.00  0.00    -0.540 OA
ATOM     16  H   LIG    1       -1.641  -4.670  -4.543  0.00  0.00    +0.380 HD
ENDBRANCH  14  15
BRANCH  14  17
ATOM     17  C   LIG    1       -1.402  -6.265  -2.439  0.00  0.00    +0.170 C 
BRANCH  17  18
ATOM     18  O   LIG    1       -2.743  -6.746  -2.323  0.00  0.00    -0.560 OA
ATOM     19  H   LIG    1       -2.811  -7.708  -2.260  0.00  0.00    +0.390 HD
ENDBRANCH  17  18
ENDBRANCH  14  17
ENDBRANCH  13  14
ENDBRANCH   3  13
TORSDOF 6
ENDMDL
MODEL     1381
REMARK  Name = ZINC000013323725
REMARK                            x       y       z     vdW  Elec       q    Type
REMARK                         _______ _______ _______ _____ _____    ______ ____
ROOT
ATOM      1  N   LIG    1       -2.607  -2.683  -0.010  0.00  0.00    -0.510 NA
ATOM      2  C   LIG    1       -3.478  -1.948   0.917  0.00  0.00    +0.180 C 
ATOM      3  C   LIG    1       -4.923  -2.427   0.743  0.00  0.00    +0.310 C 
ATOM      4  N   LIG    1       -4.952  -3.890   0.890  0.00  0.00    -1.000 NA
ATOM      5  C   LIG    1       -4.009  -4.688   0.091  0.00  0.00    +0.310 C 
ATOM      6  C   LIG    1       -2.600  -4.121   0.291  0.00  0.00    +0.180 C 
ENDROOT
BRANCH   4   7
ATOM      7  S   LIG    1       -6.018  -4.620   1.926  0.00  0.00    +2.610 S 
ATOM      8  O   LIG    1       -6.283  -3.629   2.910  0.00  0.00    -0.950 OA
ATOM      9  O   LIG    1       -5.387  -5.845   2.272  0.00  0.00    -0.950 OA
ATOM     10  C   LIG    1       -7.494  -4.925   0.916  0.00  0.00    -0.280 C 
ENDBRANCH   4   7
BRANCH   1  11
ATOM     11  C   LIG    1       -1.244  -2.135   0.003  0.00  0.00    +0.300 C 
BRANCH  11  12
ATOM     12  C   LIG    1       -0.676  -2.234   1.395  0.00  0.00    +0.420 C 
ATOM     13  O   LIG    1       -1.296  -2.804   2.261  0.00  0.00    -0.500 OA
BRANCH  12  15
ATOM     14  C   LIG    1        1.004  -1.823   3.034  0.00  0.00    +0.250 C 
ATOM     15  O   LIG    1        0.519  -1.689   1.672  0.00  0.00    -0.360 OA
ENDBRANCH  12  15
ENDBRANCH  11  12
ENDBRANCH   1  11
TORSDOF 4
ENDMDL
MODEL     1382
REMARK  Name = ZINC000018286010
REMARK                            x       y       z     vdW  Elec       q    Type
REMARK                         _______ _______ _______ _____ _____    ______ ____
ROOT
ATOM      1  C4    C A  1        0.002  -0.004   0.002  0.00  0.00    +0.510 A 
ATOM      2  N3    C A  1       -1.135  -0.687   0.004  0.00  0.00    -0.620 NA
ATOM      3  C2    C A  1       -1.129  -2.018  -0.004  0.00  0.00    +0.660 A 
ATOM      4  N1    C A  1        0.026  -2.708  -0.014  0.00  0.00    -0.540 N 
ATOM      5  C6    C A  1        1.220  -2.050  -0.016  0.00  0.00    +0.390 A 
ATOM      6  O2    C A  1       -2.189  -2.623  -0.003  0.00  0.00    -0.540 OA
ATOM      7  C5    C A  1        1.230  -0.697  -0.013  0.00  0.00    -0.160 A 
ENDROOT
BRANCH   4   8
ATOM      8  C1*   C A  1        0.001  -4.173  -0.023  0.00  0.00    +0.410 C 
ATOM      9  C2*   C A  1       -0.724  -4.691   1.238  0.00  0.00    +0.020 C 
ATOM     10  C3*   C A  1        0.132  -5.928   1.625  0.00  0.00    +0.170 C 
ATOM     11  C4*   C A  1        1.545  -5.452   1.203  0.00  0.00    +0.180 C 
ATOM     12  O4*   C A  1        1.340  -4.682   0.005  0.00  0.00    -0.360 OA
BRANCH  10  13
ATOM     13  O3*   C A  1        0.070  -6.178   3.031  0.00  0.00    -0.550 OA
ATOM     14  H3*   C A  1       -0.819  -6.375   3.356  0.00  0.00    +0.390 HD
ENDBRANCH  10  13
BRANCH  11  15
ATOM     15  C5*   C A  1        2.447  -6.653   0.915  0.00  0.00    +0.210 C 
BRANCH  15  16
ATOM     16  O5*   C A  1        3.773  -6.199   0.641  0.00  0.00    -0.570 OA
ATOM     17  H5*   C A  1        4.401  -6.909   0.449  0.00  0.00    +0.390 HD
ENDBRANCH  15  16
ENDBRANCH  11  15
ENDBRANCH   4   8
BRANCH   1  18
ATOM     18  N4    C A  1       -0.017   1.371   0.010  0.00  0.00    -0.810 N 
ATOM     19  H41   C A  1       -0.863   1.845   0.016  0.00  0.00    +0.410 HD
ATOM     20  H42   C A  1        0.817   1.868   0.004  0.00  0.00    +0.420 HD
ENDBRANCH   1  18
TORSDOF 5
ENDMDL
MODEL     1383
REMARK  Name = ZINC000239562581
REMARK                            x       y       z     vdW  Elec       q    Type
REMARK                         _______ _______ _______ _____ _____    ______ ____
ROOT
ATOM      1  C   LIG    1        0.652  -0.570  -1.138  0.00  0.00    +0.190 C 
ATOM      2  C   LIG    1        2.140  -0.759  -0.835  0.00  0.00    +0.120 C 
ATOM      3  C   LIG    1        2.301  -1.698   0.362  0.00  0.00    +0.160 C 
ATOM      4  C   LIG    1        1.671  -3.053   0.037  0.00  0.00    +0.210 C 
ATOM      5  C   LIG    1        0.183  -2.864  -0.266  0.00  0.00    +0.140 C 
ATOM      6  C   LIG    1        0.021  -1.926  -1.463  0.00  0.00    +0.160 C 
ENDROOT
BRANCH   1   8
ATOM      7  C   LIG    1       -0.017   1.425   0.010  0.00  0.00    +0.230 C 
ATOM      8  O   LIG    1        0.002  -0.004   0.002  0.00  0.00    -0.370 OA
ENDBRANCH   1   8
BRANCH   5   9
ATOM      9  O   LIG    1       -0.406  -4.130  -0.569  0.00  0.00    -0.560 OA
ATOM     10  H   LIG    1       -1.350  -4.086  -0.772  0.00  0.00    +0.380 HD
ENDBRANCH   5   9
BRANCH   4  11
ATOM     11  O   LIG    1        1.822  -3.929   1.156  0.00  0.00    -0.370 OA
ATOM     12  C   LIG    1        1.917  -5.311   0.803  0.00  0.00    +0.210 C 
ENDBRANCH   4  11
BRANCH   3  13
ATOM     13  O   LIG    1        3.691  -1.874   0.645  0.00  0.00    -0.550 OA
ATOM     14  H   LIG    1        4.156  -1.054   0.860  0.00  0.00    +0.380 HD
ENDBRANCH   3  13
BRANCH   2  15
ATOM     15  O   LIG    1        2.789  -1.325  -1.975  0.00  0.00    -0.530 OA
ATOM     16  H   LIG    1        3.737  -1.473  -1.855  0.00  0.00    +0.380 HD
ENDBRANCH   2  15
BRANCH   6  17
ATOM     17  O   LIG    1        0.671  -2.492  -2.603  0.00  0.00    -0.530 OA
ATOM     18  H   LIG    1        0.322  -3.354  -2.867  0.00  0.00    +0.380 HD
ENDBRANCH   6  17
TORSDOF 6
ENDMDL
MODEL     1384
REMARK  Name = ZINC000242273691
REMARK                            x       y       z     vdW  Elec       q    Type
REMARK                         _______ _______ _______ _____ _____    ______ ____
ROOT
ATOM      1  C   LIG    1       -2.245   4.423  -0.056  0.00  0.00    +0.230 C 
ATOM      2  C   LIG    1       -2.875   4.331   1.337  0.00  0.00    +0.050 C 
ATOM      3  C   LIG    1       -4.241   5.019   1.319  0.00  0.00    +0.260 C 
ATOM      4  N   LIG    1       -4.078   6.429   0.947  0.00  0.00    -0.380 N 
ATOM      5  C   LIG    1       -3.541   6.526  -0.416  0.00  0.00    +0.260 C 
ATOM      6  H   LIG    1       -3.441   6.874   1.591  0.00  0.00    +0.430 HD
ATOM      7  C   LIG    1       -2.148   5.896  -0.465  0.00  0.00    +0.050 C 
ENDROOT
BRANCH   1   9
ATOM      8  C   LIG    1       -0.748   2.505  -0.196  0.00  0.00    +0.460 C 
ATOM      9  N   LIG    1       -0.904   3.833  -0.027  0.00  0.00    -0.720 N 
ATOM     10  H   LIG    1       -0.128   4.399   0.113  0.00  0.00    +0.410 HD
ATOM     11  O   LIG    1       -1.718   1.798  -0.371  0.00  0.00    -0.540 OA
BRANCH   8  13
ATOM     12  O   LIG    1        0.763   0.700  -0.319  0.00  0.00    -0.630 OA
ATOM     13  C   LIG    1        0.622   1.903  -0.166  0.00  0.00    +0.490 C 
ATOM     14  O   LIG    1        1.598   2.614   0.005  0.00  0.00    -0.670 OA
ENDBRANCH   8  13
ENDBRANCH   1   9
BRANCH   4  15
ATOM     15  C   LIG    1       -5.382   7.104   1.006  0.00  0.00    +0.280 C 
BRANCH  15  16
ATOM     16  C   LIG    1       -5.874   7.138   2.454  0.00  0.00    +0.200 C 
BRANCH  16  17
ATOM     17  O   LIG    1       -4.977   7.920   3.244  0.00  0.00    -0.580 OA
ATOM     18  H   LIG    1       -5.227   7.986   4.175  0.00  0.00    +0.410 HD
ENDBRANCH  16  17
ENDBRANCH  15  16
ENDBRANCH   4  15
TORSDOF 5
ENDMDL
MODEL     1385
REMARK  Name = ZINC000075279292
REMARK                            x       y       z     vdW  Elec       q    Type
REMARK                         _______ _______ _______ _____ _____    ______ ____
ROOT
ATOM      1  C   LIG    1        0.002  -0.004   0.002  0.00  0.00    +0.670 A 
ATOM      2  N   LIG    1       -1.143  -0.634   0.004  0.00  0.00    -0.560 NA
ATOM      3  C   LIG    1       -1.204  -1.992  -0.003  0.00  0.00    +0.340 A 
ATOM      4  N   LIG    1       -2.170  -2.880  -0.002  0.00  0.00    -0.280 NA
ATOM      5  N   LIG    1       -1.613  -4.164  -0.012  0.00  0.00    -0.360 N 
ATOM      6  C   LIG    1       -0.274  -4.079  -0.018  0.00  0.00    +0.380 A 
ATOM      7  C   LIG    1        0.061  -2.746  -0.013  0.00  0.00    -0.380 A 
ATOM      8  C   LIG    1        1.311  -1.979  -0.015  0.00  0.00    +0.610 A 
ATOM      9  O   LIG    1        2.393  -2.536  -0.023  0.00  0.00    -0.510 OA
ATOM     10  N   LIG    1        1.216  -0.629  -0.013  0.00  0.00    -0.670 N 
ATOM     11  H   LIG    1        2.026  -0.096  -0.014  0.00  0.00    +0.420 HD
ENDROOT
BRANCH   1  12
ATOM     12  N   LIG    1       -0.017   1.369   0.010  0.00  0.00    -0.820 N 
ATOM     13  H   LIG    1       -0.863   1.843   0.016  0.00  0.00    +0.430 HD
ATOM     14  H   LIG    1        0.817   1.866   0.004  0.00  0.00    +0.410 HD
ENDBRANCH   1  12
BRANCH   5  15
ATOM     15  C   LIG    1       -2.377  -5.413  -0.015  0.00  0.00    +0.500 C 
BRANCH  15  16
ATOM     16  O   LIG    1       -1.476  -6.523  -0.026  0.00  0.00    -0.390 OA
BRANCH  16  17
ATOM     17  C   LIG    1       -2.123  -7.797  -0.029  0.00  0.00    +0.220 C 
BRANCH  17  18
ATOM     18  C   LIG    1       -1.068  -8.905  -0.041  0.00  0.00    +0.210 C 
BRANCH  18  19
ATOM     19  O   LIG    1       -0.321  -8.864   1.177  0.00  0.00    -0.570 OA
ATOM     20  H   LIG    1        0.367  -9.540   1.238  0.00  0.00    +0.380 HD
ENDBRANCH  18  19
ENDBRANCH  17  18
ENDBRANCH  16  17
ENDBRANCH  15  16
ENDBRANCH   5  15
TORSDOF 6
ENDMDL
MODEL     1386
REMARK  Name = ZINC000023549789
REMARK                            x       y       z     vdW  Elec       q    Type
REMARK                         _______ _______ _______ _____ _____    ______ ____
ROOT
ATOM      1  C   LIG    1       -1.244  -2.150  -0.063  0.00  0.00    -0.460 C 
ATOM      2  C   LIG    1       -2.576  -2.582  -0.099  0.00  0.00    +0.610 C 
ENDROOT
BRANCH   2   3
ATOM      3  N   LIG    1       -2.861  -3.913  -0.063  0.00  0.00    -0.810 N 
ATOM      4  H   LIG    1       -3.780  -4.209   0.027  0.00  0.00    +0.400 HD
ATOM      5  H   LIG    1       -2.145  -4.564  -0.129  0.00  0.00    +0.440 HD
ENDBRANCH   2   3
BRANCH   1   6
ATOM      6  C   LIG    1       -0.936  -0.783  -0.281  0.00  0.00    +0.540 C 
ATOM      7  O   LIG    1       -1.814  -0.006  -0.609  0.00  0.00    -0.560 OA
BRANCH   6   9
ATOM      8  C   LIG    1        0.568   1.045  -0.362  0.00  0.00    +0.260 C 
ATOM      9  O   LIG    1        0.330  -0.344  -0.126  0.00  0.00    -0.330 OA
ENDBRANCH   6   9
ENDBRANCH   1   6
BRANCH   2  10
ATOM     10  N   LIG    1       -3.585  -1.671  -0.169  0.00  0.00    -0.680 N 
ATOM     11  H   LIG    1       -3.383  -0.722  -0.176  0.00  0.00    +0.440 HD
BRANCH  10  12
ATOM     12  C   LIG    1       -4.977  -2.123  -0.234  0.00  0.00    +0.260 C 
BRANCH  12  13
ATOM     13  C   LIG    1       -5.905  -0.909  -0.306  0.00  0.00    +0.200 C 
BRANCH  13  14
ATOM     14  O   LIG    1       -5.678  -0.208  -1.530  0.00  0.00    -0.570 OA
ATOM     15  H   LIG    1       -6.234   0.576  -1.644  0.00  0.00    +0.390 HD
ENDBRANCH  13  14
ENDBRANCH  12  13
ENDBRANCH  10  12
ENDBRANCH   2  10
BRANCH   1  16
ATOM     16  C   LIG    1       -0.204  -3.079   0.192  0.00  0.00    +0.550 C 
ATOM     17  O   LIG    1       -0.473  -4.240   0.439  0.00  0.00    -0.570 OA
BRANCH  16  18
ATOM     18  O   LIG    1        1.083  -2.676   0.160  0.00  0.00    -0.330 OA
ATOM     19  C   LIG    1        2.079  -3.666   0.425  0.00  0.00    +0.260 C 
ENDBRANCH  16  18
ENDBRANCH   1  16
TORSDOF 9
ENDMDL
MODEL     1387
REMARK  Name = ZINC000075283730
REMARK                            x       y       z     vdW  Elec       q    Type
REMARK                         _______ _______ _______ _____ _____    ______ ____
ROOT
ATOM      1  C   LIG    1       -1.284   1.905  -0.179  0.00  0.00    -0.350 A 
ATOM      2  C   LIG    1       -2.487   1.219  -0.145  0.00  0.00    +0.460 A 
ATOM      3  N   LIG    1       -3.644   1.896  -0.354  0.00  0.00    -0.620 N 
ATOM      4  H   LIG    1       -4.486   1.415  -0.330  0.00  0.00    +0.440 HD
ATOM      5  C   LIG    1       -3.650   3.217  -0.594  0.00  0.00    +0.700 A 
ATOM      6  N   LIG    1       -2.520   3.942  -0.640  0.00  0.00    -0.650 N 
ATOM      7  H   LIG    1       -2.566   4.895  -0.817  0.00  0.00    +0.440 HD
ATOM      8  O   LIG    1       -4.714   3.775  -0.774  0.00  0.00    -0.520 OA
ATOM      9  C   LIG    1       -1.321   3.355  -0.438  0.00  0.00    +0.560 A 
ATOM     10  O   LIG    1       -0.295   4.007  -0.478  0.00  0.00    -0.490 OA
ENDROOT
BRANCH   1  12
ATOM     11  O   LIG    1       -0.005   0.017   0.254  0.00  0.00    -0.440 OA
ATOM     12  C   LIG    1       -0.015   1.212   0.042  0.00  0.00    +0.430 C 
BRANCH  12  13
ATOM     13  C   LIG    1        1.280   1.981   0.001  0.00  0.00    +0.210 C 
BRANCH  13  14
ATOM     14  N   LIG    1        2.408   1.045   0.105  0.00  0.00    -0.530 NA
ATOM     15  C   LIG    1        3.674   1.766   0.306  0.00  0.00    +0.160 C 
ATOM     16  C   LIG    1        4.811   0.754   0.470  0.00  0.00    +0.220 C 
ATOM     17  O   LIG    1        4.850  -0.100  -0.676  0.00  0.00    -0.390 OA
ATOM     18  C   LIG    1        3.634  -0.818  -0.902  0.00  0.00    +0.230 C 
ATOM     19  C   LIG    1        2.485   0.178  -1.079  0.00  0.00    +0.140 C 
ENDBRANCH  13  14
ENDBRANCH  12  13
ENDBRANCH   1  12
TORSDOF 3
ENDMDL
MODEL     1388
REMARK  Name = ZINC000065449411
REMARK                            x       y       z     vdW  Elec       q    Type
REMARK                         _______ _______ _______ _____ _____    ______ ____
ROOT
ATOM      1  N   LIG    1        1.590  -0.473  -0.016  0.00  0.00    -1.000 NA
ATOM      2  C   LIG    1        2.405  -0.703  -1.223  0.00  0.00    +0.280 C 
ATOM      3  C   LIG    1        3.869  -0.500  -0.758  0.00  0.00    +0.040 C 
ATOM      4  C   LIG    1        3.830  -1.109   0.668  0.00  0.00    +0.060 C 
ATOM      5  C   LIG    1        2.424  -0.722   1.170  0.00  0.00    +0.240 C 
ENDROOT
BRANCH   5   6
ATOM      6  C   LIG    1        2.507   0.520   2.020  0.00  0.00    +0.510 C 
ATOM      7  N   LIG    1        3.233   0.512   3.155  0.00  0.00    -0.690 N 
ATOM      8  H   LIG    1        3.703  -0.293   3.425  0.00  0.00    +0.400 HD
ATOM      9  O   LIG    1        1.920   1.526   1.683  0.00  0.00    -0.530 OA
BRANCH   7  10
ATOM     10  C   LIG    1        3.314   1.719   3.981  0.00  0.00    +0.220 C 
ATOM     11  C   LIG    1        3.180   1.549   5.496  0.00  0.00    +0.010 C 
ATOM     12  C   LIG    1        4.542   1.878   4.881  0.00  0.00    +0.020 C 
ENDBRANCH   7  10
ENDBRANCH   5   6
BRANCH   1  13
ATOM     13  S   LIG    1        0.002  -0.004   0.002  0.00  0.00    +2.820 S 
ATOM     14  O   LIG    1       -0.549  -0.406  -1.245  0.00  0.00    -0.980 OA
ATOM     15  O   LIG    1       -0.525  -0.419   1.255  0.00  0.00    -0.980 OA
BRANCH  13  16
ATOM     16  N   LIG    1       -0.020   1.652   0.011  0.00  0.00    -1.250 NA
ATOM     17  H   LIG    1       -0.867   2.125   0.018  0.00  0.00    +0.410 HD
ATOM     18  H   LIG    1        0.813   2.148   0.006  0.00  0.00    +0.420 HD
ENDBRANCH  13  16
ENDBRANCH   1  13
TORSDOF 4
ENDMDL
MODEL     1389
REMARK  Name = ZINC000068940829
REMARK                            x       y       z     vdW  Elec       q    Type
REMARK                         _______ _______ _______ _____ _____    ______ ____
ROOT
ATOM      1  C   LIG    1        0.065   1.222   0.383  0.00  0.00    +0.060 C 
ATOM      2  C   LIG    1        0.057  -0.287   0.130  0.00  0.00    +0.170 C 
ATOM      3  C   LIG    1        0.903  -0.987   1.196  0.00  0.00    +0.030 C 
ENDROOT
BRANCH   2   4
ATOM      4  N   LIG    1        0.615  -0.564  -1.196  0.00  0.00    -1.110 NA
ATOM      5  H   LIG    1        0.240  -1.273  -1.742  0.00  0.00    +0.420 HD
BRANCH   4   6
ATOM      6  S   LIG    1        1.886   0.334  -1.763  0.00  0.00    +2.610 S 
ATOM      7  O   LIG    1        1.425   1.677  -1.693  0.00  0.00    -0.950 OA
ATOM      8  O   LIG    1        2.210  -0.265  -3.010  0.00  0.00    -0.960 OA
ATOM      9  C   LIG    1        3.212   0.053  -0.558  0.00  0.00    -0.290 C 
ENDBRANCH   4   6
ENDBRANCH   2   4
BRANCH   2  10
ATOM     10  C   LIG    1       -1.381  -0.808   0.197  0.00  0.00    +0.300 C 
BRANCH  10  11
ATOM     11  N   LIG    1       -1.388  -2.253  -0.045  0.00  0.00    -1.120 NA
ATOM     12  H   LIG    1       -0.607  -2.686  -0.423  0.00  0.00    +0.420 HD
BRANCH  11  13
ATOM     13  S   LIG    1       -2.731  -3.147   0.328  0.00  0.00    +2.620 S 
ATOM     14  O   LIG    1       -3.031  -2.788   1.669  0.00  0.00    -0.950 OA
ATOM     15  O   LIG    1       -2.370  -4.479  -0.011  0.00  0.00    -0.960 OA
ATOM     16  C   LIG    1       -4.013  -2.530  -0.798  0.00  0.00    -0.280 C 
ENDBRANCH  11  13
ENDBRANCH  10  11
ENDBRANCH   2  10
TORSDOF 5
ENDMDL
MODEL     1390
REMARK  Name = ZINC000049093443
REMARK                            x       y       z     vdW  Elec       q    Type
REMARK                         _______ _______ _______ _____ _____    ______ ____
ROOT
ATOM      1  C   LIG    1       -2.994  -3.868   0.010  0.00  0.00    +0.520 C 
ATOM      2  N   LIG    1       -4.152  -4.558   0.017  0.00  0.00    -0.710 N 
ATOM      3  H   LIG    1       -4.998  -4.084   0.028  0.00  0.00    +0.410 HD
ATOM      4  O   LIG    1       -1.936  -4.460  -0.003  0.00  0.00    -0.540 OA
ENDROOT
BRANCH   2   5
ATOM      5  C   LIG    1       -4.132  -6.022   0.009  0.00  0.00    +0.250 C 
ATOM      6  C   LIG    1       -3.986  -6.538   1.442  0.00  0.00    +0.060 C 
BRANCH   5   7
ATOM      7  C   LIG    1       -5.418  -6.539  -0.582  0.00  0.00    +0.510 C 
ATOM      8  N   LIG    1       -5.625  -7.866  -0.691  0.00  0.00    -0.730 N 
ATOM      9  H   LIG    1       -4.945  -8.489  -0.389  0.00  0.00    +0.410 HD
ATOM     10  C   LIG    1       -6.875  -8.369  -1.266  0.00  0.00    +0.290 C 
ATOM     11  O   LIG    1       -6.268  -5.760  -0.959  0.00  0.00    -0.530 OA
ENDBRANCH   5   7
ENDBRANCH   2   5
BRANCH   1  12
ATOM     12  C   LIG    1       -3.014  -2.361   0.018  0.00  0.00    +0.300 C 
BRANCH  12  14
ATOM     13  C   LIG    1       -1.412  -0.526   0.013  0.00  0.00    +0.510 C 
ATOM     14  N   LIG    1       -1.640  -1.854   0.008  0.00  0.00    -0.720 N 
ATOM     15  H   LIG    1       -0.894  -2.474  -0.003  0.00  0.00    +0.410 HD
ATOM     16  O   LIG    1       -2.344   0.250   0.026  0.00  0.00    -0.540 OA
BRANCH  13  18
ATOM     17  C   LIG    1       -0.019   1.526   0.010  0.00  0.00    +0.040 C 
ATOM     18  C   LIG    1        0.002  -0.004   0.002  0.00  0.00    +0.060 C 
ENDBRANCH  13  18
ENDBRANCH  12  14
ENDBRANCH   1  12
TORSDOF 5
ENDMDL
MODEL     1391
REMARK  Name = ZINC000100563870
REMARK                            x       y       z     vdW  Elec       q    Type
REMARK                         _______ _______ _______ _____ _____    ______ ____
ROOT
ATOM      1  C   LIG    1       -0.036   1.399   1.015  0.00  0.00    +0.100 C 
ATOM      2  C   LIG    1       -0.010  -0.077   0.714  0.00  0.00    -0.150 A 
ATOM      3  C   LIG    1       -1.196  -0.762   0.529  0.00  0.00    +0.110 A 
ATOM      4  C   LIG    1       -1.168  -2.133   0.249  0.00  0.00    -0.310 A 
ATOM      5  C   LIG    1       -2.180  -3.095   0.014  0.00  0.00    +0.270 C 
ATOM      6  C   LIG    1       -1.444  -4.386  -0.222  0.00  0.00    +0.530 C 
ATOM      7  N   LIG    1       -0.152  -4.132  -0.121  0.00  0.00    -0.630 NA
ATOM      8  O   LIG    1       -1.948  -5.468  -0.463  0.00  0.00    -0.460 OA
ATOM      9  C   LIG    1        0.073  -2.816   0.157  0.00  0.00    +0.300 A 
ATOM     10  C   LIG    1        1.251  -2.099   0.348  0.00  0.00    -0.020 A 
ATOM     11  C   LIG    1        1.203  -0.741   0.619  0.00  0.00    +0.150 A 
ENDROOT
BRANCH   5  12
ATOM     12  N   LIG    1       -3.501  -2.899   0.003  0.00  0.00    -0.390 N 
ATOM     13  H   LIG    1       -4.103  -3.655  -0.085  0.00  0.00    +0.450 HD
BRANCH  12  14
ATOM     14  N   LIG    1       -4.018  -1.602   0.117  0.00  0.00    -0.500 N 
ATOM     15  H   LIG    1       -3.418  -0.840   0.119  0.00  0.00    +0.460 HD
BRANCH  14  16
ATOM     16  C   LIG    1       -5.348  -1.414   0.226  0.00  0.00    +0.560 C 
ATOM     17  S   LIG    1       -5.979   0.172   0.366  0.00  0.00    -0.520 S 
BRANCH  16  18
ATOM     18  N   LIG    1       -6.181  -2.473   0.224  0.00  0.00    -0.790 N 
ATOM     19  H   LIG    1       -7.138  -2.337   0.302  0.00  0.00    +0.450 HD
ATOM     20  H   LIG    1       -5.823  -3.371   0.145  0.00  0.00    +0.390 HD
ENDBRANCH  16  18
ENDBRANCH  14  16
ENDBRANCH  12  14
ENDBRANCH   5  12
TORSDOF 4
ENDMDL
MODEL     1392
REMARK  Name = ZINC000019203136
REMARK                            x       y       z     vdW  Elec       q    Type
REMARK                         _______ _______ _______ _____ _____    ______ ____
ROOT
ATOM      1  N   LIG    1       -2.953   1.936   2.770  0.00  0.00    -0.380 N 
ATOM      2  C   LIG    1       -4.285   1.322   2.854  0.00  0.00    +0.270 C 
ATOM      3  C   LIG    1       -4.979   1.784   4.138  0.00  0.00    +0.210 C 
ATOM      4  N   LIG    1       -5.095   3.249   4.128  0.00  0.00    -0.530 NA
ATOM      5  C   LIG    1       -3.771   3.877   4.019  0.00  0.00    +0.200 C 
ATOM      6  C   LIG    1       -3.087   3.398   2.736  0.00  0.00    +0.270 C 
ATOM      7  H   LIG    1       -2.407   1.666   3.574  0.00  0.00    +0.420 HD
ENDROOT
BRANCH   1   8
ATOM      8  C   LIG    1       -2.280   1.478   1.546  0.00  0.00    +0.300 C 
BRANCH   8   9
ATOM      9  C   LIG    1       -0.848   2.016   1.520  0.00  0.00    -0.460 C 
BRANCH   9  11
ATOM     10  O   LIG    1        0.002  -0.004   0.002  0.00  0.00    -1.040 OA
ATOM     11  S   LIG    1       -0.018   1.450   0.010  0.00  0.00    +2.630 S 
ATOM     12  O   LIG    1       -0.752   1.947  -1.143  0.00  0.00    -1.040 OA
ATOM     13  O   LIG    1        1.341   1.970  -0.000  0.00  0.00    -1.040 OA
ENDBRANCH   9  11
ENDBRANCH   8   9
ENDBRANCH   1   8
BRANCH   4  14
ATOM     14  C   LIG    1       -5.808   3.728   5.320  0.00  0.00    +0.200 C 
BRANCH  14  15
ATOM     15  C   LIG    1       -6.128   5.216   5.159  0.00  0.00    +0.190 C 
BRANCH  15  16
ATOM     16  O   LIG    1       -7.043   5.391   4.075  0.00  0.00    -0.560 OA
ATOM     17  H   LIG    1       -7.291   6.312   3.915  0.00  0.00    +0.380 HD
ENDBRANCH  15  16
ENDBRANCH  14  15
ENDBRANCH   4  14
TORSDOF 6
ENDMDL
MODEL     1393
REMARK  Name = ZINC000019229290
REMARK                            x       y       z     vdW  Elec       q    Type
REMARK                         _______ _______ _______ _____ _____    ______ ____
ROOT
ATOM      1  O   LIG    1        0.002  -0.004   0.002  0.00  0.00    -0.920 OA
ATOM      2  S   LIG    1       -0.017   1.417   0.010  0.00  0.00    +2.400 S 
ATOM      3  C   LIG    1       -0.460   2.009   1.687  0.00  0.00    -0.330 C 
ATOM      4  C   LIG    1        0.923   2.140   2.374  0.00  0.00    +0.200 C 
ATOM      5  C   LIG    1        1.869   2.779   1.343  0.00  0.00    +0.180 C 
ATOM      6  O   LIG    1       -0.784   2.119  -0.959  0.00  0.00    -0.930 OA
ATOM      7  C   LIG    1        1.700   2.046  -0.003  0.00  0.00    -0.300 C 
ENDROOT
BRANCH   5   8
ATOM      8  N   LIG    1        3.259   2.652   1.800  0.00  0.00    -0.530 NA
ATOM      9  C   LIG    1        3.384   3.030   3.216  0.00  0.00    +0.170 C 
ATOM     10  C   LIG    1        4.833   2.826   3.667  0.00  0.00    +0.220 C 
ATOM     11  O   LIG    1        5.701   3.587   2.823  0.00  0.00    -0.390 OA
ATOM     12  C   LIG    1        5.606   3.244   1.438  0.00  0.00    +0.220 C 
ATOM     13  C   LIG    1        4.165   3.453   0.965  0.00  0.00    +0.150 C 
ENDBRANCH   5   8
BRANCH   4  14
ATOM     14  O   LIG    1        0.819   2.977   3.528  0.00  0.00    -0.550 OA
ATOM     15  H   LIG    1        0.220   2.638   4.207  0.00  0.00    +0.390 HD
ENDBRANCH   4  14
TORSDOF 2
ENDMDL
MODEL     1394
REMARK  Name = ZINC000019229294
REMARK                            x       y       z     vdW  Elec       q    Type
REMARK                         _______ _______ _______ _____ _____    ______ ____
ROOT
ATOM      1  O   LIG    1        0.079  -0.050  -0.049  0.00  0.00    -0.920 OA
ATOM      2  S   LIG    1        0.106   1.368  -0.145  0.00  0.00    +2.390 S 
ATOM      3  C   LIG    1       -0.384   2.111   1.463  0.00  0.00    -0.330 C 
ATOM      4  C   LIG    1        0.893   1.958   2.315  0.00  0.00    +0.200 C 
ATOM      5  C   LIG    1        2.152   1.876   1.460  0.00  0.00    +0.170 C 
ATOM      6  O   LIG    1       -0.571   2.026  -1.207  0.00  0.00    -0.930 OA
ATOM      7  C   LIG    1        1.842   1.966  -0.048  0.00  0.00    -0.300 C 
ENDROOT
BRANCH   5   8
ATOM      8  N   LIG    1        3.049   2.980   1.826  0.00  0.00    -0.500 NA
ATOM      9  C   LIG    1        4.090   3.173   0.807  0.00  0.00    +0.140 C 
ATOM     10  C   LIG    1        4.964   4.368   1.197  0.00  0.00    +0.220 C 
ATOM     11  O   LIG    1        5.515   4.145   2.498  0.00  0.00    -0.390 OA
ATOM     12  C   LIG    1        4.528   3.954   3.516  0.00  0.00    +0.230 C 
ATOM     13  C   LIG    1        3.650   2.754   3.149  0.00  0.00    +0.170 C 
ENDBRANCH   5   8
BRANCH   4  14
ATOM     14  O   LIG    1        1.003   3.082   3.191  0.00  0.00    -0.530 OA
ATOM     15  H   LIG    1        0.269   3.168   3.814  0.00  0.00    +0.380 HD
ENDBRANCH   4  14
TORSDOF 2
ENDMDL
MODEL     1395
REMARK  Name = ZINC000019229288
REMARK                            x       y       z     vdW  Elec       q    Type
REMARK                         _______ _______ _______ _____ _____    ______ ____
ROOT
ATOM      1  O   LIG    1        0.002  -0.004   0.002  0.00  0.00    -0.930 OA
ATOM      2  S   LIG    1       -0.017   1.417   0.010  0.00  0.00    +2.400 S 
ATOM      3  C   LIG    1       -0.460   2.009   1.687  0.00  0.00    -0.280 C 
ATOM      4  C   LIG    1        0.923   2.140   2.374  0.00  0.00    +0.170 C 
ATOM      5  C   LIG    1        1.869   2.779   1.343  0.00  0.00    +0.210 C 
ATOM      6  O   LIG    1       -0.784   2.119  -0.959  0.00  0.00    -0.930 OA
ATOM      7  C   LIG    1        1.700   2.046  -0.003  0.00  0.00    -0.340 C 
ENDROOT
BRANCH   4   8
ATOM      8  N   LIG    1        0.816   3.001   3.560  0.00  0.00    -0.510 NA
ATOM      9  C   LIG    1        2.144   3.432   4.020  0.00  0.00    +0.150 C 
ATOM     10  C   LIG    1        1.983   4.372   5.218  0.00  0.00    +0.220 C 
ATOM     11  O   LIG    1        1.245   3.705   6.245  0.00  0.00    -0.390 OA
ATOM     12  C   LIG    1       -0.054   3.272   5.832  0.00  0.00    +0.220 C 
ATOM     13  C   LIG    1        0.086   2.321   4.640  0.00  0.00    +0.150 C 
ENDBRANCH   4   8
BRANCH   5  14
ATOM     14  O   LIG    1        1.539   4.160   1.179  0.00  0.00    -0.540 OA
ATOM     15  H   LIG    1        2.098   4.625   0.541  0.00  0.00    +0.380 HD
ENDBRANCH   5  14
TORSDOF 2
ENDMDL
MODEL     1396
REMARK  Name = ZINC000019267409
REMARK                            x       y       z     vdW  Elec       q    Type
REMARK                         _______ _______ _______ _____ _____    ______ ____
ROOT
ATOM      1  C   LIG    1       -0.018   1.461   0.010  0.00  0.00    +0.350 C 
ATOM      2  N   LIG    1        0.002  -0.004   0.002  0.00  0.00    -0.530 N 
ATOM      3  C   LIG    1       -1.177  -0.698   0.004  0.00  0.00    +0.520 A 
ATOM      4  C   LIG    1       -1.159  -2.048  -0.004  0.00  0.00    -0.870 A 
ATOM      5  C   LIG    1        0.087  -2.720  -0.014  0.00  0.00    +0.580 A 
ATOM      6  N   LIG    1        1.227  -2.000  -0.016  0.00  0.00    -0.550 N 
ATOM      7  C   LIG    1        2.522  -2.684  -0.026  0.00  0.00    +0.350 C 
ATOM      8  O   LIG    1        0.129  -3.937  -0.022  0.00  0.00    -0.470 OA
ATOM      9  C   LIG    1        1.180  -0.654  -0.013  0.00  0.00    +0.690 A 
ATOM     10  O   LIG    1        2.216  -0.018  -0.015  0.00  0.00    -0.520 OA
ENDROOT
BRANCH   4  11
ATOM     11  S   LIG    1       -2.666  -2.961  -0.002  0.00  0.00    +2.740 S 
ATOM     12  O   LIG    1       -3.714  -2.006   0.092  0.00  0.00    -0.960 OA
ATOM     13  O   LIG    1       -2.492  -4.020   0.930  0.00  0.00    -0.910 OA
BRANCH  11  14
ATOM     14  N   LIG    1       -2.811  -3.670  -1.492  0.00  0.00    -0.960 NA
ATOM     15  H   LIG    1       -3.574  -3.463  -2.055  0.00  0.00    +0.410 HD
BRANCH  14  16
ATOM     16  N   LIG    1       -1.857  -4.544  -1.929  0.00  0.00    -0.580 NA
ATOM     17  H   LIG    1       -0.943  -4.118  -1.915  0.00  0.00    +0.340 HD
ATOM     18  H   LIG    1       -2.080  -4.893  -2.849  0.00  0.00    +0.360 HD
ENDBRANCH  14  16
ENDBRANCH  11  14
ENDBRANCH   4  11
TORSDOF 3
ENDMDL
MODEL     1397
REMARK  Name = ZINC000019318821
REMARK                            x       y       z     vdW  Elec       q    Type
REMARK                         _______ _______ _______ _____ _____    ______ ____
ROOT
ATOM      1  C   LIG    1       -1.307   1.937   0.019  0.00  0.00    -0.230 C 
ATOM      2  C   LIG    1       -2.450   1.256   0.021  0.00  0.00    +0.590 C 
ATOM      3  N   LIG    1       -2.526  -0.126   0.019  0.00  0.00    -0.690 N 
ATOM      4  H   LIG    1       -1.768  -0.731   0.017  0.00  0.00    +0.450 HD
ATOM      5  C   LIG    1       -3.939  -0.526   0.022  0.00  0.00    +0.430 C 
ATOM      6  C   LIG    1       -4.726   0.795   0.025  0.00  0.00    +0.430 C 
ATOM      7  N   LIG    1       -3.701   1.847   0.030  0.00  0.00    -0.690 N 
ATOM      8  H   LIG    1       -3.873   2.802   0.032  0.00  0.00    +0.450 HD
ENDROOT
BRANCH   1  10
ATOM      9  O   LIG    1        0.002  -0.004   0.002  0.00  0.00    -0.210 OA
ATOM     10  N   LIG    1       -0.014   1.214   0.009  0.00  0.00    +0.090 N 
ATOM     11  O   LIG    1        1.032   1.837   0.002  0.00  0.00    -0.110 OA
ENDBRANCH   1  10
BRANCH   1  12
ATOM     12  N   LIG    1       -1.327   3.417   0.027  0.00  0.00    +0.090 N 
ATOM     13  O   LIG    1       -0.280   4.041   0.025  0.00  0.00    -0.110 OA
ATOM     14  O   LIG    1       -2.390   4.012   0.035  0.00  0.00    -0.210 OA
ENDBRANCH   1  12
BRANCH   6  15
ATOM     15  O   LIG    1       -5.535   0.889   1.199  0.00  0.00    -0.550 OA
ATOM     16  H   LIG    1       -6.055   1.703   1.254  0.00  0.00    +0.410 HD
ENDBRANCH   6  15
BRANCH   5  17
ATOM     17  O   LIG    1       -4.242  -1.285  -1.150  0.00  0.00    -0.550 OA
ATOM     18  H   LIG    1       -3.740  -2.107  -1.227  0.00  0.00    +0.410 HD
ENDBRANCH   5  17
TORSDOF 4
ENDMDL
MODEL     1398
REMARK  Name = ZINC000019318986
REMARK                            x       y       z     vdW  Elec       q    Type
REMARK                         _______ _______ _______ _____ _____    ______ ____
ROOT
ATOM      1  C   LIG    1       -1.307   1.937   0.019  0.00  0.00    -0.230 C 
ATOM      2  C   LIG    1       -2.450   1.256   0.021  0.00  0.00    +0.590 C 
ATOM      3  N   LIG    1       -2.526  -0.126   0.019  0.00  0.00    -0.700 N 
ATOM      4  H   LIG    1       -1.768  -0.731   0.017  0.00  0.00    +0.450 HD
ATOM      5  C   LIG    1       -3.939  -0.526   0.022  0.00  0.00    +0.430 C 
ATOM      6  C   LIG    1       -4.726   0.795   0.025  0.00  0.00    +0.430 C 
ATOM      7  N   LIG    1       -3.701   1.847   0.030  0.00  0.00    -0.700 N 
ATOM      8  H   LIG    1       -3.873   2.802   0.032  0.00  0.00    +0.450 HD
ENDROOT
BRANCH   1  10
ATOM      9  O   LIG    1        0.002  -0.004   0.002  0.00  0.00    -0.210 OA
ATOM     10  N   LIG    1       -0.014   1.214   0.009  0.00  0.00    +0.090 N 
ATOM     11  O   LIG    1        1.032   1.837   0.002  0.00  0.00    -0.110 OA
ENDBRANCH   1  10
BRANCH   1  12
ATOM     12  N   LIG    1       -1.327   3.417   0.027  0.00  0.00    +0.090 N 
ATOM     13  O   LIG    1       -0.280   4.041   0.025  0.00  0.00    -0.110 OA
ATOM     14  O   LIG    1       -2.390   4.012   0.035  0.00  0.00    -0.210 OA
ENDBRANCH   1  12
BRANCH   6  15
ATOM     15  O   LIG    1       -5.540   0.891  -1.146  0.00  0.00    -0.530 OA
ATOM     16  H   LIG    1       -6.060   1.705  -1.198  0.00  0.00    +0.390 HD
ENDBRANCH   6  15
BRANCH   5  17
ATOM     17  O   LIG    1       -4.242  -1.285  -1.150  0.00  0.00    -0.530 OA
ATOM     18  H   LIG    1       -3.740  -2.107  -1.227  0.00  0.00    +0.390 HD
ENDBRANCH   5  17
TORSDOF 4
ENDMDL
MODEL     1399
REMARK  Name = ZINC000019318823
REMARK                            x       y       z     vdW  Elec       q    Type
REMARK                         _______ _______ _______ _____ _____    ______ ____
ROOT
ATOM      1  C   LIG    1       -1.307   1.937   0.019  0.00  0.00    -0.230 C 
ATOM      2  C   LIG    1       -2.450   1.256   0.021  0.00  0.00    +0.590 C 
ATOM      3  N   LIG    1       -2.526  -0.126   0.019  0.00  0.00    -0.690 N 
ATOM      4  H   LIG    1       -1.768  -0.731   0.017  0.00  0.00    +0.450 HD
ATOM      5  C   LIG    1       -3.939  -0.526   0.022  0.00  0.00    +0.430 C 
ATOM      6  C   LIG    1       -4.726   0.795   0.025  0.00  0.00    +0.430 C 
ATOM      7  N   LIG    1       -3.701   1.847   0.030  0.00  0.00    -0.690 N 
ATOM      8  H   LIG    1       -3.873   2.802   0.032  0.00  0.00    +0.450 HD
ENDROOT
BRANCH   1  10
ATOM      9  O   LIG    1        0.002  -0.004   0.002  0.00  0.00    -0.210 OA
ATOM     10  N   LIG    1       -0.014   1.214   0.009  0.00  0.00    +0.090 N 
ATOM     11  O   LIG    1        1.032   1.837   0.002  0.00  0.00    -0.110 OA
ENDBRANCH   1  10
BRANCH   1  12
ATOM     12  N   LIG    1       -1.327   3.417   0.027  0.00  0.00    +0.090 N 
ATOM     13  O   LIG    1       -0.280   4.041   0.025  0.00  0.00    -0.110 OA
ATOM     14  O   LIG    1       -2.390   4.012   0.035  0.00  0.00    -0.210 OA
ENDBRANCH   1  12
BRANCH   6  15
ATOM     15  O   LIG    1       -5.540   0.891  -1.146  0.00  0.00    -0.550 OA
ATOM     16  H   LIG    1       -6.060   1.705  -1.198  0.00  0.00    +0.410 HD
ENDBRANCH   6  15
BRANCH   5  17
ATOM     17  O   LIG    1       -4.237  -1.287   1.194  0.00  0.00    -0.550 OA
ATOM     18  H   LIG    1       -3.735  -2.110   1.267  0.00  0.00    +0.410 HD
ENDBRANCH   5  17
TORSDOF 4
ENDMDL
MODEL     1400
REMARK  Name = ZINC000331090586
REMARK                            x       y       z     vdW  Elec       q    Type
REMARK                         _______ _______ _______ _____ _____    ______ ____
ROOT
ATOM      1  C   LIG    1        1.138  -1.621   4.584  0.00  0.00    +0.610 C 
ATOM      2  N   LIG    1        2.249  -2.006   5.242  0.00  0.00    -0.700 N 
ATOM      3  H   LIG    1        3.107  -2.003   4.788  0.00  0.00    +0.410 HD
ATOM      4  O   LIG    1        0.064  -1.625   5.152  0.00  0.00    -0.500 OA
ENDROOT
BRANCH   1   7
ATOM      5  C   LIG    1        0.731  -0.503   1.223  0.00  0.00    +0.190 A 
ATOM      6  N   LIG    1        0.199  -0.781   2.387  0.00  0.00    -0.440 NA
ATOM      7  C   LIG    1        1.226  -1.191   3.166  0.00  0.00    +0.130 A 
ATOM      8  N   LIG    1        2.309  -1.138   2.438  0.00  0.00    -0.350 NA
ATOM      9  O   LIG    1        2.041  -0.751   1.320  0.00  0.00    +0.100 OA
BRANCH   5  11
ATOM     10  C   LIG    1       -0.019   1.526   0.010  0.00  0.00    +0.060 C 
ATOM     11  C   LIG    1        0.002  -0.004   0.002  0.00  0.00    +0.200 C 
ENDBRANCH   5  11
ENDBRANCH   1   7
BRANCH   2  12
ATOM     12  C   LIG    1        2.163  -2.431   6.641  0.00  0.00    +0.260 C 
BRANCH  12  13
ATOM     13  C   LIG    1        3.555  -2.813   7.146  0.00  0.00    +0.220 C 
BRANCH  13  14
ATOM     14  O   LIG    1        4.071  -3.886   6.354  0.00  0.00    -0.550 OA
ATOM     15  H   LIG    1        3.529  -4.686   6.376  0.00  0.00    +0.380 HD
ENDBRANCH  13  14
BRANCH  13  16
ATOM     16  C   LIG    1        3.465  -3.257   8.607  0.00  0.00    +0.170 C 
BRANCH  16  17
ATOM     17  O   LIG    1        4.779  -3.502   9.113  0.00  0.00    -0.560 OA
ATOM     18  H   LIG    1        4.798  -3.788  10.036  0.00  0.00    +0.380 HD
ENDBRANCH  16  17
ENDBRANCH  13  16
ENDBRANCH  12  13
ENDBRANCH   2  12
TORSDOF 7
ENDMDL
MODEL     1401
REMARK  Name = ZINC000008401120
REMARK                            x       y       z     vdW  Elec       q    Type
REMARK                         _______ _______ _______ _____ _____    ______ ____
ROOT
ATOM      1  C   LIG    1       -0.018   1.503   0.010  0.00  0.00    +0.190 C 
ATOM      2  C   LIG    1        0.002  -0.004   0.002  0.00  0.00    +0.010 A 
ATOM      3  N   LIG    1        0.006  -0.660  -1.135  0.00  0.00    -0.180 NA
ATOM      4  N   LIG    1        0.023  -1.944  -1.168  0.00  0.00    -0.330 NA
ATOM      5  C   LIG    1        0.038  -2.674  -0.065  0.00  0.00    +0.280 A 
ATOM      6  N   LIG    1        0.036  -2.074   1.159  0.00  0.00    -0.340 N 
ATOM      7  C   LIG    1        0.023  -0.723   1.217  0.00  0.00    +0.490 A 
ATOM      8  O   LIG    1        0.021  -0.141   2.289  0.00  0.00    -0.510 OA
ENDROOT
BRANCH   6   9
ATOM      9  N   LIG    1        0.052  -2.821   2.303  0.00  0.00    -0.590 N 
ATOM     10  H   LIG    1       -0.720  -3.470   2.321  0.00  0.00    +0.370 HD
ATOM     11  H   LIG    1        0.048  -2.231   3.121  0.00  0.00    +0.390 HD
ENDBRANCH   6   9
BRANCH   5  12
ATOM     12  S   LIG    1        0.061  -4.432  -0.178  0.00  0.00    +0.130 S 
BRANCH  12  13
ATOM     13  C   LIG    1        0.056  -4.631  -1.978  0.00  0.00    +0.120 C 
BRANCH  13  14
ATOM     14  C   LIG    1        0.074  -6.098  -2.321  0.00  0.00    +0.540 C 
ATOM     15  O   LIG    1        0.089  -6.928  -1.436  0.00  0.00    -0.530 OA
ATOM     16  N   LIG    1        0.073  -6.488  -3.611  0.00  0.00    -0.840 N 
ATOM     17  H   LIG    1        0.085  -7.433  -3.832  0.00  0.00    +0.410 HD
ATOM     18  H   LIG    1        0.061  -5.825  -4.318  0.00  0.00    +0.410 HD
ENDBRANCH  13  14
ENDBRANCH  12  13
ENDBRANCH   5  12
TORSDOF 4
ENDMDL
MODEL     1402
REMARK  Name = ZINC000013517522
REMARK                            x       y       z     vdW  Elec       q    Type
REMARK                         _______ _______ _______ _____ _____    ______ ____
ROOT
ATOM      1  N   LIG    1        0.711  -0.489   1.189  0.00  0.00    -0.630 N 
ATOM      2  C   LIG    1        2.027  -0.726   1.266  0.00  0.00    +0.700 C 
ATOM      3  N   LIG    1        2.431  -1.165   2.465  0.00  0.00    -0.630 N 
ATOM      4  C   LIG    1        1.267  -1.258   3.360  0.00  0.00    +0.460 C 
ATOM      5  N   LIG    1        1.464  -0.376   4.518  0.00  0.00    -1.100 NA
ATOM      6  H   LIG    1        1.961  -0.565   5.329  0.00  0.00    +0.450 HD
ATOM      7  S   LIG    1        0.642   1.027   4.129  0.00  0.00    +2.760 S 
ATOM      8  N   LIG    1       -0.506   0.443   3.065  0.00  0.00    -1.100 NA
ATOM      9  H   LIG    1       -1.377   0.821   2.867  0.00  0.00    +0.440 HD
ATOM     10  O   LIG    1        1.533   1.848   3.387  0.00  0.00    -0.950 OA
ATOM     11  O   LIG    1       -0.043   1.454   5.299  0.00  0.00    -0.970 OA
ATOM     12  O   LIG    1        2.787  -0.555   0.332  0.00  0.00    -0.560 OA
ATOM     13  C   LIG    1        0.091  -0.789   2.489  0.00  0.00    +0.470 C 
ENDROOT
BRANCH   1  15
ATOM     14  C   LIG    1       -0.019   1.526   0.010  0.00  0.00    +0.020 C 
ATOM     15  C   LIG    1        0.002  -0.004   0.002  0.00  0.00    +0.320 C 
ENDBRANCH   1  15
BRANCH   3  16
ATOM     16  C   LIG    1        3.810  -1.500   2.828  0.00  0.00    +0.320 C 
ATOM     17  C   LIG    1        4.509  -0.256   3.379  0.00  0.00    +0.020 C 
ENDBRANCH   3  16
TORSDOF 2
ENDMDL
MODEL     1403
REMARK  Name = ZINC000001408272
REMARK                            x       y       z     vdW  Elec       q    Type
REMARK                         _______ _______ _______ _____ _____    ______ ____
ROOT
ATOM      1  N   LIG    1        0.711  -0.489   1.189  0.00  0.00    -0.620 N 
ATOM      2  C   LIG    1        2.048  -0.742   1.307  0.00  0.00    +0.720 C 
ATOM      3  N   LIG    1        2.442  -0.877   2.610  0.00  0.00    -0.620 N 
ATOM      4  C   LIG    1        1.347  -0.380   3.387  0.00  0.00    +0.400 C 
ATOM      5  N   LIG    1        0.950  -0.744   4.715  0.00  0.00    -1.090 NA
ATOM      6  H   LIG    1        1.495  -1.093   5.438  0.00  0.00    +0.440 HD
ATOM      7  S   LIG    1       -0.706  -0.413   4.702  0.00  0.00    +2.770 S 
ATOM      8  N   LIG    1       -0.964  -0.056   3.068  0.00  0.00    -1.090 NA
ATOM      9  H   LIG    1       -1.655   0.481   2.650  0.00  0.00    +0.440 HD
ATOM     10  O   LIG    1       -0.902   0.788   5.436  0.00  0.00    -0.950 OA
ATOM     11  O   LIG    1       -1.383  -1.631   4.979  0.00  0.00    -0.950 OA
ATOM     12  O   LIG    1        2.804  -0.836   0.360  0.00  0.00    -0.530 OA
ATOM     13  C   LIG    1        0.143  -0.795   2.481  0.00  0.00    +0.400 C 
ENDROOT
BRANCH   1  15
ATOM     14  C   LIG    1       -0.019   1.526   0.010  0.00  0.00    +0.020 C 
ATOM     15  C   LIG    1        0.002  -0.004   0.002  0.00  0.00    +0.320 C 
ENDBRANCH   1  15
BRANCH   3  16
ATOM     16  C   LIG    1        3.712  -1.415   3.105  0.00  0.00    +0.320 C 
ATOM     17  C   LIG    1        4.729  -0.281   3.240  0.00  0.00    +0.020 C 
ENDBRANCH   3  16
TORSDOF 2
ENDMDL
MODEL     1404
REMARK  Name = ZINC000019419060
REMARK                            x       y       z     vdW  Elec       q    Type
REMARK                         _______ _______ _______ _____ _____    ______ ____
ROOT
ATOM      1  N   LIG    1        1.324   0.003   1.926  0.00  0.00    -0.670 N 
ATOM      2  H   LIG    1        1.311   0.973   1.931  0.00  0.00    +0.400 HD
ENDROOT
BRANCH   1   3
ATOM      3  C   LIG    1        0.672  -0.674   0.960  0.00  0.00    +0.570 C 
ATOM      4  S   LIG    1        0.696  -2.386   0.951  0.00  0.00    -0.630 S 
BRANCH   3   5
ATOM      5  N   LIG    1        0.002  -0.004   0.002  0.00  0.00    -0.530 N 
ATOM      6  H   LIG    1       -0.467  -0.492  -0.693  0.00  0.00    +0.430 HD
BRANCH   5   7
ATOM      7  N   LIG    1       -0.016   1.362   0.009  0.00  0.00    -0.620 NA
ATOM      8  H   LIG    1       -0.555   1.720  -0.765  0.00  0.00    +0.380 HD
ATOM      9  H   LIG    1        0.920   1.736   0.003  0.00  0.00    +0.340 HD
ENDBRANCH   5   7
ENDBRANCH   3   5
ENDBRANCH   1   3
BRANCH   1  10
ATOM     10  C   LIG    1        2.053  -0.725   2.967  0.00  0.00    +0.310 C 
BRANCH  10  11
ATOM     11  C   LIG    1        2.698   0.273   3.931  0.00  0.00    +0.170 C 
BRANCH  11  12
ATOM     12  N   LIG    1        3.428  -0.458   4.976  0.00  0.00    -0.530 NA
ATOM     13  C   LIG    1        2.615  -1.556   5.518  0.00  0.00    +0.150 C 
ATOM     14  C   LIG    1        3.434  -2.325   6.558  0.00  0.00    +0.220 C 
ATOM     15  O   LIG    1        3.872  -1.421   7.576  0.00  0.00    -0.380 OA
ATOM     16  C   LIG    1        4.667  -0.340   7.083  0.00  0.00    +0.220 C 
ATOM     17  C   LIG    1        3.861   0.449   6.049  0.00  0.00    +0.160 C 
ENDBRANCH  11  12
ENDBRANCH  10  11
ENDBRANCH   1  10
TORSDOF 6
ENDMDL
MODEL     1405
REMARK  Name = ZINC000019500840
REMARK                            x       y       z     vdW  Elec       q    Type
REMARK                         _______ _______ _______ _____ _____    ______ ____
ROOT
ATOM      1  C   LIG    1        0.718  -0.497  -1.257  0.00  0.00    +0.240 C 
ATOM      2  N   LIG    1        2.103  -0.019  -1.241  0.00  0.00    -0.510 NA
ATOM      3  C   LIG    1        2.736   0.164  -2.355  0.00  0.00    +0.390 A 
ATOM      4  C   LIG    1        2.011  -0.021  -3.640  0.00  0.00    +0.020 A 
ATOM      5  C   LIG    1        2.817  -0.007  -4.881  0.00  0.00    +0.590 A 
ATOM      6  N   LIG    1        4.132   0.288  -4.771  0.00  0.00    -0.560 N 
ATOM      7  C   LIG    1        4.700   0.591  -3.597  0.00  0.00    +0.710 A 
ATOM      8  O   LIG    1        5.870   0.921  -3.599  0.00  0.00    -0.510 OA
ATOM      9  C   LIG    1        4.963   0.277  -5.977  0.00  0.00    +0.370 C 
ATOM     10  O   LIG    1        2.316  -0.252  -5.960  0.00  0.00    -0.440 OA
ATOM     11  N   LIG    1        0.723  -0.150  -3.634  0.00  0.00    -0.140 NA
ATOM     12  N   LIG    1        4.060   0.553  -2.416  0.00  0.00    -0.530 N 
ATOM     13  C   LIG    1        4.767   0.928  -1.189  0.00  0.00    +0.360 C 
ATOM     14  C   LIG    1        0.717  -2.027  -1.267  0.00  0.00    +0.060 C 
ATOM     15  O   LIG    1        0.024  -0.022  -2.406  0.00  0.00    -0.170 OA
ENDROOT
BRANCH   1  17
ATOM     16  C   LIG    1       -0.019   1.526   0.010  0.00  0.00    +0.030 C 
ATOM     17  C   LIG    1        0.002  -0.004   0.002  0.00  0.00    +0.100 C 
ENDBRANCH   1  17
TORSDOF 1
ENDMDL
MODEL     1406
REMARK  Name = ZINC000034133773
REMARK                            x       y       z     vdW  Elec       q    Type
REMARK                         _______ _______ _______ _____ _____    ______ ____
ROOT
ATOM      1  C   LIG    1       -1.823  -4.648  -0.106  0.00  0.00    +0.220 C 
ENDROOT
BRANCH   1   3
ATOM      2  C   LIG    1       -2.867  -2.421  -0.102  0.00  0.00    -0.020 C 
ATOM      3  C   LIG    1       -3.028  -3.742  -0.090  0.00  0.00    +0.060 C 
BRANCH   2   4
ATOM      4  C   LIG    1       -1.591  -1.840  -0.541  0.00  0.00    +0.490 C 
ATOM      5  O   LIG    1       -0.725  -2.556  -1.004  0.00  0.00    -0.490 OA
BRANCH   4   6
ATOM      6  O   LIG    1       -1.381  -0.513  -0.431  0.00  0.00    -0.360 OA
BRANCH   6   8
ATOM      7  C   LIG    1       -0.044   1.507  -0.682  0.00  0.00    +0.070 C 
ATOM      8  C   LIG    1       -0.098  -0.009  -0.885  0.00  0.00    +0.200 C 
ENDBRANCH   6   8
ENDBRANCH   4   6
ENDBRANCH   2   4
ENDBRANCH   1   3
BRANCH   1   9
ATOM      9  O   LIG    1       -1.732  -5.296  -1.377  0.00  0.00    -0.510 OA
ATOM     10  H   LIG    1       -2.501  -5.839  -1.597  0.00  0.00    +0.370 HD
ENDBRANCH   1   9
BRANCH   1  11
ATOM     11  C   LIG    1       -1.962  -5.702   0.995  0.00  0.00    +0.150 C 
BRANCH  11  12
ATOM     12  O   LIG    1       -2.054  -5.054   2.265  0.00  0.00    -0.550 OA
ATOM     13  H   LIG    1       -1.285  -4.510   2.486  0.00  0.00    +0.380 HD
ENDBRANCH  11  12
BRANCH  11  14
ATOM     14  C   LIG    1       -0.740  -6.621   0.978  0.00  0.00    +0.200 C 
BRANCH  14  15
ATOM     15  O   LIG    1       -0.648  -7.269  -0.293  0.00  0.00    -0.530 OA
ATOM     16  H   LIG    1       -1.417  -7.812  -0.513  0.00  0.00    +0.370 HD
ENDBRANCH  14  15
BRANCH  14  17
ATOM     17  C   LIG    1       -0.878  -7.675   2.079  0.00  0.00    +0.160 C 
BRANCH  17  18
ATOM     18  O   LIG    1        0.314  -8.460   2.139  0.00  0.00    -0.560 OA
ATOM     19  H   LIG    1        0.296  -9.149   2.817  0.00  0.00    +0.380 HD
ENDBRANCH  17  18
ENDBRANCH  14  17
ENDBRANCH  11  14
ENDBRANCH   1  11
TORSDOF 11
ENDMDL
MODEL     1407
REMARK  Name = ZINC000005248216
REMARK                            x       y       z     vdW  Elec       q    Type
REMARK                         _______ _______ _______ _____ _____    ______ ____
ROOT
ATOM      1  C   LIG    1       -0.018   1.461   0.010  0.00  0.00    +0.380 C 
ATOM      2  N   LIG    1        0.002  -0.004   0.002  0.00  0.00    -0.570 N 
ATOM      3  C   LIG    1        0.008  -0.776  -1.093  0.00  0.00    +0.560 C 
ATOM      4  N   LIG    1        0.028  -2.090  -0.832  0.00  0.00    -0.680 N 
ATOM      5  H   LIG    1        0.035  -2.796  -1.496  0.00  0.00    +0.450 HD
ATOM      6  C   LIG    1        0.037  -2.289   0.626  0.00  0.00    +0.260 C 
ATOM      7  C   LIG    1        1.306  -3.067   1.024  0.00  0.00    -0.290 C 
ATOM      8  S   LIG    1        2.533  -1.732   1.325  0.00  0.00    +2.380 S 
ATOM      9  C   LIG    1        1.296  -0.566   2.024  0.00  0.00    -0.290 C 
ATOM     10  O   LIG    1        3.017  -1.235   0.084  0.00  0.00    -0.900 OA
ATOM     11  O   LIG    1        3.444  -2.134   2.339  0.00  0.00    -0.920 OA
ATOM     12  S   LIG    1       -0.007  -0.140  -2.683  0.00  0.00    -0.610 S 
ATOM     13  C   LIG    1        0.025  -0.864   1.195  0.00  0.00    +0.260 C 
ENDROOT
TORSDOF 0
ENDMDL
MODEL     1408
REMARK  Name = ZINC000005248219
REMARK                            x       y       z     vdW  Elec       q    Type
REMARK                         _______ _______ _______ _____ _____    ______ ____
ROOT
ATOM      1  C   LIG    1       -0.018   1.461   0.010  0.00  0.00    +0.380 C 
ATOM      2  N   LIG    1        0.002  -0.004   0.002  0.00  0.00    -0.570 N 
ATOM      3  C   LIG    1        0.009  -0.826  -1.090  0.00  0.00    +0.560 C 
ATOM      4  N   LIG    1       -0.287  -2.124  -0.774  0.00  0.00    -0.670 N 
ATOM      5  H   LIG    1       -0.169  -2.910  -1.330  0.00  0.00    +0.450 HD
ATOM      6  C   LIG    1       -0.812  -2.070   0.558  0.00  0.00    +0.200 C 
ATOM      7  C   LIG    1       -0.794  -3.161   1.589  0.00  0.00    -0.270 C 
ATOM      8  S   LIG    1       -0.872  -2.230   3.179  0.00  0.00    +2.400 S 
ATOM      9  C   LIG    1       -0.714  -0.544   2.442  0.00  0.00    -0.270 C 
ATOM     10  O   LIG    1        0.282  -2.522   3.954  0.00  0.00    -0.910 OA
ATOM     11  O   LIG    1       -2.165  -2.377   3.749  0.00  0.00    -0.910 OA
ATOM     12  S   LIG    1        0.351  -0.290  -2.680  0.00  0.00    -0.570 S 
ATOM     13  C   LIG    1        0.025  -0.885   1.147  0.00  0.00    +0.210 C 
ENDROOT
TORSDOF 0
ENDMDL
MODEL     1409
REMARK  Name = ZINC000005248220
REMARK                            x       y       z     vdW  Elec       q    Type
REMARK                         _______ _______ _______ _____ _____    ______ ____
ROOT
ATOM      1  C   LIG    1       -0.018   1.461   0.010  0.00  0.00    +0.370 C 
ATOM      2  N   LIG    1        0.002  -0.004   0.002  0.00  0.00    -0.560 N 
ATOM      3  C   LIG    1        0.008  -0.776  -1.093  0.00  0.00    +0.550 C 
ATOM      4  N   LIG    1        0.027  -2.090  -0.832  0.00  0.00    -0.670 N 
ATOM      5  H   LIG    1        0.034  -2.796  -1.496  0.00  0.00    +0.450 HD
ATOM      6  C   LIG    1        0.036  -2.289   0.626  0.00  0.00    +0.240 C 
ATOM      7  C   LIG    1       -1.207  -3.102   1.035  0.00  0.00    -0.290 C 
ATOM      8  S   LIG    1       -1.742  -2.285   2.592  0.00  0.00    +2.400 S 
ATOM      9  C   LIG    1       -1.259  -0.602   2.035  0.00  0.00    -0.300 C 
ATOM     10  O   LIG    1       -0.905  -2.697   3.664  0.00  0.00    -0.910 OA
ATOM     11  O   LIG    1       -3.155  -2.365   2.717  0.00  0.00    -0.910 OA
ATOM     12  S   LIG    1       -0.007  -0.141  -2.683  0.00  0.00    -0.620 S 
ATOM     13  C   LIG    1        0.025  -0.864   1.195  0.00  0.00    +0.260 C 
ENDROOT
TORSDOF 0
ENDMDL
MODEL     1410
REMARK  Name = ZINC000000517827
REMARK                            x       y       z     vdW  Elec       q    Type
REMARK                         _______ _______ _______ _____ _____    ______ ____
ROOT
ATOM      1  C   LIG    1        2.358  -2.414   1.337  0.00  0.00    +0.130 C 
ATOM      2  C   LIG    1        1.137  -1.875   0.636  0.00  0.00    -0.250 A 
ATOM      3  C   LIG    1       -0.017  -2.575   0.637  0.00  0.00    +0.340 A 
ATOM      4  N   LIG    1       -1.116  -2.072  -0.004  0.00  0.00    -0.540 N 
ATOM      5  C   LIG    1       -1.057  -0.885  -0.636  0.00  0.00    +0.700 A 
ATOM      6  N   LIG    1        0.081  -0.167  -0.653  0.00  0.00    -0.660 N 
ATOM      7  H   LIG    1        0.106   0.687  -1.113  0.00  0.00    +0.430 HD
ATOM      8  O   LIG    1       -2.045  -0.457  -1.199  0.00  0.00    -0.540 OA
ATOM      9  C   LIG    1        1.184  -0.626  -0.028  0.00  0.00    +0.550 A 
ATOM     10  O   LIG    1        2.214   0.024  -0.043  0.00  0.00    -0.510 OA
ENDROOT
BRANCH   4  11
ATOM     11  C   LIG    1       -2.369  -2.831  -0.002  0.00  0.00    +0.450 C 
ATOM     12  O   LIG    1       -2.316  -3.859   1.001  0.00  0.00    -0.340 OA
ATOM     13  C   LIG    1       -1.835  -5.057   0.353  0.00  0.00    +0.190 C 
ATOM     14  C   LIG    1       -2.555  -5.038  -1.019  0.00  0.00    +0.180 C 
ATOM     15  C   LIG    1       -2.562  -3.526  -1.364  0.00  0.00    -0.010 C 
BRANCH  14  16
ATOM     16  O   LIG    1       -1.817  -5.781  -1.992  0.00  0.00    -0.540 OA
ATOM     17  H   LIG    1       -1.710  -6.717  -1.774  0.00  0.00    +0.380 HD
ENDBRANCH  14  16
BRANCH  15  18
ATOM     18  C   LIG    1       -3.900  -3.126  -1.991  0.00  0.00    +0.210 C 
BRANCH  18  19
ATOM     19  O   LIG    1       -4.038  -3.762  -3.263  0.00  0.00    -0.560 OA
ATOM     20  H   LIG    1       -4.865  -3.553  -3.719  0.00  0.00    +0.380 HD
ENDBRANCH  18  19
ENDBRANCH  15  18
ENDBRANCH   4  11
TORSDOF 4
ENDMDL
MODEL     1411
REMARK  Name = ZINC000002168582
REMARK                            x       y       z     vdW  Elec       q    Type
REMARK                         _______ _______ _______ _____ _____    ______ ____
ROOT
ATOM      1  N   LIG    1        0.690  -0.478  -1.207  0.00  0.00    -0.500 N 
ATOM      2  H   LIG    1        0.202  -0.144  -2.024  0.00  0.00    +0.430 HD
ATOM      3  H   LIG    1        0.703  -1.487  -1.212  0.00  0.00    +0.430 HD
ENDROOT
BRANCH   1   5
ATOM      4  C   LIG    1       -0.019   1.526   0.010  0.00  0.00    +0.100 C 
ATOM      5  C   LIG    1        0.002  -0.004   0.002  0.00  0.00    +0.050 C 
ATOM      6  C   LIG    1        0.742  -0.511   1.242  0.00  0.00    +0.100 C 
BRANCH   5   7
ATOM      7  C   LIG    1       -1.433  -0.534   0.013  0.00  0.00    +0.210 C 
BRANCH   7   8
ATOM      8  O   LIG    1       -2.102  -0.073   1.189  0.00  0.00    -0.550 OA
ATOM      9  H   LIG    1       -3.019  -0.371   1.262  0.00  0.00    +0.400 HD
ENDBRANCH   7   8
ENDBRANCH   5   7
ENDBRANCH   1   5
BRANCH   1  10
ATOM     10  C   LIG    1        2.068   0.031  -1.217  0.00  0.00    +0.230 C 
BRANCH  10  11
ATOM     11  C   LIG    1        2.784  -0.463  -2.476  0.00  0.00    +0.240 C 
BRANCH  11  12
ATOM     12  O   LIG    1        2.803  -1.892  -2.484  0.00  0.00    -0.540 OA
ATOM     13  H   LIG    1        3.258  -2.283  -1.725  0.00  0.00    +0.390 HD
ENDBRANCH  11  12
BRANCH  11  14
ATOM     14  C   LIG    1        4.219   0.067  -2.487  0.00  0.00    -0.480 C 
BRANCH  14  15
ATOM     15  S   LIG    1        5.022  -0.394  -4.047  0.00  0.00    +2.640 S 
ATOM     16  O   LIG    1        4.273   0.189  -5.149  0.00  0.00    -1.060 OA
ATOM     17  O   LIG    1        5.031  -1.844  -4.160  0.00  0.00    -1.040 OA
ATOM     18  O   LIG    1        6.384   0.116  -4.042  0.00  0.00    -1.050 OA
ENDBRANCH  14  15
ENDBRANCH  11  14
ENDBRANCH  10  11
ENDBRANCH   1  10
TORSDOF 8
ENDMDL
MODEL     1412
REMARK  Name = ZINC000002166869
REMARK                            x       y       z     vdW  Elec       q    Type
REMARK                         _______ _______ _______ _____ _____    ______ ____
ROOT
ATOM      1  C   LIG    1        2.583  -2.785  -0.038  0.00  0.00    +0.430 C 
ENDROOT
BRANCH   1   3
ATOM      2  C   LIG    1        1.286  -0.722  -0.014  0.00  0.00    +0.550 C 
ATOM      3  N   LIG    1        1.304  -2.070  -0.021  0.00  0.00    -0.740 N 
ATOM      4  H   LIG    1        0.471  -2.566  -0.016  0.00  0.00    +0.410 HD
ATOM      5  O   LIG    1        2.331  -0.100  -0.021  0.00  0.00    -0.530 OA
BRANCH   2   7
ATOM      6  C   LIG    1       -0.016   1.326   0.009  0.00  0.00    +0.160 C 
ATOM      7  C   LIG    1        0.002  -0.004   0.002  0.00  0.00    -0.090 C 
ENDBRANCH   2   7
ENDBRANCH   1   3
BRANCH   1   8
ATOM      8  O   LIG    1        2.928  -3.113  -1.385  0.00  0.00    -0.560 OA
ATOM      9  H   LIG    1        2.281  -3.676  -1.831  0.00  0.00    +0.380 HD
ENDBRANCH   1   8
BRANCH   1  10
ATOM     10  C   LIG    1        2.459  -4.070   0.784  0.00  0.00    +0.430 C 
BRANCH  10  11
ATOM     11  N   LIG    1        3.767  -4.724   0.868  0.00  0.00    -0.740 N 
ATOM     12  H   LIG    1        4.378  -4.684   0.116  0.00  0.00    +0.410 HD
ATOM     13  C   LIG    1        4.121  -5.381   1.990  0.00  0.00    +0.550 C 
ATOM     14  O   LIG    1        3.354  -5.432   2.933  0.00  0.00    -0.530 OA
BRANCH  13  15
ATOM     15  C   LIG    1        5.434  -6.038   2.074  0.00  0.00    -0.090 C 
ATOM     16  C   LIG    1        5.784  -6.687   3.181  0.00  0.00    +0.160 C 
ENDBRANCH  13  15
ENDBRANCH  10  11
BRANCH  10  17
ATOM     17  O   LIG    1        1.525  -4.950   0.154  0.00  0.00    -0.560 OA
ATOM     18  H   LIG    1        1.773  -5.208  -0.744  0.00  0.00    +0.380 HD
ENDBRANCH  10  17
ENDBRANCH   1  10
TORSDOF 7
ENDMDL
MODEL     1413
REMARK  Name = ZINC000002164056
REMARK                            x       y       z     vdW  Elec       q    Type
REMARK                         _______ _______ _______ _____ _____    ______ ____
ROOT
ATOM      1  C   VAL A  1       -1.413  -2.041   0.005  0.00  0.00    +0.500 C 
ATOM      2  N   GLY A  2       -1.212  -2.705  -1.150  0.00  0.00    -0.680 N 
ATOM      3  H   GLY A  2       -1.081  -2.214  -1.976  0.00  0.00    +0.420 HD
ATOM      4  O   VAL A  1       -1.577  -2.655   1.037  0.00  0.00    -0.530 OA
ENDROOT
BRANCH   1   5
ATOM      5  CA  VAL A  1       -1.433  -0.534   0.013  0.00  0.00    +0.180 C 
BRANCH   5   6
ATOM      6  N   VAL A  1       -2.121  -0.060   1.222  0.00  0.00    -0.620 N 
ATOM      7  H1  VAL A  1       -2.135   0.949   1.227  0.00  0.00    +0.440 HD
ATOM      8  H2  VAL A  1       -1.633  -0.394   2.039  0.00  0.00    +0.440 HD
ATOM      9  H3  VAL A  1       -3.067  -0.409   1.229  0.00  0.00    +0.440 HD
ENDBRANCH   5   6
BRANCH   5  11
ATOM     10  CG1 VAL A  1       -0.019   1.526   0.010  0.00  0.00    +0.050 C 
ATOM     11  CB  VAL A  1        0.002  -0.004   0.002  0.00  0.00    +0.020 C 
ATOM     12  CG2 VAL A  1        0.742  -0.511   1.242  0.00  0.00    +0.060 C 
ENDBRANCH   5  11
ENDBRANCH   1   5
BRANCH   2  13
ATOM     13  CA  GLY A  2       -1.192  -4.170  -1.159  0.00  0.00    +0.310 C 
BRANCH  13  14
ATOM     14  C   GLY A  2       -0.952  -4.662  -2.563  0.00  0.00    +0.490 C 
ATOM     15  N   GLY A  3       -0.894  -5.985  -2.813  0.00  0.00    -0.680 N 
ATOM     16  H   GLY A  3       -1.006  -6.621  -2.089  0.00  0.00    +0.410 HD
ATOM     17  O   GLY A  2       -0.811  -3.866  -3.468  0.00  0.00    -0.560 OA
BRANCH  15  18
ATOM     18  CA  GLY A  3       -0.660  -6.462  -4.178  0.00  0.00    +0.190 C 
BRANCH  18  19
ATOM     19  C   GLY A  3       -0.640  -7.969  -4.186  0.00  0.00    +0.490 C 
ATOM     20  OXT GLY A  3       -0.458  -8.571  -5.231  0.00  0.00    -0.680 OA
ATOM     21  O   GLY A  3       -0.805  -8.587  -3.148  0.00  0.00    -0.690 OA
ENDBRANCH  18  19
ENDBRANCH  15  18
ENDBRANCH  13  14
ENDBRANCH   2  13
TORSDOF 7
ENDMDL
MODEL     1414
REMARK  Name = ZINC000019737065
REMARK                            x       y       z     vdW  Elec       q    Type
REMARK                         _______ _______ _______ _____ _____    ______ ____
ROOT
ATOM      1  C   LIG    1       -1.345   3.771   3.356  0.00  0.00    +0.290 C 
ENDROOT
BRANCH   1   5
ATOM      2  C   LIG    1       -1.330   1.951   0.019  0.00  0.00    -0.080 C 
ATOM      3  C   LIG    1       -2.390   1.178   0.837  0.00  0.00    +0.070 C 
ATOM      4  C   LIG    1       -2.291   1.770   2.226  0.00  0.00    +0.530 C 
ATOM      5  N   LIG    1       -1.626   2.938   2.184  0.00  0.00    -0.620 N 
ATOM      6  O   LIG    1       -2.744   1.265   3.231  0.00  0.00    -0.540 OA
ATOM      7  C   LIG    1       -1.218   3.271   0.813  0.00  0.00    +0.270 C 
BRANCH   2   9
ATOM      8  O   LIG    1        0.002  -0.004   0.002  0.00  0.00    -0.680 OA
ATOM      9  C   LIG    1       -0.015   1.215   0.009  0.00  0.00    +0.500 C 
ATOM     10  O   LIG    1        1.033   1.839   0.002  0.00  0.00    -0.700 OA
ENDBRANCH   2   9
ENDBRANCH   1   5
BRANCH   1  11
ATOM     11  C   LIG    1       -0.002   3.360   3.964  0.00  0.00    +0.190 C 
BRANCH  11  12
ATOM     12  N   LIG    1        0.280   4.195   5.138  0.00  0.00    -0.530 NA
ATOM     13  C   LIG    1        0.028   5.614   4.849  0.00  0.00    +0.200 C 
ATOM     14  C   LIG    1        0.276   6.441   6.112  0.00  0.00    +0.280 C 
ATOM     15  N   LIG    1        1.663   6.254   6.556  0.00  0.00    -0.510 N 
ATOM     16  C   LIG    1        1.893   4.836   6.865  0.00  0.00    +0.280 C 
ATOM     17  H   LIG    1        1.830   6.809   7.381  0.00  0.00    +0.430 HD
ATOM     18  H   LIG    1        2.293   6.544   5.822  0.00  0.00    +0.430 HD
ATOM     19  C   LIG    1        1.659   3.995   5.608  0.00  0.00    +0.200 C 
ENDBRANCH  11  12
ENDBRANCH   1  11
TORSDOF 4
ENDMDL
MODEL     1415
REMARK  Name = ZINC000002216763
REMARK                            x       y       z     vdW  Elec       q    Type
REMARK                         _______ _______ _______ _____ _____    ______ ____
ROOT
ATOM      1  C   LIG    1       -3.715   1.698   0.029  0.00  0.00    +0.200 C 
ATOM      2  C   LIG    1       -3.888   2.476  -1.302  0.00  0.00    -0.290 C 
ATOM      3  S   LIG    1       -5.700   2.785  -1.301  0.00  0.00    +2.420 S 
ATOM      4  C   LIG    1       -6.146   1.185  -0.527  0.00  0.00    -0.310 C 
ATOM      5  O   LIG    1       -6.179   2.822  -2.639  0.00  0.00    -0.900 OA
ATOM      6  O   LIG    1       -6.003   3.848  -0.407  0.00  0.00    -0.900 OA
ATOM      7  C   LIG    1       -4.864   0.697   0.161  0.00  0.00    +0.200 C 
ENDROOT
BRANCH   1   8
ATOM      8  N   LIG    1       -2.433   0.981   0.019  0.00  0.00    -0.470 N 
ATOM      9  H   LIG    1       -2.368   0.397   0.839  0.00  0.00    +0.440 HD
ATOM     10  H   LIG    1       -2.376   0.406  -0.808  0.00  0.00    +0.430 HD
BRANCH   8  11
ATOM     11  C   LIG    1       -1.330   1.951   0.019  0.00  0.00    +0.170 C 
BRANCH  11  13
ATOM     12  O   LIG    1        0.002  -0.004   0.002  0.00  0.00    -0.680 OA
ATOM     13  C   LIG    1       -0.015   1.215   0.009  0.00  0.00    +0.490 C 
ATOM     14  O   LIG    1        1.033   1.839   0.002  0.00  0.00    -0.640 OA
ENDBRANCH  11  13
ENDBRANCH   8  11
ENDBRANCH   1   8
BRANCH   7  15
ATOM     15  O   LIG    1       -5.133   0.490   1.549  0.00  0.00    -0.550 OA
ATOM     16  H   LIG    1       -5.807  -0.180   1.724  0.00  0.00    +0.410 HD
ENDBRANCH   7  15
TORSDOF 4
ENDMDL
MODEL     1416
REMARK  Name = ZINC000005131967
REMARK                            x       y       z     vdW  Elec       q    Type
REMARK                         _______ _______ _______ _____ _____    ______ ____
ROOT
ATOM      1  C   LIG    1       -3.667   1.899   0.030  0.00  0.00    +0.230 C 
ENDROOT
BRANCH   1   2
ATOM      2  O   LIG    1       -3.752   2.644  -1.187  0.00  0.00    -0.540 OA
ATOM      3  H   LIG    1       -3.783   2.095  -1.983  0.00  0.00    +0.380 HD
ENDBRANCH   1   2
BRANCH   1   4
ATOM      4  C   LIG    1       -2.395   1.050   0.019  0.00  0.00    +0.210 C 
BRANCH   4   5
ATOM      5  O   LIG    1       -1.250   1.905   0.018  0.00  0.00    -0.210 OA
BRANCH   5   7
ATOM      6  O   LIG    1        0.002  -0.004   0.002  0.00  0.00    -0.130 OA
ATOM      7  N   LIG    1       -0.014   1.214   0.009  0.00  0.00    +0.120 N 
ATOM      8  O   LIG    1        1.032   1.837   0.002  0.00  0.00    -0.070 OA
ENDBRANCH   5   7
ENDBRANCH   4   5
ENDBRANCH   1   4
BRANCH   1   9
ATOM      9  C   LIG    1       -4.889   0.987   0.156  0.00  0.00    +0.230 C 
BRANCH   9  10
ATOM     10  O   LIG    1       -4.864   0.011  -0.887  0.00  0.00    -0.540 OA
ATOM     11  H   LIG    1       -4.880   0.387  -1.778  0.00  0.00    +0.380 HD
ENDBRANCH   9  10
BRANCH   9  12
ATOM     12  C   LIG    1       -6.164   1.825   0.042  0.00  0.00    +0.210 C 
BRANCH  12  13
ATOM     13  O   LIG    1       -7.303   0.993   0.276  0.00  0.00    -0.210 OA
BRANCH  13  14
ATOM     14  N   LIG    1       -8.541   1.675   0.193  0.00  0.00    +0.120 N 
ATOM     15  O   LIG    1       -9.582   1.070   0.373  0.00  0.00    -0.070 OA
ATOM     16  O   LIG    1       -8.564   2.866  -0.060  0.00  0.00    -0.130 OA
ENDBRANCH  13  14
ENDBRANCH  12  13
ENDBRANCH   9  12
ENDBRANCH   1   9
TORSDOF 9
ENDMDL
MODEL     1417
REMARK  Name = ZINC000000518708
REMARK                            x       y       z     vdW  Elec       q    Type
REMARK                         _______ _______ _______ _____ _____    ______ ____
ROOT
ATOM      1  N   LIG    1       -1.416  -1.993  -0.116  0.00  0.00    -0.400 N 
ATOM      2  C   LIG    1       -1.538  -2.699  -1.257  0.00  0.00    +0.500 A 
ATOM      3  N   LIG    1       -1.478  -3.979  -0.993  0.00  0.00    -0.500 NA
ATOM      4  C   LIG    1       -1.315  -4.163   0.320  0.00  0.00    +0.310 A 
ATOM      5  N   LIG    1       -1.192  -5.284   1.125  0.00  0.00    -0.510 N 
ATOM      6  C   LIG    1       -1.241  -6.621   0.529  0.00  0.00    +0.350 C 
ATOM      7  C   LIG    1       -1.038  -5.146   2.455  0.00  0.00    +0.710 A 
ATOM      8  O   LIG    1       -0.936  -6.142   3.146  0.00  0.00    -0.540 OA
ATOM      9  N   LIG    1       -0.989  -3.936   3.039  0.00  0.00    -0.650 N 
ATOM     10  H   LIG    1       -0.873  -3.873   4.000  0.00  0.00    +0.440 HD
ATOM     11  C   LIG    1       -1.099  -2.808   2.307  0.00  0.00    +0.610 A 
ATOM     12  O   LIG    1       -1.053  -1.717   2.847  0.00  0.00    -0.520 OA
ATOM     13  C   LIG    1       -1.266  -2.906   0.909  0.00  0.00    -0.140 A 
ENDROOT
BRANCH   1  14
ATOM     14  C   LIG    1       -1.433  -0.534   0.013  0.00  0.00    +0.290 C 
BRANCH  14  16
ATOM     15  C   LIG    1       -0.019   1.526   0.010  0.00  0.00    +0.020 C 
ATOM     16  C   LIG    1        0.002  -0.004   0.002  0.00  0.00    +0.190 C 
BRANCH  16  17
ATOM     17  O   LIG    1        0.693  -0.477   1.160  0.00  0.00    -0.550 OA
ATOM     18  H   LIG    1        0.294  -0.202   1.996  0.00  0.00    +0.380 HD
ENDBRANCH  16  17
ENDBRANCH  14  16
ENDBRANCH   1  14
TORSDOF 3
ENDMDL
MODEL     1418
REMARK  Name = ZINC000005133403
REMARK                            x       y       z     vdW  Elec       q    Type
REMARK                         _______ _______ _______ _____ _____    ______ ____
ROOT
ATOM      1  C   LIG    1        2.433   1.472  -0.019  0.00  0.00    +0.260 C 
ATOM      2  C   LIG    1        2.670   0.610   1.226  0.00  0.00    +0.070 C 
ATOM      3  C   LIG    1        4.063  -0.020   1.126  0.00  0.00    +0.110 C 
ATOM      4  C   LIG    1        4.169  -0.784  -0.168  0.00  0.00    +0.520 C 
ATOM      5  N   LIG    1        3.467  -0.420  -1.251  0.00  0.00    -0.670 N 
ATOM      6  H   LIG    1        3.569  -0.934  -2.067  0.00  0.00    +0.420 HD
ATOM      7  O   LIG    1        4.903  -1.746  -0.231  0.00  0.00    -0.490 OA
ATOM      8  C   LIG    1        2.628   0.628  -1.251  0.00  0.00    +0.520 C 
ATOM      9  O   LIG    1        2.015   0.898  -2.261  0.00  0.00    -0.480 OA
ENDROOT
BRANCH   1  16
ATOM     10  O   LIG    1        0.002  -0.004   0.002  0.00  0.00    -0.470 OA
ATOM     11  C   LIG    1       -0.014   1.208   0.009  0.00  0.00    +0.530 C 
ATOM     12  C   LIG    1       -1.260   2.068   0.032  0.00  0.00    +0.110 C 
ATOM     13  C   LIG    1       -0.705   3.507   0.032  0.00  0.00    +0.110 C 
ATOM     14  C   LIG    1        0.795   3.309   0.009  0.00  0.00    +0.530 C 
ATOM     15  O   LIG    1        1.620   4.197   0.002  0.00  0.00    -0.470 OA
ATOM     16  N   LIG    1        1.066   1.998   0.003  0.00  0.00    -0.560 N 
ENDBRANCH   1  16
TORSDOF 1
ENDMDL
MODEL     1419
REMARK  Name = ZINC000005133398
REMARK                            x       y       z     vdW  Elec       q    Type
REMARK                         _______ _______ _______ _____ _____    ______ ____
ROOT
ATOM      1  C   LIG    1        2.433   1.472  -0.019  0.00  0.00    +0.260 C 
ATOM      2  C   LIG    1        2.595   0.514  -1.204  0.00  0.00    +0.060 C 
ATOM      3  C   LIG    1        1.672  -0.691  -0.987  0.00  0.00    +0.080 C 
ATOM      4  C   LIG    1        1.986  -1.319   0.345  0.00  0.00    +0.550 C 
ATOM      5  N   LIG    1        2.466  -0.590   1.363  0.00  0.00    -0.660 N 
ATOM      6  H   LIG    1        2.647  -1.032   2.208  0.00  0.00    +0.420 HD
ATOM      7  O   LIG    1        1.801  -2.507   0.499  0.00  0.00    -0.500 OA
ATOM      8  C   LIG    1        2.706   0.727   1.261  0.00  0.00    +0.530 C 
ATOM      9  O   LIG    1        3.150   1.326   2.216  0.00  0.00    -0.490 OA
ENDROOT
BRANCH   1  16
ATOM     10  O   LIG    1        1.552   4.053  -0.824  0.00  0.00    -0.470 OA
ATOM     11  C   LIG    1        0.761   3.238  -0.400  0.00  0.00    +0.530 C 
ATOM     12  C   LIG    1       -0.728   3.458  -0.248  0.00  0.00    +0.110 C 
ATOM     13  C   LIG    1       -1.235   2.119   0.324  0.00  0.00    +0.110 C 
ATOM     14  C   LIG    1        0.021   1.282   0.435  0.00  0.00    +0.520 C 
ATOM     15  O   LIG    1        0.072   0.143   0.846  0.00  0.00    -0.470 OA
ATOM     16  N   LIG    1        1.066   1.998   0.003  0.00  0.00    -0.570 N 
ENDBRANCH   1  16
TORSDOF 1
ENDMDL
MODEL     1420
REMARK  Name = ZINC000000970509
REMARK                            x       y       z     vdW  Elec       q    Type
REMARK                         _______ _______ _______ _____ _____    ______ ____
ROOT
ATOM      1  C   LIG    1       -1.179  -0.707   0.009  0.00  0.00    +0.640 A 
ATOM      2  N   LIG    1       -2.338  -0.061   0.018  0.00  0.00    -0.630 NA
ATOM      3  C   LIG    1       -3.484  -0.731   0.025  0.00  0.00    +0.680 A 
ATOM      4  N   LIG    1       -3.495  -2.099   0.023  0.00  0.00    -0.550 N 
ATOM      5  C   LIG    1       -2.295  -2.733   0.014  0.00  0.00    +0.430 A 
ATOM      6  S   LIG    1       -2.535  -4.486   0.013  0.00  0.00    +0.060 S 
ATOM      7  C   LIG    1       -4.352  -4.434   0.026  0.00  0.00    +0.160 C 
ATOM      8  C   LIG    1       -4.685  -2.943   0.031  0.00  0.00    +0.240 C 
ATOM      9  O   LIG    1       -4.539  -0.121   0.033  0.00  0.00    -0.520 OA
ATOM     10  N   LIG    1       -1.163  -2.039   0.002  0.00  0.00    -0.580 NA
ENDROOT
BRANCH   8  11
ATOM     11  C   LIG    1       -5.493  -2.629   1.263  0.00  0.00    +0.510 C 
ATOM     12  O   LIG    1       -5.065  -1.848   2.086  0.00  0.00    -0.500 OA
ATOM     13  N   LIG    1       -6.692  -3.216   1.450  0.00  0.00    -0.850 N 
ATOM     14  H   LIG    1       -7.213  -3.013   2.243  0.00  0.00    +0.410 HD
ATOM     15  H   LIG    1       -7.035  -3.840   0.792  0.00  0.00    +0.400 HD
ENDBRANCH   8  11
BRANCH   1  17
ATOM     16  C   LIG    1       -0.018   1.461   0.010  0.00  0.00    +0.320 C 
ATOM     17  N   LIG    1        0.002  -0.004   0.002  0.00  0.00    -0.560 N 
ATOM     18  C   LIG    1        1.281  -0.719  -0.014  0.00  0.00    +0.320 C 
ENDBRANCH   1  17
TORSDOF 2
ENDMDL
MODEL     1421
REMARK  Name = ZINC000000970510
REMARK                            x       y       z     vdW  Elec       q    Type
REMARK                         _______ _______ _______ _____ _____    ______ ____
ROOT
ATOM      1  C   LIG    1       -1.179  -0.707   0.009  0.00  0.00    +0.640 A 
ATOM      2  N   LIG    1       -2.338  -0.061   0.018  0.00  0.00    -0.630 NA
ATOM      3  C   LIG    1       -3.484  -0.731   0.025  0.00  0.00    +0.680 A 
ATOM      4  N   LIG    1       -3.495  -2.099   0.023  0.00  0.00    -0.550 N 
ATOM      5  C   LIG    1       -2.295  -2.733   0.014  0.00  0.00    +0.430 A 
ATOM      6  S   LIG    1       -2.535  -4.486   0.013  0.00  0.00    +0.060 S 
ATOM      7  C   LIG    1       -4.352  -4.434   0.026  0.00  0.00    +0.160 C 
ATOM      8  C   LIG    1       -4.685  -2.943   0.031  0.00  0.00    +0.240 C 
ATOM      9  O   LIG    1       -4.539  -0.121   0.033  0.00  0.00    -0.520 OA
ATOM     10  N   LIG    1       -1.163  -2.039   0.002  0.00  0.00    -0.580 NA
ENDROOT
BRANCH   8  11
ATOM     11  C   LIG    1       -5.511  -2.626  -1.190  0.00  0.00    +0.520 C 
ATOM     12  O   LIG    1       -5.094  -1.843  -2.017  0.00  0.00    -0.500 OA
ATOM     13  N   LIG    1       -6.712  -3.212  -1.361  0.00  0.00    -0.850 N 
ATOM     14  H   LIG    1       -7.244  -3.008  -2.147  0.00  0.00    +0.410 HD
ATOM     15  H   LIG    1       -7.045  -3.838  -0.700  0.00  0.00    +0.400 HD
ENDBRANCH   8  11
BRANCH   1  17
ATOM     16  C   LIG    1       -0.018   1.461   0.010  0.00  0.00    +0.320 C 
ATOM     17  N   LIG    1        0.002  -0.004   0.002  0.00  0.00    -0.560 N 
ATOM     18  C   LIG    1        1.281  -0.719  -0.014  0.00  0.00    +0.320 C 
ENDBRANCH   1  17
TORSDOF 2
ENDMDL
MODEL     1422
REMARK  Name = ZINC000019878214
REMARK                            x       y       z     vdW  Elec       q    Type
REMARK                         _______ _______ _______ _____ _____    ______ ____
ROOT
ATOM      1  C   LIG    1        0.633  -2.108   1.011  0.00  0.00    +0.190 C 
ATOM      2  O   LIG    1        1.383  -2.522  -0.133  0.00  0.00    -0.370 OA
ATOM      3  C   LIG    1        1.389  -3.934  -0.347  0.00  0.00    +0.340 C 
ATOM      4  C   LIG    1        2.028  -4.629   0.858  0.00  0.00    +0.140 C 
ATOM      5  C   LIG    1        1.252  -4.254   2.124  0.00  0.00    +0.190 C 
ATOM      6  C   LIG    1        1.241  -2.729   2.271  0.00  0.00    +0.170 C 
ENDROOT
BRANCH   5   7
ATOM      7  O   LIG    1        1.884  -4.840   3.264  0.00  0.00    -0.550 OA
ATOM      8  H   LIG    1        1.931  -5.806   3.234  0.00  0.00    +0.380 HD
ENDBRANCH   5   7
BRANCH   4   9
ATOM      9  O   LIG    1        3.387  -4.207   0.987  0.00  0.00    -0.540 OA
ATOM     10  H   LIG    1        3.936  -4.410   0.217  0.00  0.00    +0.380 HD
ENDBRANCH   4   9
BRANCH   3  11
ATOM     11  O   LIG    1        0.046  -4.398  -0.508  0.00  0.00    -0.570 OA
ATOM     12  H   LIG    1       -0.421  -3.998  -1.254  0.00  0.00    +0.390 HD
ENDBRANCH   3  11
BRANCH   6  13
ATOM     13  O   LIG    1        0.460  -2.364   3.410  0.00  0.00    -0.380 OA
ATOM     14  C   LIG    1        1.208  -2.280   4.625  0.00  0.00    +0.220 C 
ENDBRANCH   6  13
BRANCH   1  15
ATOM     15  C   LIG    1        0.673  -0.582   1.123  0.00  0.00    +0.210 C 
BRANCH  15  17
ATOM     16  C   LIG    1       -0.017   1.425   0.010  0.00  0.00    +0.200 C 
ATOM     17  O   LIG    1        0.002  -0.004   0.002  0.00  0.00    -0.390 OA
ENDBRANCH  15  17
ENDBRANCH   1  15
TORSDOF 6
ENDMDL
MODEL     1423
REMARK  Name = ZINC000000968614
REMARK                            x       y       z     vdW  Elec       q    Type
REMARK                         _______ _______ _______ _____ _____    ______ ____
ROOT
ATOM      1  C   LIG    1       -1.308   1.934   0.019  0.00  0.00    +0.160 A 
ATOM      2  C   LIG    1       -1.334   3.293   0.021  0.00  0.00    -0.040 A 
ATOM      3  C   LIG    1       -2.638   3.966   0.030  0.00  0.00    +0.550 A 
ATOM      4  N   LIG    1       -3.758   3.215   0.037  0.00  0.00    -0.650 N 
ATOM      5  H   LIG    1       -4.627   3.646   0.043  0.00  0.00    +0.440 HD
ATOM      6  C   LIG    1       -3.678   1.873   0.035  0.00  0.00    +0.710 A 
ATOM      7  O   LIG    1       -4.703   1.219   0.040  0.00  0.00    -0.530 OA
ATOM      8  O   LIG    1       -2.707   5.181   0.032  0.00  0.00    -0.490 OA
ATOM      9  N   LIG    1       -2.496   1.235   0.021  0.00  0.00    -0.620 N 
ATOM     10  H   LIG    1       -2.478   0.265   0.019  0.00  0.00    +0.450 HD
ENDROOT
BRANCH   1  12
ATOM     11  O   LIG    1        0.002  -0.004   0.002  0.00  0.00    -0.440 OA
ATOM     12  C   LIG    1       -0.014   1.210   0.009  0.00  0.00    +0.560 C 
ATOM     13  N   LIG    1        1.143   1.900   0.001  0.00  0.00    -0.620 N 
ATOM     14  H   LIG    1        1.130   2.870   0.007  0.00  0.00    +0.430 HD
BRANCH  13  15
ATOM     15  C   LIG    1        2.349   1.226  -0.014  0.00  0.00    +0.390 C 
ATOM     16  N   LIG    1        2.478  -0.051  -0.028  0.00  0.00    -0.520 NA
ATOM     17  C   LIG    1        3.798  -0.641  -0.043  0.00  0.00    +0.270 C 
ATOM     18  C   LIG    1        4.891   0.440  -0.041  0.00  0.00    +0.130 C 
ATOM     19  S   LIG    1        3.941   1.994  -0.025  0.00  0.00    -0.170 S 
ENDBRANCH  13  15
ENDBRANCH   1  12
TORSDOF 2
ENDMDL
MODEL     1424
REMARK  Name = ZINC000095933635
REMARK                            x       y       z     vdW  Elec       q    Type
REMARK                         _______ _______ _______ _____ _____    ______ ____
ROOT
ATOM      1  C   LIG    1       -2.141   1.568  -1.707  0.00  0.00    +0.080 C 
ENDROOT
BRANCH   1   2
ATOM      2  C   LIG    1       -0.687   2.021  -1.564  0.00  0.00    -0.230 C 
BRANCH   2   4
ATOM      3  O   LIG    1        0.002  -0.004   0.002  0.00  0.00    -0.840 OA
ATOM      4  S   LIG    1       -0.017   1.417   0.010  0.00  0.00    +1.250 S 
BRANCH   4   5
ATOM      5  C   LIG    1        1.685   2.045  -0.003  0.00  0.00    -0.250 C 
BRANCH   5   6
ATOM      6  C   LIG    1        2.397   1.613   1.280  0.00  0.00    +0.210 C 
BRANCH   6   7
ATOM      7  O   LIG    1        3.738   2.107   1.270  0.00  0.00    -0.570 OA
ATOM      8  H   LIG    1        4.250   1.871   2.055  0.00  0.00    +0.380 HD
ENDBRANCH   6   7
ENDBRANCH   5   6
ENDBRANCH   4   5
ENDBRANCH   2   4
ENDBRANCH   1   2
BRANCH   1   9
ATOM      9  C   LIG    1       -2.706   2.077  -3.034  0.00  0.00    -0.230 C 
BRANCH   9  10
ATOM     10  S   LIG    1       -4.430   1.540  -3.204  0.00  0.00    +1.250 S 
ATOM     11  O   LIG    1       -5.214   2.132  -2.178  0.00  0.00    -0.840 OA
BRANCH  10  12
ATOM     12  C   LIG    1       -4.917   2.228  -4.810  0.00  0.00    -0.250 C 
BRANCH  12  13
ATOM     13  C   LIG    1       -6.371   1.857  -5.105  0.00  0.00    +0.210 C 
BRANCH  13  14
ATOM     14  O   LIG    1       -6.754   2.399  -6.371  0.00  0.00    -0.570 OA
ATOM     15  H   LIG    1       -7.666   2.203  -6.623  0.00  0.00    +0.380 HD
ENDBRANCH  13  14
ENDBRANCH  12  13
ENDBRANCH  10  12
ENDBRANCH   9  10
ENDBRANCH   1   9
TORSDOF 10
ENDMDL
MODEL     1425
REMARK  Name = ZINC000003448560
REMARK                            x       y       z     vdW  Elec       q    Type
REMARK                         _______ _______ _______ _____ _____    ______ ____
ROOT
ATOM      1  N   LIG    1       -2.105  -0.148  -1.230  0.00  0.00    -0.570 N 
ATOM      2  C   LIG    1       -2.801   0.993  -1.427  0.00  0.00    +0.510 C 
ATOM      3  C   LIG    1       -3.289   0.924  -2.843  0.00  0.00    +0.510 C 
ATOM      4  N   LIG    1       -2.827  -0.250  -3.326  0.00  0.00    -0.560 N 
ATOM      5  O   LIG    1       -3.957   1.749  -3.431  0.00  0.00    -0.400 OA
ATOM      6  O   LIG    1       -2.991   1.884  -0.626  0.00  0.00    -0.400 OA
ATOM      7  C   LIG    1       -2.126  -0.869  -2.363  0.00  0.00    +0.720 C 
ATOM      8  O   LIG    1       -1.584  -1.948  -2.498  0.00  0.00    -0.480 OA
ENDROOT
BRANCH   1   9
ATOM      9  C   LIG    1       -1.433  -0.534   0.013  0.00  0.00    +0.330 C 
BRANCH   9  11
ATOM     10  C   LIG    1       -0.019   1.526   0.010  0.00  0.00    +0.020 C 
ATOM     11  C   LIG    1        0.002  -0.004   0.002  0.00  0.00    -0.040 C 
ATOM     12  C   LIG    1        0.742  -0.511   1.242  0.00  0.00    +0.040 C 
ENDBRANCH   9  11
ENDBRANCH   1   9
BRANCH   4  13
ATOM     13  C   LIG    1       -3.050  -0.760  -4.681  0.00  0.00    +0.380 C 
BRANCH  13  14
ATOM     14  C   LIG    1       -1.941  -0.288  -5.585  0.00  0.00    +0.500 C 
ATOM     15  O   LIG    1       -1.052   0.407  -5.141  0.00  0.00    -0.530 OA
ATOM     16  N   LIG    1       -1.937  -0.638  -6.886  0.00  0.00    -0.850 N 
ATOM     17  H   LIG    1       -1.223  -0.333  -7.468  0.00  0.00    +0.410 HD
ATOM     18  H   LIG    1       -2.649  -1.194  -7.241  0.00  0.00    +0.410 HD
ENDBRANCH  13  14
ENDBRANCH   4  13
TORSDOF 4
ENDMDL
MODEL     1426
REMARK  Name = ZINC000001842506
REMARK                            x       y       z     vdW  Elec       q    Type
REMARK                         _______ _______ _______ _____ _____    ______ ____
ROOT
ATOM      1  O   LIG    1        0.002  -0.004   0.002  0.00  0.00    -0.490 OA
ATOM      2  C   LIG    1       -0.014   1.214   0.009  0.00  0.00    +0.540 A 
ATOM      3  N   LIG    1       -1.188   1.878   0.029  0.00  0.00    -0.650 N 
ATOM      4  H   LIG    1       -2.022   1.384   0.038  0.00  0.00    +0.440 HD
ATOM      5  C   LIG    1       -1.206   3.224   0.037  0.00  0.00    +0.700 A 
ATOM      6  N   LIG    1       -0.062   3.932   0.024  0.00  0.00    -0.540 N 
ATOM      7  C   LIG    1        1.153   3.295   0.004  0.00  0.00    +0.320 A 
ATOM      8  O   LIG    1       -2.272   3.808   0.055  0.00  0.00    -0.520 OA
ATOM      9  C   LIG    1        1.199   1.946   0.001  0.00  0.00    -0.060 A 
ATOM     10  F   LIG    1        2.387   1.302  -0.018  0.00  0.00    -0.100 F 
ENDROOT
BRANCH   6  11
ATOM     11  C   LIG    1       -0.114   5.396   0.033  0.00  0.00    +0.520 C 
BRANCH  11  12
ATOM     12  O   LIG    1        0.236   5.877   1.333  0.00  0.00    -0.360 OA
BRANCH  12  13
ATOM     13  C   LIG    1        1.643   5.905   1.582  0.00  0.00    +0.180 C 
BRANCH  13  14
ATOM     14  C   LIG    1        1.900   6.434   2.995  0.00  0.00    +0.210 C 
BRANCH  14  15
ATOM     15  O   LIG    1        1.364   5.517   3.951  0.00  0.00    -0.570 OA
ATOM     16  H   LIG    1        1.491   5.789   4.871  0.00  0.00    +0.380 HD
ENDBRANCH  14  15
ENDBRANCH  13  14
ENDBRANCH  12  13
ENDBRANCH  11  12
ENDBRANCH   6  11
TORSDOF 5
ENDMDL
MODEL     1427
REMARK  Name = ZINC000216202722
REMARK                            x       y       z     vdW  Elec       q    Type
REMARK                         _______ _______ _______ _____ _____    ______ ____
ROOT
ATOM      1  C   LIG    1       -0.090  -4.658  -2.408  0.00  0.00    +0.180 C 
ENDROOT
BRANCH   1   2
ATOM      2  O   LIG    1       -0.858  -4.199  -1.294  0.00  0.00    -0.540 OA
ATOM      3  H   LIG    1       -0.516  -4.484  -0.436  0.00  0.00    +0.380 HD
ENDBRANCH   1   2
BRANCH   1   4
ATOM      4  C   LIG    1        1.341  -4.130  -2.293  0.00  0.00    +0.190 C 
BRANCH   4   7
ATOM      5  N   LIG    1        0.738  -1.962  -1.265  0.00  0.00    -0.720 N 
ATOM      6  H   LIG    1        0.332  -2.457  -0.536  0.00  0.00    +0.400 HD
ATOM      7  C   LIG    1        1.321  -2.623  -2.285  0.00  0.00    +0.490 C 
ATOM      8  O   LIG    1        1.829  -2.004  -3.196  0.00  0.00    -0.530 OA
BRANCH   5   9
ATOM      9  C   LIG    1        0.718  -0.497  -1.257  0.00  0.00    +0.260 C 
BRANCH   9  11
ATOM     10  C   LIG    1       -0.019   1.526   0.010  0.00  0.00    +0.030 C 
ATOM     11  C   LIG    1        0.002  -0.004   0.002  0.00  0.00    +0.000 C 
ENDBRANCH   9  11
ENDBRANCH   5   9
ENDBRANCH   4   7
BRANCH   4  12
ATOM     12  O   LIG    1        2.110  -4.589  -3.407  0.00  0.00    -0.510 OA
ATOM     13  H   LIG    1        1.768  -4.304  -4.265  0.00  0.00    +0.380 HD
ENDBRANCH   4  12
ENDBRANCH   1   4
BRANCH   1  14
ATOM     14  C   LIG    1       -0.069  -6.188  -2.416  0.00  0.00    +0.160 C 
BRANCH  14  15
ATOM     15  O   LIG    1        0.700  -6.648  -3.530  0.00  0.00    -0.530 OA
ATOM     16  H   LIG    1        0.358  -6.363  -4.388  0.00  0.00    +0.370 HD
ENDBRANCH  14  15
BRANCH  14  17
ATOM     17  C   LIG    1       -1.500  -6.717  -2.531  0.00  0.00    +0.200 C 
BRANCH  17  18
ATOM     18  O   LIG    1       -2.127  -6.149  -3.683  0.00  0.00    -0.540 OA
ATOM     19  H   LIG    1       -1.679  -6.354  -4.516  0.00  0.00    +0.370 HD
ENDBRANCH  17  18
BRANCH  17  20
ATOM     20  C   LIG    1       -1.471  -8.241  -2.665  0.00  0.00    +0.170 C 
BRANCH  20  21
ATOM     21  O   LIG    1       -2.808  -8.745  -2.655  0.00  0.00    -0.570 OA
ATOM     22  H   LIG    1       -2.867  -9.707  -2.737  0.00  0.00    +0.380 HD
ENDBRANCH  20  21
ENDBRANCH  17  20
ENDBRANCH  14  17
ENDBRANCH   1  14
TORSDOF 12
ENDMDL
MODEL     1428
REMARK  Name = ZINC000002504612
REMARK                            x       y       z     vdW  Elec       q    Type
REMARK                         _______ _______ _______ _____ _____    ______ ____
ROOT
ATOM      1  CA  GLN A  2        0.738  -0.999  -3.621  0.00  0.00    +0.160 C 
ENDROOT
BRANCH   1   3
ATOM      2  C   ALA A  1        0.707  -0.490  -1.238  0.00  0.00    +0.490 C 
ATOM      3  N   GLN A  2        0.053  -0.526  -2.415  0.00  0.00    -0.660 N 
ATOM      4  H   GLN A  2       -0.873  -0.239  -2.465  0.00  0.00    +0.400 HD
ATOM      5  O   ALA A  1        1.864  -0.849  -1.176  0.00  0.00    -0.540 OA
BRANCH   2   7
ATOM      6  CB  ALA A  1       -0.019   1.526   0.010  0.00  0.00    +0.110 C 
ATOM      7  CA  ALA A  1        0.002  -0.004   0.002  0.00  0.00    +0.170 C 
BRANCH   7   8
ATOM      8  N   ALA A  1        0.713  -0.491   1.192  0.00  0.00    -0.620 N 
ATOM      9  H1  ALA A  1        0.726  -1.500   1.187  0.00  0.00    +0.440 HD
ATOM     10  H2  ALA A  1        0.240  -0.165   2.022  0.00  0.00    +0.440 HD
ATOM     11  H3  ALA A  1        1.659  -0.141   1.185  0.00  0.00    +0.440 HD
ENDBRANCH   7   8
ENDBRANCH   2   7
ENDBRANCH   1   3
BRANCH   1  12
ATOM     12  C   GLN A  2        1.501   0.142  -4.244  0.00  0.00    +0.490 C 
ATOM     13  OXT GLN A  2        2.145  -0.041  -5.263  0.00  0.00    -0.680 OA
ATOM     14  O   GLN A  2        1.474   1.247  -3.730  0.00  0.00    -0.690 OA
ENDBRANCH   1  12
BRANCH   1  15
ATOM     15  CB  GLN A  2       -0.292  -1.529  -4.619  0.00  0.00    +0.070 C 
BRANCH  15  16
ATOM     16  CG  GLN A  2       -0.980  -2.764  -4.034  0.00  0.00    +0.030 C 
BRANCH  16  17
ATOM     17  CD  GLN A  2       -1.996  -3.287  -5.018  0.00  0.00    +0.510 C 
ATOM     18  OE1 GLN A  2       -2.154  -2.726  -6.081  0.00  0.00    -0.530 OA
ATOM     19  NE2 GLN A  2       -2.728  -4.377  -4.715  0.00  0.00    -0.860 N 
ATOM     20 HE21 GLN A  2       -3.381  -4.713  -5.348  0.00  0.00    +0.400 HD
ATOM     21 HE22 GLN A  2       -2.602  -4.825  -3.864  0.00  0.00    +0.400 HD
ENDBRANCH  16  17
ENDBRANCH  15  16
ENDBRANCH   1  15
TORSDOF 7
ENDMDL
MODEL     1429
REMARK  Name = ZINC000002504639
REMARK                            x       y       z     vdW  Elec       q    Type
REMARK                         _______ _______ _______ _____ _____    ______ ____
ROOT
ATOM      1  C   LIG    1       -2.442  -2.683  -0.599  0.00  0.00    +0.210 C 
ENDROOT
BRANCH   1   2
ATOM      2  O   LIG    1       -3.545  -2.226   0.187  0.00  0.00    -0.520 OA
ATOM      3  H   LIG    1       -3.620  -1.263   0.237  0.00  0.00    +0.370 HD
ENDBRANCH   1   2
BRANCH   1   4
ATOM      4  CA  LIG    1       -1.136  -2.159   0.001  0.00  0.00    +0.230 C 
BRANCH   4   7
ATOM      5  C   LIG    1       -0.018   1.503   0.010  0.00  0.00    +0.090 C 
ATOM      6  C   LIG    1        0.002  -0.004   0.002  0.00  0.00    +0.510 C 
ATOM      7  N   LIG    1       -1.156  -0.694   0.009  0.00  0.00    -0.720 N 
ATOM      8  H   LIG    1       -2.002  -0.220   0.020  0.00  0.00    +0.400 HD
ATOM      9  O   LIG    1        1.060  -0.596  -0.011  0.00  0.00    -0.540 OA
ENDBRANCH   4   7
BRANCH   4  10
ATOM     10  C   LIG    1       -0.990  -2.675   1.434  0.00  0.00    +0.170 C 
BRANCH  10  11
ATOM     11  O   LIG    1       -2.148  -2.316   2.190  0.00  0.00    -0.550 OA
ATOM     12  H   LIG    1       -2.124  -2.612   3.111  0.00  0.00    +0.380 HD
ENDBRANCH  10  11
ENDBRANCH   4  10
ENDBRANCH   1   4
BRANCH   1  13
ATOM     13  C   LIG    1       -2.588  -2.167  -2.032  0.00  0.00    +0.150 C 
BRANCH  13  14
ATOM     14  O   LIG    1       -1.486  -2.624  -2.817  0.00  0.00    -0.550 OA
ATOM     15  H   LIG    1       -1.411  -3.587  -2.867  0.00  0.00    +0.380 HD
ENDBRANCH  13  14
BRANCH  13  16
ATOM     16  C   LIG    1       -3.894  -2.692  -2.632  0.00  0.00    +0.200 C 
BRANCH  16  17
ATOM     17  O   LIG    1       -3.925  -4.117  -2.533  0.00  0.00    -0.540 OA
ATOM     18  H   LIG    1       -3.201  -4.559  -2.997  0.00  0.00    +0.370 HD
ENDBRANCH  16  17
BRANCH  16  19
ATOM     19  C   LIG    1       -3.981  -2.280  -4.103  0.00  0.00    +0.160 C 
BRANCH  19  20
ATOM     20  O   LIG    1       -5.251  -2.668  -4.632  0.00  0.00    -0.570 OA
ATOM     21  H   LIG    1       -5.376  -2.438  -5.562  0.00  0.00    +0.380 HD
ENDBRANCH  19  20
ENDBRANCH  16  19
ENDBRANCH  13  16
ENDBRANCH   1  13
TORSDOF 11
ENDMDL
MODEL     1430
REMARK  Name = ZINC000002470105
REMARK                            x       y       z     vdW  Elec       q    Type
REMARK                         _______ _______ _______ _____ _____    ______ ____
ROOT
ATOM      1  N   LIG    1        4.207  -0.468  -2.906  0.00  0.00    -0.710 N 
ATOM      2  H   LIG    1        4.617   0.178  -2.310  0.00  0.00    +0.410 HD
ATOM      3  C   LIG    1        4.934  -1.038  -3.887  0.00  0.00    +0.620 C 
ATOM      4  O   LIG    1        4.420  -1.847  -4.634  0.00  0.00    -0.520 OA
ENDROOT
BRANCH   3   5
ATOM      5  C   LIG    1        6.361  -0.677  -4.056  0.00  0.00    -0.090 A 
ATOM      6  N   LIG    1        7.086   0.164  -3.351  0.00  0.00    -0.310 NA
ATOM      7  O   LIG    1        8.211   0.190  -3.793  0.00  0.00    +0.350 OA
ATOM      8  N   LIG    1        8.426  -0.525  -4.743  0.00  0.00    -0.410 NA
ATOM      9  C   LIG    1        7.331  -1.177  -5.056  0.00  0.00    +0.330 A 
BRANCH   9  10
ATOM     10  N   LIG    1        7.130  -2.098  -6.075  0.00  0.00    -0.800 N 
ATOM     11  H   LIG    1        6.260  -2.509  -6.194  0.00  0.00    +0.430 HD
ATOM     12  H   LIG    1        7.861  -2.332  -6.669  0.00  0.00    +0.420 HD
ENDBRANCH   9  10
ENDBRANCH   3   5
BRANCH   1  13
ATOM     13  C   LIG    1        2.795  -0.825  -2.739  0.00  0.00    +0.280 C 
BRANCH  13  14
ATOM     14  C   LIG    1        2.207  -0.042  -1.563  0.00  0.00    +0.260 C 
BRANCH  14  15
ATOM     15  N   LIG    1        0.796  -0.399  -1.397  0.00  0.00    -1.120 NA
ATOM     16  H   LIG    1        0.327  -0.866  -2.105  0.00  0.00    +0.420 HD
BRANCH  15  18
ATOM     17  C   LIG    1       -0.022   1.810   0.012  0.00  0.00    -0.280 C 
ATOM     18  S   LIG    1        0.002  -0.004   0.002  0.00  0.00    +2.620 S 
ATOM     19  O   LIG    1       -1.309  -0.519  -0.182  0.00  0.00    -0.950 OA
ATOM     20  O   LIG    1        0.845  -0.497   1.035  0.00  0.00    -0.950 OA
ENDBRANCH  15  18
ENDBRANCH  14  15
ENDBRANCH  13  14
ENDBRANCH   1  13
TORSDOF 6
ENDMDL
MODEL     1431
REMARK  Name = ZINC000002115084
REMARK                            x       y       z     vdW  Elec       q    Type
REMARK                         _______ _______ _______ _____ _____    ______ ____
ROOT
ATOM      1  C   LIG    1       -0.018   1.461   0.010  0.00  0.00    +0.330 C 
ATOM      2  N   LIG    1        0.002  -0.004   0.002  0.00  0.00    -0.640 N 
ATOM      3  C   LIG    1        0.008  -0.772  -1.095  0.00  0.00    +0.700 C 
ATOM      4  N   LIG    1        0.027  -2.086  -0.838  0.00  0.00    -0.630 N 
ATOM      5  C   LIG    1        0.036  -2.298   0.617  0.00  0.00    +0.480 C 
ATOM      6  N   LIG    1       -1.247  -2.876   1.040  0.00  0.00    -0.740 N 
ATOM      7  H   LIG    1       -1.550  -3.775   0.841  0.00  0.00    +0.430 HD
ATOM      8  C   LIG    1       -1.933  -1.965   1.743  0.00  0.00    +0.710 C 
ATOM      9  N   LIG    1       -1.299  -0.794   1.880  0.00  0.00    -0.740 N 
ATOM     10  H   LIG    1       -1.644  -0.022   2.356  0.00  0.00    +0.430 HD
ATOM     11  O   LIG    1       -3.033  -2.183   2.215  0.00  0.00    -0.570 OA
ATOM     12  O   LIG    1       -0.003  -0.318  -2.222  0.00  0.00    -0.570 OA
ATOM     13  C   LIG    1        0.025  -0.860   1.196  0.00  0.00    +0.480 C 
ENDROOT
BRANCH   4  14
ATOM     14  C   LIG    1        0.038  -3.147  -1.848  0.00  0.00    +0.340 C 
BRANCH  14  15
ATOM     15  C   LIG    1        1.484  -3.496  -2.205  0.00  0.00    +0.170 C 
BRANCH  15  16
ATOM     16  O   LIG    1        2.135  -4.055  -1.063  0.00  0.00    -0.570 OA
ATOM     17  H   LIG    1        3.058  -4.301  -1.217  0.00  0.00    +0.380 HD
ENDBRANCH  15  16
ENDBRANCH  14  15
ENDBRANCH   4  14
TORSDOF 3
ENDMDL
MODEL     1432
REMARK  Name = ZINC000004728716
REMARK                            x       y       z     vdW  Elec       q    Type
REMARK                         _______ _______ _______ _____ _____    ______ ____
ROOT
ATOM      1  C   LIG    1       -0.018   1.461   0.010  0.00  0.00    +0.330 C 
ATOM      2  N   LIG    1        0.002  -0.004   0.002  0.00  0.00    -0.640 N 
ATOM      3  C   LIG    1        0.008  -0.774  -1.094  0.00  0.00    +0.700 C 
ATOM      4  N   LIG    1        0.027  -2.088  -0.834  0.00  0.00    -0.640 N 
ATOM      5  C   LIG    1        0.036  -2.293   0.622  0.00  0.00    +0.490 C 
ATOM      6  C   LIG    1        0.037  -3.152  -1.841  0.00  0.00    +0.340 C 
ATOM      7  O   LIG    1       -0.003  -0.322  -2.222  0.00  0.00    -0.570 OA
ATOM      8  C   LIG    1        0.025  -0.863   1.196  0.00  0.00    +0.490 C 
ENDROOT
BRANCH   5   9
ATOM      9  N   LIG    1       -1.155  -3.034   1.044  0.00  0.00    -0.740 N 
ATOM     10  H   LIG    1       -2.020  -2.595   1.058  0.00  0.00    +0.400 HD
ATOM     11  C   LIG    1       -1.050  -4.325   1.414  0.00  0.00    +0.710 C 
ATOM     12  O   LIG    1        0.034  -4.876   1.396  0.00  0.00    -0.590 OA
ATOM     13  N   LIG    1       -2.145  -5.007   1.802  0.00  0.00    -0.860 N 
ATOM     14  H   LIG    1       -2.069  -5.937   2.068  0.00  0.00    +0.420 HD
ATOM     15  H   LIG    1       -3.010  -4.568   1.816  0.00  0.00    +0.400 HD
ENDBRANCH   5   9
BRANCH   8  16
ATOM     16  N   LIG    1        1.230  -0.620   1.994  0.00  0.00    -0.740 N 
ATOM     17  H   LIG    1        2.097  -0.894   1.658  0.00  0.00    +0.400 HD
ATOM     18  C   LIG    1        1.132  -0.014   3.194  0.00  0.00    +0.710 C 
ATOM     19  O   LIG    1        0.044   0.330   3.615  0.00  0.00    -0.590 OA
ATOM     20  N   LIG    1        2.240   0.209   3.928  0.00  0.00    -0.860 N 
ATOM     21  H   LIG    1        2.170   0.645   4.792  0.00  0.00    +0.420 HD
ATOM     22  H   LIG    1        3.108  -0.066   3.592  0.00  0.00    +0.400 HD
ENDBRANCH   8  16
TORSDOF 2
ENDMDL
MODEL     1433
REMARK  Name = ZINC000003882071
REMARK                            x       y       z     vdW  Elec       q    Type
REMARK                         _______ _______ _______ _____ _____    ______ ____
ROOT
ATOM      1  O   LIG    1        0.002  -0.004   0.002  0.00  0.00    -0.530 OA
ATOM      2  C   LIG    1       -0.014   1.212   0.009  0.00  0.00    +0.720 A 
ATOM      3  N   LIG    1       -1.199   1.852   0.029  0.00  0.00    -0.610 N 
ATOM      4  H   LIG    1       -2.024   1.343   0.038  0.00  0.00    +0.440 HD
ATOM      5  C   LIG    1       -1.240   3.237   0.037  0.00  0.00    +0.310 A 
ATOM      6  C   LIG    1       -0.044   3.943   0.024  0.00  0.00    -0.140 A 
ATOM      7  N   LIG    1       -0.386   5.281   0.035  0.00  0.00    -0.400 N 
ATOM      8  C   LIG    1       -1.731   5.344   0.054  0.00  0.00    +0.500 A 
ATOM      9  C   LIG    1        1.175   3.232   0.003  0.00  0.00    +0.610 A 
ATOM     10  O   LIG    1        2.236   3.829  -0.010  0.00  0.00    -0.520 OA
ATOM     11  N   LIG    1       -2.229   4.133   0.055  0.00  0.00    -0.500 NA
ATOM     12  N   LIG    1        1.150   1.883   0.001  0.00  0.00    -0.650 N 
ATOM     13  H   LIG    1        1.986   1.390  -0.013  0.00  0.00    +0.440 HD
ENDROOT
BRANCH   7  14
ATOM     14  C   LIG    1        0.540   6.417   0.028  0.00  0.00    +0.300 C 
BRANCH  14  15
ATOM     15  C   LIG    1        0.939   6.740  -1.413  0.00  0.00    +0.200 C 
BRANCH  15  16
ATOM     16  O   LIG    1        1.679   5.646  -1.959  0.00  0.00    -0.540 OA
ATOM     17  H   LIG    1        2.492   5.441  -1.477  0.00  0.00    +0.380 HD
ENDBRANCH  15  16
BRANCH  15  18
ATOM     18  C   LIG    1        1.805   8.001  -1.432  0.00  0.00    +0.170 C 
BRANCH  18  19
ATOM     19  O   LIG    1        2.081   8.369  -2.785  0.00  0.00    -0.560 OA
ATOM     20  H   LIG    1        2.627   9.163  -2.873  0.00  0.00    +0.380 HD
ENDBRANCH  18  19
ENDBRANCH  15  18
ENDBRANCH  14  15
ENDBRANCH   7  14
TORSDOF 5
ENDMDL
MODEL     1434
REMARK  Name = ZINC000003830846
REMARK                            x       y       z     vdW  Elec       q    Type
REMARK                         _______ _______ _______ _____ _____    ______ ____
ROOT
ATOM      1  O   LIG    1        0.002  -0.004   0.002  0.00  0.00    -0.490 OA
ATOM      2  C   LIG    1       -0.014   1.214   0.009  0.00  0.00    +0.540 A 
ATOM      3  N   LIG    1       -1.188   1.878   0.029  0.00  0.00    -0.650 N 
ATOM      4  H   LIG    1       -2.022   1.384   0.038  0.00  0.00    +0.440 HD
ATOM      5  C   LIG    1       -1.206   3.224   0.037  0.00  0.00    +0.680 A 
ATOM      6  N   LIG    1       -0.062   3.932   0.024  0.00  0.00    -0.530 N 
ATOM      7  C   LIG    1        1.153   3.295   0.004  0.00  0.00    +0.340 A 
ATOM      8  O   LIG    1       -2.272   3.808   0.055  0.00  0.00    -0.480 OA
ATOM      9  C   LIG    1        1.199   1.946   0.001  0.00  0.00    -0.070 A 
ATOM     10  F   LIG    1        2.387   1.302  -0.018  0.00  0.00    -0.100 F 
ENDROOT
BRANCH   6  11
ATOM     11  C1* LIG    1       -0.114   5.396   0.033  0.00  0.00    +0.410 C 
ATOM     12  C2* LIG    1        0.562   5.958   1.310  0.00  0.00    +0.000 C 
ATOM     13  C3* LIG    1       -0.125   7.337   1.460  0.00  0.00    +0.170 C 
ATOM     14  C4* LIG    1       -1.428   7.200   0.648  0.00  0.00    +0.180 C 
ATOM     15  O4* LIG    1       -1.478   5.855   0.140  0.00  0.00    -0.310 OA
BRANCH  13  16
ATOM     16  O3* LIG    1       -0.414   7.606   2.833  0.00  0.00    -0.550 OA
ATOM     17  H3* LIG    1        0.369   7.645   3.399  0.00  0.00    +0.390 HD
ENDBRANCH  13  16
BRANCH  14  18
ATOM     18  C5* LIG    1       -2.634   7.465   1.552  0.00  0.00    +0.220 C 
BRANCH  18  19
ATOM     19  O5* LIG    1       -3.829   7.451   0.768  0.00  0.00    -0.570 OA
ATOM     20  H5* LIG    1       -4.635   7.612   1.277  0.00  0.00    +0.380 HD
ENDBRANCH  18  19
ENDBRANCH  14  18
ENDBRANCH   6  11
TORSDOF 4
ENDMDL
MODEL     1435
REMARK  Name = ZINC000003869837
REMARK                            x       y       z     vdW  Elec       q    Type
REMARK                         _______ _______ _______ _____ _____    ______ ____
ROOT
ATOM      1  C4    C A  1        0.002  -0.004   0.002  0.00  0.00    +0.500 A 
ATOM      2  N3    C A  1       -1.135  -0.687   0.004  0.00  0.00    -0.620 NA
ATOM      3  C2    C A  1       -1.129  -2.018  -0.004  0.00  0.00    +0.660 A 
ATOM      4  N1    C A  1        0.026  -2.708  -0.014  0.00  0.00    -0.540 N 
ATOM      5  C6    C A  1        1.220  -2.050  -0.016  0.00  0.00    +0.380 A 
ATOM      6  O2    C A  1       -2.189  -2.623  -0.003  0.00  0.00    -0.530 OA
ATOM      7  C5    C A  1        1.230  -0.697  -0.013  0.00  0.00    -0.150 A 
ENDROOT
BRANCH   4   8
ATOM      8  C1*   C A  1        0.001  -4.173  -0.023  0.00  0.00    +0.410 C 
ATOM      9  C2*   C A  1       -0.648  -4.707   1.279  0.00  0.00    +0.020 C 
ATOM     10  C3*   C A  1       -1.153  -6.098   0.807  0.00  0.00    +0.170 C 
ATOM     11  C4*   C A  1       -1.544  -5.824  -0.661  0.00  0.00    +0.210 C 
ATOM     12  O4*   C A  1       -0.838  -4.650  -1.086  0.00  0.00    -0.350 OA
BRANCH  10  13
ATOM     13  O3*   C A  1       -0.110  -7.071   0.886  0.00  0.00    -0.560 OA
ATOM     14  H3*   C A  1        0.229  -7.213   1.781  0.00  0.00    +0.390 HD
ENDBRANCH  10  13
BRANCH  11  15
ATOM     15  C5*   C A  1       -1.146  -7.014  -1.536  0.00  0.00    +0.200 C 
BRANCH  15  16
ATOM     16  O5*   C A  1       -1.615  -6.804  -2.869  0.00  0.00    -0.570 OA
ATOM     17  H5*   C A  1       -1.397  -7.521  -3.480  0.00  0.00    +0.380 HD
ENDBRANCH  15  16
ENDBRANCH  11  15
ENDBRANCH   4   8
BRANCH   1  18
ATOM     18  N4    C A  1       -0.017   1.371   0.010  0.00  0.00    -0.820 N 
ATOM     19  H41   C A  1       -0.863   1.845   0.016  0.00  0.00    +0.410 HD
ATOM     20  H42   C A  1        0.817   1.868   0.004  0.00  0.00    +0.410 HD
ENDBRANCH   1  18
TORSDOF 5
ENDMDL
MODEL     1436
REMARK  Name = ZINC000000501120
REMARK                            x       y       z     vdW  Elec       q    Type
REMARK                         _______ _______ _______ _____ _____    ______ ____
ROOT
ATOM      1  C   LIG    1       -0.018   1.461   0.010  0.00  0.00    +0.370 C 
ATOM      2  N   LIG    1        0.002  -0.004   0.002  0.00  0.00    -0.540 N 
ATOM      3  C   LIG    1       -1.103  -0.776   0.003  0.00  0.00    +0.520 C 
ATOM      4  C   LIG    1       -0.602  -2.207  -0.008  0.00  0.00    +0.220 C 
ATOM      5  N   LIG    1        0.864  -2.061  -0.015  0.00  0.00    -0.660 N 
ATOM      6  H   LIG    1        1.517  -2.778  -0.022  0.00  0.00    +0.450 HD
ATOM      7  O   LIG    1       -2.256  -0.404   0.011  0.00  0.00    -0.440 OA
ATOM      8  C   LIG    1        1.119  -0.741  -0.013  0.00  0.00    +0.540 C 
ATOM      9  S   LIG    1        2.697  -0.076  -0.019  0.00  0.00    -0.550 S 
ENDROOT
BRANCH   4  10
ATOM     10  C   LIG    1       -1.080  -2.934  -1.266  0.00  0.00    +0.100 C 
BRANCH  10  11
ATOM     11  C   LIG    1       -0.668  -4.406  -1.192  0.00  0.00    +0.070 C 
BRANCH  11  12
ATOM     12  C   LIG    1       -1.138  -5.123  -2.432  0.00  0.00    +0.520 C 
ATOM     13  O   LIG    1       -1.744  -4.516  -3.290  0.00  0.00    -0.540 OA
ATOM     14  N   LIG    1       -0.886  -6.438  -2.587  0.00  0.00    -0.850 N 
ATOM     15  H   LIG    1       -1.189  -6.899  -3.384  0.00  0.00    +0.410 HD
ATOM     16  H   LIG    1       -0.402  -6.923  -1.900  0.00  0.00    +0.400 HD
ENDBRANCH  11  12
ENDBRANCH  10  11
ENDBRANCH   4  10
TORSDOF 3
ENDMDL
MODEL     1437
REMARK  Name = ZINC000105455193
REMARK                            x       y       z     vdW  Elec       q    Type
REMARK                         _______ _______ _______ _____ _____    ______ ____
ROOT
ATOM      1  C1* LIG    1        0.139  -4.130  -0.024  0.00  0.00    +0.450 C 
ATOM      2  O4* LIG    1        0.544  -4.620   1.266  0.00  0.00    -0.350 OA
ATOM      3  C4* LIG    1        1.310  -5.822   1.039  0.00  0.00    +0.190 C 
ATOM      4  C3* LIG    1        2.161  -5.479  -0.210  0.00  0.00    +0.140 C 
ATOM      5  C2* LIG    1        1.175  -4.627  -1.051  0.00  0.00    +0.130 C 
ENDROOT
BRANCH   1   9
ATOM      6  C   LIG    1        0.002  -0.004   0.002  0.00  0.00    +0.470 A 
ATOM      7  N   LIG    1       -1.131  -0.697   0.004  0.00  0.00    -0.580 NA
ATOM      8  C   LIG    1       -1.076  -2.031  -0.004  0.00  0.00    +0.630 A 
ATOM      9  N   LIG    1        0.110  -2.666  -0.014  0.00  0.00    -0.380 N 
ATOM     10  N   LIG    1        1.219  -2.014  -0.016  0.00  0.00    -0.150 NA
ATOM     11  O   LIG    1       -2.110  -2.680  -0.003  0.00  0.00    -0.520 OA
ATOM     12  C   LIG    1        1.229  -0.709  -0.013  0.00  0.00    +0.170 A 
BRANCH   6  13
ATOM     13  N   LIG    1       -0.017   1.371   0.010  0.00  0.00    -0.800 N 
ATOM     14  H   LIG    1       -0.863   1.845   0.016  0.00  0.00    +0.420 HD
ATOM     15  H   LIG    1        0.817   1.867   0.004  0.00  0.00    +0.420 HD
ENDBRANCH   6  13
ENDBRANCH   1   9
BRANCH   4  16
ATOM     16  O3* LIG    1        3.315  -4.717   0.153  0.00  0.00    -0.540 OA
ATOM     17  H3* LIG    1        3.879  -4.478  -0.595  0.00  0.00    +0.380 HD
ENDBRANCH   4  16
BRANCH   5  18
ATOM     18  O2* LIG    1        0.549  -5.431  -2.053  0.00  0.00    -0.550 OA
ATOM     19  H2* LIG    1        1.166  -5.816  -2.691  0.00  0.00    +0.390 HD
ENDBRANCH   5  18
BRANCH   3  20
ATOM     20  C5* LIG    1        2.208  -6.124   2.241  0.00  0.00    +0.220 C 
BRANCH  20  21
ATOM     21  O5* LIG    1        1.397  -6.450   3.371  0.00  0.00    -0.570 OA
ATOM     22  H5* LIG    1        1.900  -6.654   4.171  0.00  0.00    +0.380 HD
ENDBRANCH  20  21
ENDBRANCH   3  20
TORSDOF 6
ENDMDL
MODEL     1438
REMARK  Name = ZINC000105455189
REMARK                            x       y       z     vdW  Elec       q    Type
REMARK                         _______ _______ _______ _____ _____    ______ ____
ROOT
ATOM      1  C1* LIG    1        0.139  -4.130  -0.024  0.00  0.00    +0.450 C 
ATOM      2  O4* LIG    1        0.573  -4.633   1.259  0.00  0.00    -0.350 OA
ATOM      3  C4* LIG    1        1.036  -5.977   1.004  0.00  0.00    +0.190 C 
ATOM      4  C3* LIG    1        1.802  -5.883  -0.334  0.00  0.00    +0.140 C 
ATOM      5  C2* LIG    1        1.196  -4.641  -1.028  0.00  0.00    +0.130 C 
ENDROOT
BRANCH   1   9
ATOM      6  C   LIG    1        0.002  -0.004   0.002  0.00  0.00    +0.470 A 
ATOM      7  N   LIG    1       -1.131  -0.697   0.004  0.00  0.00    -0.590 NA
ATOM      8  C   LIG    1       -1.076  -2.031  -0.004  0.00  0.00    +0.630 A 
ATOM      9  N   LIG    1        0.110  -2.666  -0.014  0.00  0.00    -0.370 N 
ATOM     10  N   LIG    1        1.219  -2.014  -0.016  0.00  0.00    -0.090 NA
ATOM     11  O   LIG    1       -2.110  -2.680  -0.003  0.00  0.00    -0.530 OA
ATOM     12  C   LIG    1        1.229  -0.709  -0.013  0.00  0.00    +0.150 A 
BRANCH   6  13
ATOM     13  N   LIG    1       -0.017   1.371   0.010  0.00  0.00    -0.800 N 
ATOM     14  H   LIG    1       -0.863   1.845   0.016  0.00  0.00    +0.420 HD
ATOM     15  H   LIG    1        0.817   1.867   0.004  0.00  0.00    +0.420 HD
ENDBRANCH   6  13
ENDBRANCH   1   9
BRANCH   4  16
ATOM     16  O3* LIG    1        3.200  -5.700  -0.100  0.00  0.00    -0.530 OA
ATOM     17  H3* LIG    1        3.729  -5.635  -0.907  0.00  0.00    +0.380 HD
ENDBRANCH   4  16
BRANCH   5  18
ATOM     18  O2* LIG    1        2.202  -3.649  -1.246  0.00  0.00    -0.510 OA
ATOM     19  H2* LIG    1        2.923  -3.939  -1.821  0.00  0.00    +0.370 HD
ENDBRANCH   5  18
BRANCH   3  20
ATOM     20  C5* LIG    1        1.971  -6.439   2.124  0.00  0.00    +0.230 C 
BRANCH  20  21
ATOM     21  O5* LIG    1        1.232  -6.561   3.341  0.00  0.00    -0.570 OA
ATOM     22  H5* LIG    1        1.762  -6.851   4.096  0.00  0.00    +0.380 HD
ENDBRANCH  20  21
ENDBRANCH   3  20
TORSDOF 6
ENDMDL
MODEL     1439
REMARK  Name = ZINC000005248217
REMARK                            x       y       z     vdW  Elec       q    Type
REMARK                         _______ _______ _______ _____ _____    ______ ____
ROOT
ATOM      1  C   LIG    1       -0.018   1.461   0.010  0.00  0.00    +0.360 C 
ATOM      2  N   LIG    1        0.002  -0.004   0.002  0.00  0.00    -0.570 N 
ATOM      3  C   LIG    1        0.009  -0.831  -1.088  0.00  0.00    +0.560 C 
ATOM      4  N   LIG    1        0.324  -2.122  -0.767  0.00  0.00    -0.670 N 
ATOM      5  H   LIG    1        0.205  -2.911  -1.319  0.00  0.00    +0.450 HD
ATOM      6  C   LIG    1        0.872  -2.063   0.569  0.00  0.00    +0.200 C 
ATOM      7  C   LIG    1        0.668  -3.170   1.593  0.00  0.00    -0.270 C 
ATOM      8  S   LIG    1        0.969  -2.244   3.163  0.00  0.00    +2.400 S 
ATOM      9  C   LIG    1        0.540  -0.575   2.508  0.00  0.00    -0.270 C 
ATOM     10  O   LIG    1        2.354  -2.290   3.480  0.00  0.00    -0.910 OA
ATOM     11  O   LIG    1        0.007  -2.633   4.133  0.00  0.00    -0.910 OA
ATOM     12  S   LIG    1       -0.339  -0.307  -2.680  0.00  0.00    -0.570 S 
ATOM     13  C   LIG    1        0.025  -0.882   1.133  0.00  0.00    +0.190 C 
ENDROOT
TORSDOF 0
ENDMDL
MODEL     1440
REMARK  Name = ZINC000002545128
REMARK                            x       y       z     vdW  Elec       q    Type
REMARK                         _______ _______ _______ _____ _____    ______ ____
ROOT
ATOM      1  CA  ALA A  2       -3.499  -1.070  -1.120  0.00  0.00    +0.240 C 
ATOM      2  CB  ALA A  2       -4.457   0.059  -0.731  0.00  0.00    +0.070 C 
ENDROOT
BRANCH   1   4
ATOM      3  C   ALA A  1       -1.412  -0.526   0.013  0.00  0.00    +0.500 C 
ATOM      4  N   ALA A  2       -2.125  -0.563  -1.130  0.00  0.00    -0.680 N 
ATOM      5  H   ALA A  2       -1.728  -0.253  -1.960  0.00  0.00    +0.420 HD
ATOM      6  O   ALA A  1       -1.908  -0.912   1.050  0.00  0.00    -0.530 OA
BRANCH   3   8
ATOM      7  CB  ALA A  1       -0.019   1.526   0.010  0.00  0.00    +0.120 C 
ATOM      8  CA  ALA A  1        0.002  -0.004   0.002  0.00  0.00    +0.180 C 
BRANCH   8   9
ATOM      9  N   ALA A  1        0.713  -0.491   1.192  0.00  0.00    -0.620 N 
ATOM     10  H1  ALA A  1        1.659  -0.141   1.185  0.00  0.00    +0.440 HD
ATOM     11  H2  ALA A  1        0.726  -1.500   1.187  0.00  0.00    +0.440 HD
ATOM     12  H3  ALA A  1        0.240  -0.165   2.022  0.00  0.00    +0.440 HD
ENDBRANCH   8   9
ENDBRANCH   3   8
ENDBRANCH   1   4
BRANCH   1  13
ATOM     13  C   ALA A  2       -3.857  -1.581  -2.492  0.00  0.00    +0.500 C 
ATOM     14  N   ALA A  3       -5.080  -2.098  -2.721  0.00  0.00    -0.680 N 
ATOM     15  H   ALA A  3       -5.731  -2.141  -2.002  0.00  0.00    +0.410 HD
ATOM     16  O   ALA A  2       -3.043  -1.528  -3.390  0.00  0.00    -0.560 OA
BRANCH  14  17
ATOM     17  CA  ALA A  3       -5.427  -2.596  -4.054  0.00  0.00    +0.160 C 
ATOM     18  CB  ALA A  3       -4.949  -4.042  -4.199  0.00  0.00    +0.020 C 
BRANCH  17  19
ATOM     19  C   ALA A  3       -6.922  -2.539  -4.238  0.00  0.00    +0.490 C 
ATOM     20  OXT ALA A  3       -7.421  -2.911  -5.286  0.00  0.00    -0.680 OA
ATOM     21  O   ALA A  3       -7.631  -2.123  -3.338  0.00  0.00    -0.690 OA
ENDBRANCH  17  19
ENDBRANCH  14  17
ENDBRANCH   1  13
TORSDOF 6
ENDMDL
MODEL     1441
REMARK  Name = ZINC000063772494
REMARK                            x       y       z     vdW  Elec       q    Type
REMARK                         _______ _______ _______ _____ _____    ______ ____
ROOT
ATOM      1  C   LIG    1       -0.018   1.465   0.010  0.00  0.00    +0.210 C 
ATOM      2  N   LIG    1        0.002  -0.004   0.002  0.00  0.00    -0.480 NA
ATOM      3  C   LIG    1       -1.372  -0.556   0.113  0.00  0.00    +0.440 C 
ATOM      4  N   LIG    1       -1.161  -1.937   0.615  0.00  0.00    -0.510 NA
ATOM      5  C   LIG    1       -0.059  -1.813   1.596  0.00  0.00    +0.280 C 
ATOM      6  N   LIG    1        0.894  -2.929   1.389  0.00  0.00    -0.490 NA
ATOM      7  C   LIG    1        0.733  -3.958   2.425  0.00  0.00    +0.210 C 
ATOM      8  C   LIG    1        2.235  -2.295   1.472  0.00  0.00    +0.500 C 
ATOM      9  N   LIG    1        2.057  -0.995   0.776  0.00  0.00    -0.460 NA
ATOM     10  C   LIG    1        3.092  -0.035   1.182  0.00  0.00    +0.220 C 
ATOM     11  C   LIG    1       -2.378  -2.457   1.253  0.00  0.00    +0.200 C 
ATOM     12  C   LIG    1        0.712  -0.532   1.190  0.00  0.00    +0.280 C 
ENDROOT
BRANCH   8  13
ATOM     13  O   LIG    1        2.608  -2.088   2.835  0.00  0.00    -0.610 OA
ATOM     14  H   LIG    1        2.737  -2.905   3.336  0.00  0.00    +0.390 HD
ENDBRANCH   8  13
BRANCH   3  15
ATOM     15  O   LIG    1       -2.009  -0.578  -1.167  0.00  0.00    -0.530 OA
ATOM     16  H   LIG    1       -2.909  -0.929  -1.152  0.00  0.00    +0.390 HD
ENDBRANCH   3  15
TORSDOF 2
ENDMDL
MODEL     1442
REMARK  Name = ZINC000002471284
REMARK                            x       y       z     vdW  Elec       q    Type
REMARK                         _______ _______ _______ _____ _____    ______ ____
ROOT
ATOM      1  C   LIG    1       -1.056  -2.140   0.001  0.00  0.00    +0.210 C 
ENDROOT
BRANCH   1   2
ATOM      2  C   LIG    1       -1.009  -2.649   1.418  0.00  0.00    +0.510 C 
ATOM      3  O   LIG    1       -1.143  -1.877   2.344  0.00  0.00    -0.520 OA
ATOM      4  N   LIG    1       -0.818  -3.961   1.657  0.00  0.00    -0.840 N 
ATOM      5  H   LIG    1       -0.788  -4.289   2.570  0.00  0.00    +0.410 HD
ATOM      6  H   LIG    1       -0.711  -4.578   0.917  0.00  0.00    +0.410 HD
ENDBRANCH   1   2
BRANCH   1   7
ATOM      7  O   LIG    1       -1.151  -0.691   0.009  0.00  0.00    -0.330 OA
BRANCH   7   9
ATOM      8  C   LIG    1       -0.018   1.503   0.010  0.00  0.00    +0.180 C 
ATOM      9  C   LIG    1        0.002  -0.004   0.002  0.00  0.00    +0.470 C 
ATOM     10  O   LIG    1        1.056  -0.594  -0.011  0.00  0.00    -0.500 OA
ENDBRANCH   7   9
ENDBRANCH   1   7
BRANCH   1  11
ATOM     11  C   LIG    1       -2.275  -2.727  -0.712  0.00  0.00    +0.210 C 
BRANCH  11  12
ATOM     12  C   LIG    1       -2.322  -2.218  -2.130  0.00  0.00    +0.510 C 
ATOM     13  O   LIG    1       -2.188  -2.990  -3.056  0.00  0.00    -0.520 OA
ATOM     14  N   LIG    1       -2.513  -0.906  -2.369  0.00  0.00    -0.840 N 
ATOM     15  H   LIG    1       -2.543  -0.578  -3.281  0.00  0.00    +0.410 HD
ATOM     16  H   LIG    1       -2.620  -0.288  -1.628  0.00  0.00    +0.410 HD
ENDBRANCH  11  12
BRANCH  11  17
ATOM     17  O   LIG    1       -2.180  -4.176  -0.721  0.00  0.00    -0.330 OA
BRANCH  17  18
ATOM     18  C   LIG    1       -3.333  -4.863  -0.714  0.00  0.00    +0.470 C 
ATOM     19  O   LIG    1       -4.387  -4.273  -0.700  0.00  0.00    -0.500 OA
ATOM     20  C   LIG    1       -3.312  -6.370  -0.722  0.00  0.00    +0.180 C 
ENDBRANCH  17  18
ENDBRANCH  11  17
ENDBRANCH   1  11
TORSDOF 7
ENDMDL
MODEL     1443
REMARK  Name = ZINC000095495906
REMARK                            x       y       z     vdW  Elec       q    Type
REMARK                         _______ _______ _______ _____ _____    ______ ____
ROOT
ATOM      1  C   LIG    1        1.942  -0.120  -1.402  0.00  0.00    +0.290 C 
ATOM      2  O   LIG    1        2.081   1.302  -1.382  0.00  0.00    -0.370 OA
ATOM      3  C   LIG    1        3.428   1.758  -1.524  0.00  0.00    +0.190 C 
ATOM      4  C   LIG    1        3.984   1.291  -2.872  0.00  0.00    +0.170 C 
ATOM      5  C   LIG    1        3.895  -0.236  -2.951  0.00  0.00    +0.160 C 
ATOM      6  C   LIG    1        2.438  -0.662  -2.744  0.00  0.00    +0.140 C 
ENDROOT
BRANCH   5   7
ATOM      7  O   LIG    1        4.345  -0.675  -4.234  0.00  0.00    -0.560 OA
ATOM      8  H   LIG    1        4.316  -1.634  -4.355  0.00  0.00    +0.390 HD
ENDBRANCH   5   7
BRANCH   4   9
ATOM      9  O   LIG    1        5.349   1.698  -2.992  0.00  0.00    -0.550 OA
ATOM     10  H   LIG    1        5.766   1.435  -3.824  0.00  0.00    +0.390 HD
ENDBRANCH   4   9
BRANCH   6  11
ATOM     11  O   LIG    1        2.353  -2.089  -2.746  0.00  0.00    -0.560 OA
ATOM     12  H   LIG    1        1.457  -2.430  -2.619  0.00  0.00    +0.390 HD
ENDBRANCH   6  11
BRANCH   1  13
ATOM     13  O   LIG    1        0.566  -0.466  -1.227  0.00  0.00    -0.350 OA
BRANCH  13  15
ATOM     14  C   LIG    1        0.257   1.149   0.544  0.00  0.00    +0.030 C 
ATOM     15  C   LIG    1        0.093  -0.309   0.112  0.00  0.00    +0.110 C 
ATOM     16  C   LIG    1       -1.385  -0.698   0.179  0.00  0.00    +0.060 C 
ATOM     17  C   LIG    1        0.901  -1.212   1.047  0.00  0.00    +0.020 C 
ENDBRANCH  13  15
ENDBRANCH   1  13
BRANCH   3  18
ATOM     18  C   LIG    1        3.459   3.286  -1.460  0.00  0.00    +0.230 C 
BRANCH  18  19
ATOM     19  O   LIG    1        3.049   3.717  -0.161  0.00  0.00    -0.570 OA
ATOM     20  H   LIG    1        3.044   4.678  -0.049  0.00  0.00    +0.380 HD
ENDBRANCH  18  19
ENDBRANCH   3  18
TORSDOF 7
ENDMDL
MODEL     1444
REMARK  Name = ZINC000002541802
REMARK                            x       y       z     vdW  Elec       q    Type
REMARK                         _______ _______ _______ _____ _____    ______ ____
ROOT
ATOM      1  C   LIG    1       -0.019   1.526   0.010  0.00  0.00    +0.160 C 
ATOM      2  C   LIG    1        0.002  -0.004   0.002  0.00  0.00    +0.400 C 
ATOM      3  O   LIG    1        0.675  -0.469  -1.172  0.00  0.00    -0.360 OA
ATOM      4  C   LIG    1        0.746  -1.898  -1.259  0.00  0.00    +0.190 C 
ATOM      5  C   LIG    1        1.487  -2.425  -0.023  0.00  0.00    +0.130 C 
ATOM      6  C   LIG    1        0.766  -1.912   1.231  0.00  0.00    +0.190 C 
ATOM      7  C   LIG    1       -0.663  -2.471   1.241  0.00  0.00    +0.130 C 
ATOM      8  C   LIG    1       -1.400  -1.944   0.003  0.00  0.00    +0.190 C 
ATOM      9  C   LIG    1       -0.683  -2.458  -1.253  0.00  0.00    +0.140 C 
ATOM     10  O   LIG    1       -1.339  -0.503   0.016  0.00  0.00    -0.360 OA
ATOM     11  O   LIG    1        0.694  -0.481   1.160  0.00  0.00    -0.360 OA
ENDROOT
BRANCH   7  12
ATOM     12  O   LIG    1       -1.339  -2.039   2.423  0.00  0.00    -0.540 OA
ATOM     13  H   LIG    1       -2.250  -2.357   2.494  0.00  0.00    +0.390 HD
ENDBRANCH   7  12
BRANCH   5  14
ATOM     14  O   LIG    1        2.834  -1.949  -0.031  0.00  0.00    -0.540 OA
ATOM     15  H   LIG    1        3.360  -2.244   0.724  0.00  0.00    +0.390 HD
ENDBRANCH   5  14
BRANCH   9  16
ATOM     16  O   LIG    1       -1.379  -2.013  -2.419  0.00  0.00    -0.540 OA
ATOM     17  H   LIG    1       -0.978  -2.302  -3.250  0.00  0.00    +0.390 HD
ENDBRANCH   9  16
TORSDOF 3
ENDMDL
MODEL     1445
REMARK  Name = ZINC000002555259
REMARK                            x       y       z     vdW  Elec       q    Type
REMARK                         _______ _______ _______ _____ _____    ______ ____
ROOT
ATOM      1  C   LIG    1        3.059  -0.968   1.571  0.00  0.00    +0.210 C 
ATOM      2  O   LIG    1        3.347   0.463   1.604  0.00  0.00    -0.330 OA
ATOM      3  C   LIG    1        3.947   0.748   2.775  0.00  0.00    +0.460 C 
ATOM      4  C   LIG    1        3.378  -0.175   3.833  0.00  0.00    +0.120 C 
ATOM      5  O   LIG    1        4.792   1.594   2.951  0.00  0.00    -0.430 OA
ATOM      6  C   LIG    1        2.774  -1.356   3.037  0.00  0.00    +0.190 C 
ENDROOT
BRANCH   1  11
ATOM      7  C   LIG    1       -0.019   1.526   0.010  0.00  0.00    +0.030 C 
ATOM      8  C   LIG    1        0.002  -0.004   0.002  0.00  0.00    +0.250 C 
ATOM      9  O   LIG    1        0.687  -0.471  -1.172  0.00  0.00    -0.370 OA
ATOM     10  C   LIG    1        2.048  -0.708  -0.737  0.00  0.00    +0.210 C 
ATOM     11  C   LIG    1        1.831  -1.242   0.701  0.00  0.00    +0.180 C 
ATOM     12  C   LIG    1       -1.432  -0.537   0.003  0.00  0.00    +0.070 C 
ATOM     13  O   LIG    1        0.695  -0.483   1.162  0.00  0.00    -0.330 OA
ENDBRANCH   1  11
BRANCH   4  14
ATOM     14  O   LIG    1        2.363   0.494   4.584  0.00  0.00    -0.520 OA
ATOM     15  H   LIG    1        2.678   1.273   5.063  0.00  0.00    +0.390 HD
ENDBRANCH   4  14
BRANCH   6  16
ATOM     16  O   LIG    1        1.368  -1.457   3.272  0.00  0.00    -0.510 OA
ATOM     17  H   LIG    1        1.135  -1.625   4.195  0.00  0.00    +0.390 HD
ENDBRANCH   6  16
TORSDOF 3
ENDMDL
MODEL     1446
REMARK  Name = ZINC000079502213
REMARK                            x       y       z     vdW  Elec       q    Type
REMARK                         _______ _______ _______ _____ _____    ______ ____
ROOT
ATOM      1  C   LIG    1        1.280   1.980   0.001  0.00  0.00    +0.350 C 
ENDROOT
BRANCH   1   3
ATOM      2  O   LIG    1        0.002  -0.004   0.002  0.00  0.00    -0.530 OA
ATOM      3  C   LIG    1       -0.014   1.209   0.009  0.00  0.00    +0.520 C 
ATOM      4  N   LIG    1       -1.191   1.867   0.018  0.00  0.00    -0.620 N 
ATOM      5  H   LIG    1       -1.204   2.836   0.023  0.00  0.00    +0.440 HD
BRANCH   4   6
ATOM      6  C   LIG    1       -2.384   1.156   0.020  0.00  0.00    +0.420 A 
ATOM      7  N   LIG    1       -3.587   1.677   0.022  0.00  0.00    -0.500 NA
ATOM      8  C   LIG    1       -4.498   0.691   0.023  0.00  0.00    +0.170 A 
ATOM      9  C   LIG    1       -3.847  -0.485   0.020  0.00  0.00    +0.130 A 
ATOM     10  N   LIG    1       -2.503  -0.199   0.013  0.00  0.00    -0.560 N 
ATOM     11  H   LIG    1       -1.776  -0.842   0.009  0.00  0.00    +0.430 HD
ENDBRANCH   4   6
ENDBRANCH   1   3
BRANCH   1  12
ATOM     12  N   LIG    1        2.407   1.043  -0.015  0.00  0.00    -0.700 N 
ATOM     13  H   LIG    1        2.242   0.087  -0.019  0.00  0.00    +0.420 HD
ATOM     14  C   LIG    1        3.671   1.510  -0.025  0.00  0.00    +0.580 C 
ATOM     15  O   LIG    1        3.877   2.707  -0.020  0.00  0.00    -0.520 OA
BRANCH  14  16
ATOM     16  C   LIG    1        4.810   0.562  -0.041  0.00  0.00    +0.020 A 
ATOM     17  C   LIG    1        6.119   1.043  -0.045  0.00  0.00    +0.310 A 
ATOM     18  N   LIG    1        7.131   0.194  -0.059  0.00  0.00    -0.440 NA
ATOM     19  C   LIG    1        6.904  -1.107  -0.070  0.00  0.00    +0.260 A 
ATOM     20  C   LIG    1        5.602  -1.589  -0.066  0.00  0.00    +0.230 A 
ATOM     21  N   LIG    1        4.587  -0.749  -0.046  0.00  0.00    -0.410 NA
ENDBRANCH  14  16
ENDBRANCH   1  12
TORSDOF 4
ENDMDL
MODEL     1447
REMARK  Name = ZINC000002561384
REMARK                            x       y       z     vdW  Elec       q    Type
REMARK                         _______ _______ _______ _____ _____    ______ ____
ROOT
ATOM      1  C   LIG    1        0.679  -2.115   1.088  0.00  0.00    +0.030 C 
ATOM      2  C   LIG    1        1.415  -2.648  -0.142  0.00  0.00    +0.120 C 
ATOM      3  C   LIG    1        1.695  -4.116   0.011  0.00  0.00    +0.530 C 
ATOM      4  N   LIG    1        1.716  -4.725   1.205  0.00  0.00    -0.520 N 
ATOM      5  H   LIG    1        1.923  -5.671   1.253  0.00  0.00    +0.420 HD
ATOM      6  N   LIG    1        1.444  -4.020   2.386  0.00  0.00    -0.440 N 
ATOM      7  C   LIG    1        1.189  -4.677   3.535  0.00  0.00    +0.720 C 
ATOM      8  O   LIG    1        0.954  -4.054   4.553  0.00  0.00    -0.560 OA
ATOM      9  N   LIG    1        1.195  -6.024   3.556  0.00  0.00    -0.860 N 
ATOM     10  H   LIG    1        1.011  -6.497   4.383  0.00  0.00    +0.420 HD
ATOM     11  H   LIG    1        1.382  -6.521   2.744  0.00  0.00    +0.400 HD
ATOM     12  O   LIG    1        1.910  -4.776  -0.984  0.00  0.00    -0.520 OA
ATOM     13  C   LIG    1        1.438  -2.550   2.349  0.00  0.00    +0.370 C 
ENDROOT
BRANCH   1  14
ATOM     14  C   LIG    1        0.618  -0.611   1.029  0.00  0.00    +0.470 C 
ATOM     15  O   LIG    1        1.124   0.049   1.905  0.00  0.00    -0.490 OA
BRANCH  14  17
ATOM     16  C   LIG    1       -0.018   1.448   0.010  0.00  0.00    +0.280 C 
ATOM     17  O   LIG    1        0.002  -0.004   0.002  0.00  0.00    -0.350 OA
ENDBRANCH  14  17
ENDBRANCH   1  14
TORSDOF 2
ENDMDL
MODEL     1448
REMARK  Name = ZINC000257181397
REMARK                            x       y       z     vdW  Elec       q    Type
REMARK                         _______ _______ _______ _____ _____    ______ ____
ROOT
ATOM      1  C   LIG    1       -0.018   1.503   0.010  0.00  0.00    +0.100 C 
ATOM      2  C   LIG    1        0.002  -0.004   0.002  0.00  0.00    +0.510 C 
ATOM      3  N   LIG    1       -1.156  -0.694   0.009  0.00  0.00    -0.620 N 
ATOM      4  C   LIG    1       -2.397   0.064   0.019  0.00  0.00    +0.300 C 
ATOM      5  C   LIG    1       -3.142  -0.122  -1.311  0.00  0.00    +0.160 C 
ATOM      6  C   LIG    1       -3.793  -1.489  -1.285  0.00  0.00    +0.270 A 
ATOM      7  N   LIG    1       -5.046  -1.774  -1.255  0.00  0.00    -0.270 NA
ATOM      8  N   LIG    1       -5.176  -3.172  -1.238  0.00  0.00    -0.460 N 
ATOM      9  C   LIG    1       -3.928  -3.693  -1.260  0.00  0.00    +0.650 A 
ATOM     10  O   LIG    1       -3.641  -4.877  -1.252  0.00  0.00    -0.550 OA
ATOM     11  C   LIG    1       -6.431  -3.927  -1.205  0.00  0.00    +0.390 C 
ATOM     12  N   LIG    1       -3.068  -2.668  -1.290  0.00  0.00    -0.560 N 
ATOM     13  C   LIG    1       -1.598  -2.706  -1.326  0.00  0.00    +0.340 C 
ATOM     14  C   LIG    1       -1.081  -2.145   0.001  0.00  0.00    +0.290 C 
ATOM     15  O   LIG    1        1.060  -0.596  -0.011  0.00  0.00    -0.540 OA
ENDROOT
TORSDOF 0
ENDMDL
MODEL     1449
REMARK  Name = ZINC000020281262
REMARK                            x       y       z     vdW  Elec       q    Type
REMARK                         _______ _______ _______ _____ _____    ______ ____
ROOT
ATOM      1  C   LIG    1       -0.018   1.461   0.010  0.00  0.00    +0.350 C 
ATOM      2  N   LIG    1        0.001  -0.004   0.002  0.00  0.00    -0.400 N 
ATOM      3  C   LIG    1       -0.090  -0.790  -1.098  0.00  0.00    +0.340 A 
ATOM      4  C   LIG    1       -0.036  -2.088  -0.716  0.00  0.00    -0.750 A 
ATOM      5  C   LIG    1        0.093  -2.120   0.676  0.00  0.00    +0.110 A 
ATOM      6  C   LIG    1        0.120  -0.812   1.111  0.00  0.00    -0.060 A 
ENDROOT
BRANCH   6   7
ATOM      7  C   LIG    1        0.244  -0.362   2.501  0.00  0.00    +0.600 C 
ATOM      8  O   LIG    1        0.165   0.823   2.767  0.00  0.00    -0.550 OA
ATOM      9  N   LIG    1        0.447  -1.261   3.485  0.00  0.00    -0.840 N 
ATOM     10  H   LIG    1        0.456  -0.973   4.411  0.00  0.00    +0.410 HD
ATOM     11  H   LIG    1        0.583  -2.196   3.266  0.00  0.00    +0.410 HD
ENDBRANCH   6   7
BRANCH   4  12
ATOM     12  S   LIG    1       -0.115  -3.488  -1.782  0.00  0.00    +2.730 S 
ATOM     13  O   LIG    1       -0.777  -3.057  -2.963  0.00  0.00    -0.970 OA
ATOM     14  O   LIG    1       -0.573  -4.573  -0.987  0.00  0.00    -0.960 OA
BRANCH  12  15
ATOM     15  N   LIG    1        1.438  -3.856  -2.224  0.00  0.00    -1.250 NA
ATOM     16  H   LIG    1        1.610  -4.604  -2.817  0.00  0.00    +0.420 HD
ATOM     17  H   LIG    1        2.176  -3.322  -1.891  0.00  0.00    +0.420 HD
ENDBRANCH  12  15
ENDBRANCH   4  12
TORSDOF 3
ENDMDL
MODEL     1450
REMARK  Name = ZINC000001858420
REMARK                            x       y       z     vdW  Elec       q    Type
REMARK                         _______ _______ _______ _____ _____    ______ ____
ROOT
ATOM      1  C   LIG    1       -0.018   1.461   0.010  0.00  0.00    +0.340 C 
ATOM      2  N   LIG    1        0.002  -0.004   0.002  0.00  0.00    -0.510 N 
ATOM      3  C   LIG    1       -1.186  -0.701   0.004  0.00  0.00    +0.250 A 
ATOM      4  C   LIG    1       -1.157  -2.088  -0.004  0.00  0.00    -0.060 A 
ATOM      5  C   LIG    1        0.145  -2.755  -0.013  0.00  0.00    +0.600 A 
ATOM      6  N   LIG    1        1.260  -1.994  -0.014  0.00  0.00    -0.650 N 
ATOM      7  H   LIG    1        2.131  -2.421  -0.020  0.00  0.00    +0.440 HD
ATOM      8  O   LIG    1        0.221  -3.970  -0.021  0.00  0.00    -0.480 OA
ATOM      9  N   LIG    1       -2.444  -2.524   0.000  0.00  0.00    -0.460 NA
ATOM     10  C   LIG    1       -3.244  -1.488   0.010  0.00  0.00    +0.510 A 
ATOM     11  N   LIG    1       -2.500  -0.340   0.012  0.00  0.00    -0.580 N 
ATOM     12  H   LIG    1       -2.846   0.567   0.019  0.00  0.00    +0.420 HD
ATOM     13  C   LIG    1        1.180  -0.652  -0.013  0.00  0.00    +0.720 A 
ATOM     14  O   LIG    1        2.208  -0.003  -0.013  0.00  0.00    -0.540 OA
ENDROOT
BRANCH  10  15
ATOM     15  N   LIG    1       -4.627  -1.546   0.017  0.00  0.00    -0.700 N 
ATOM     16  H   LIG    1       -5.077  -2.405   0.014  0.00  0.00    +0.430 HD
BRANCH  15  17
ATOM     17  C   LIG    1       -5.412  -0.308   0.028  0.00  0.00    +0.270 C 
BRANCH  17  18
ATOM     18  C   LIG    1       -6.903  -0.650   0.034  0.00  0.00    +0.200 C 
BRANCH  18  19
ATOM     19  O   LIG    1       -7.234  -1.318   1.253  0.00  0.00    -0.570 OA
ATOM     20  H   LIG    1       -8.166  -1.565   1.326  0.00  0.00    +0.390 HD
ENDBRANCH  18  19
ENDBRANCH  17  18
ENDBRANCH  15  17
ENDBRANCH  10  15
TORSDOF 4
ENDMDL
MODEL     1451
REMARK  Name = ZINC000002643599
REMARK                            x       y       z     vdW  Elec       q    Type
REMARK                         _______ _______ _______ _____ _____    ______ ____
ROOT
ATOM      1  N   LIG    1       -0.055  -0.114  -2.441  0.00  0.00    -0.690 N 
ATOM      2  H   LIG    1       -1.010   0.038  -2.368  0.00  0.00    +0.420 HD
ATOM      3  C   LIG    1        0.561   0.028  -3.631  0.00  0.00    +0.510 C 
ATOM      4  O   LIG    1        1.756  -0.162  -3.722  0.00  0.00    -0.520 OA
ENDROOT
BRANCH   3   5
ATOM      5  C   LIG    1       -0.228   0.419  -4.838  0.00  0.00    +0.510 C 
ATOM      6  N   LIG    1        0.388   0.561  -6.029  0.00  0.00    -0.690 N 
ATOM      7  H   LIG    1        1.343   0.409  -6.102  0.00  0.00    +0.420 HD
ATOM      8  O   LIG    1       -1.423   0.609  -4.747  0.00  0.00    -0.520 OA
BRANCH   6   9
ATOM      9  CA  LIG    1       -0.385   0.945  -7.213  0.00  0.00    +0.260 C 
BRANCH   9  10
ATOM     10  C   LIG    1        0.537   1.627  -8.225  0.00  0.00    +0.030 C 
ATOM     11  C   LIG    1        1.056   2.941  -7.637  0.00  0.00    +0.020 C 
ENDBRANCH   9  10
BRANCH   9  12
ATOM     12  C   LIG    1       -1.001  -0.304  -7.846  0.00  0.00    +0.170 C 
BRANCH  12  13
ATOM     13  O   LIG    1        0.039  -1.154  -8.333  0.00  0.00    -0.570 OA
ATOM     14  H   LIG    1       -0.280  -1.968  -8.748  0.00  0.00    +0.380 HD
ENDBRANCH  12  13
ENDBRANCH   9  12
ENDBRANCH   6   9
ENDBRANCH   3   5
BRANCH   1  15
ATOM     15  CA  LIG    1        0.718  -0.497  -1.257  0.00  0.00    +0.260 C 
BRANCH  15  17
ATOM     16  C   LIG    1       -0.019   1.526   0.010  0.00  0.00    +0.020 C 
ATOM     17  C   LIG    1        0.002  -0.004   0.002  0.00  0.00    +0.030 C 
ENDBRANCH  15  17
BRANCH  15  18
ATOM     18  C   LIG    1        0.849  -2.021  -1.205  0.00  0.00    +0.170 C 
BRANCH  18  19
ATOM     19  O   LIG    1       -0.442  -2.604  -1.018  0.00  0.00    -0.570 OA
ATOM     20  H   LIG    1       -0.435  -3.570  -0.976  0.00  0.00    +0.380 HD
ENDBRANCH  18  19
ENDBRANCH  15  18
ENDBRANCH   1  15
TORSDOF 9
ENDMDL
MODEL     1452
REMARK  Name = ZINC000002643602
REMARK                            x       y       z     vdW  Elec       q    Type
REMARK                         _______ _______ _______ _____ _____    ______ ____
ROOT
ATOM      1  N   LIG    1        2.125  -0.091  -1.209  0.00  0.00    -0.690 N 
ATOM      2  H   LIG    1        2.553   0.075  -0.355  0.00  0.00    +0.420 HD
ATOM      3  C   LIG    1        2.824   0.051  -2.353  0.00  0.00    +0.510 C 
ATOM      4  O   LIG    1        2.288  -0.157  -3.421  0.00  0.00    -0.520 OA
ENDROOT
BRANCH   3   5
ATOM      5  C   LIG    1        4.259   0.466  -2.304  0.00  0.00    +0.510 C 
ATOM      6  N   LIG    1        4.958   0.609  -3.448  0.00  0.00    -0.690 N 
ATOM      7  H   LIG    1        4.530   0.442  -4.302  0.00  0.00    +0.420 HD
ATOM      8  O   LIG    1        4.795   0.674  -1.236  0.00  0.00    -0.520 OA
BRANCH   6   9
ATOM      9  CA  LIG    1        6.365   1.015  -3.400  0.00  0.00    +0.260 C 
BRANCH   9  10
ATOM     10  C   LIG    1        6.745   1.692  -4.719  0.00  0.00    +0.030 C 
ATOM     11  C   LIG    1        5.953   2.992  -4.871  0.00  0.00    +0.020 C 
ENDBRANCH   9  10
BRANCH   9  12
ATOM     12  C   LIG    1        7.245  -0.218  -3.188  0.00  0.00    +0.170 C 
BRANCH  12  13
ATOM     13  O   LIG    1        7.139  -1.080  -4.323  0.00  0.00    -0.570 OA
ATOM     14  H   LIG    1        7.672  -1.884  -4.257  0.00  0.00    +0.380 HD
ENDBRANCH  12  13
ENDBRANCH   9  12
ENDBRANCH   6   9
ENDBRANCH   3   5
BRANCH   1  15
ATOM     15  CA  LIG    1        0.718  -0.497  -1.257  0.00  0.00    +0.260 C 
BRANCH  15  17
ATOM     16  C   LIG    1       -0.019   1.526   0.010  0.00  0.00    +0.020 C 
ATOM     17  C   LIG    1        0.002  -0.004   0.002  0.00  0.00    +0.030 C 
ENDBRANCH  15  17
BRANCH  15  18
ATOM     18  C   LIG    1        0.630  -2.023  -1.329  0.00  0.00    +0.170 C 
BRANCH  18  19
ATOM     19  O   LIG    1        1.146  -2.587  -0.121  0.00  0.00    -0.570 OA
ATOM     20  H   LIG    1        1.122  -3.554  -0.097  0.00  0.00    +0.380 HD
ENDBRANCH  18  19
ENDBRANCH  15  18
ENDBRANCH   1  15
TORSDOF 9
ENDMDL
MODEL     1453
REMARK  Name = ZINC000000529697
REMARK                            x       y       z     vdW  Elec       q    Type
REMARK                         _______ _______ _______ _____ _____    ______ ____
ROOT
ATOM      1  N   LIG    1       -1.945  -0.201  -1.380  0.00  0.00    -0.410 N 
ATOM      2  C   LIG    1       -2.806   0.806  -1.627  0.00  0.00    +0.490 A 
ATOM      3  N   LIG    1       -3.117   0.819  -2.897  0.00  0.00    -0.490 NA
ATOM      4  C   LIG    1       -2.480  -0.170  -3.530  0.00  0.00    +0.310 A 
ATOM      5  N   LIG    1       -2.445  -0.605  -4.845  0.00  0.00    -0.510 N 
ATOM      6  C   LIG    1       -3.243   0.083  -5.863  0.00  0.00    +0.350 C 
ATOM      7  C   LIG    1       -1.686  -1.663  -5.186  0.00  0.00    +0.710 A 
ATOM      8  O   LIG    1       -1.672  -2.033  -6.345  0.00  0.00    -0.540 OA
ATOM      9  N   LIG    1       -0.942  -2.319  -4.280  0.00  0.00    -0.550 N 
ATOM     10  C   LIG    1       -0.130  -3.463  -4.705  0.00  0.00    +0.350 C 
ATOM     11  C   LIG    1       -0.930  -1.941  -2.985  0.00  0.00    +0.590 A 
ATOM     12  O   LIG    1       -0.252  -2.544  -2.173  0.00  0.00    -0.500 OA
ATOM     13  C   LIG    1       -1.715  -0.839  -2.582  0.00  0.00    -0.130 A 
ENDROOT
BRANCH   1  14
ATOM     14  C   LIG    1       -1.360  -0.549  -0.083  0.00  0.00    +0.480 C 
BRANCH  14  16
ATOM     15  C   LIG    1       -0.018   1.465   0.010  0.00  0.00    +0.200 C 
ATOM     16  N   LIG    1        0.002  -0.004   0.002  0.00  0.00    -0.550 NA
ATOM     17  C   LIG    1        0.706  -0.527   1.180  0.00  0.00    +0.220 C 
ENDBRANCH  14  16
ENDBRANCH   1  14
TORSDOF 2
ENDMDL
MODEL     1454
REMARK  Name = ZINC000002482507
REMARK                            x       y       z     vdW  Elec       q    Type
REMARK                         _______ _______ _______ _____ _____    ______ ____
ROOT
ATOM      1  C   LIG    1        1.113  -4.109  -2.426  0.00  0.00    +0.510 C 
ATOM      2  N   LIG    1        1.677  -4.768  -3.457  0.00  0.00    -0.690 N 
ATOM      3  H   LIG    1        2.139  -4.276  -4.154  0.00  0.00    +0.420 HD
ATOM      4  O   LIG    1        0.535  -4.725  -1.555  0.00  0.00    -0.520 OA
ENDROOT
BRANCH   1   7
ATOM      5  N   LIG    1        0.634  -1.958  -1.325  0.00  0.00    -0.700 N 
ATOM      6  H   LIG    1        0.172  -2.451  -0.629  0.00  0.00    +0.420 HD
ATOM      7  C   LIG    1        1.198  -2.618  -2.356  0.00  0.00    +0.510 C 
ATOM      8  O   LIG    1        1.776  -2.002  -3.228  0.00  0.00    -0.520 OA
BRANCH   5   9
ATOM      9  C   LIG    1        0.718  -0.497  -1.257  0.00  0.00    +0.240 C 
BRANCH   9  11
ATOM     10  C   LIG    1       -0.019   1.526   0.010  0.00  0.00    +0.020 C 
ATOM     11  C   LIG    1        0.002  -0.004   0.002  0.00  0.00    +0.200 C 
BRANCH  11  12
ATOM     12  O   LIG    1        0.693  -0.477   1.160  0.00  0.00    -0.560 OA
ATOM     13  H   LIG    1        1.611  -0.180   1.219  0.00  0.00    +0.380 HD
ENDBRANCH  11  12
ENDBRANCH   9  11
ENDBRANCH   5   9
ENDBRANCH   1   7
BRANCH   2  14
ATOM     14  C   LIG    1        1.593  -6.229  -3.526  0.00  0.00    +0.290 C 
BRANCH  14  15
ATOM     15  C   LIG    1        2.309  -6.723  -4.785  0.00  0.00    +0.150 C 
ATOM     16  C   LIG    1        2.202  -8.264  -4.895  0.00  0.00    +0.020 C 
ATOM     17  C   LIG    1        2.369  -8.463  -6.426  0.00  0.00    +0.010 C 
ATOM     18  C   LIG    1        1.681  -7.204  -6.997  0.00  0.00    +0.190 C 
ATOM     19  O   LIG    1        1.659  -6.214  -5.960  0.00  0.00    -0.380 OA
ENDBRANCH  14  15
ENDBRANCH   2  14
TORSDOF 6
ENDMDL
MODEL     1455
REMARK  Name = ZINC000020356128
REMARK                            x       y       z     vdW  Elec       q    Type
REMARK                         _______ _______ _______ _____ _____    ______ ____
ROOT
ATOM      1  C   LIG    1       -2.449   1.117   0.020  0.00  0.00    +0.260 C 
ENDROOT
BRANCH   1   4
ATOM      2  O   LIG    1        0.002  -0.004   0.002  0.00  0.00    -0.520 OA
ATOM      3  C   LIG    1       -0.014   1.209   0.009  0.00  0.00    +0.510 C 
ATOM      4  N   LIG    1       -1.191   1.867   0.018  0.00  0.00    -0.730 N 
ATOM      5  H   LIG    1       -1.204   2.837   0.023  0.00  0.00    +0.400 HD
BRANCH   3   6
ATOM      6  C   LIG    1        1.280   1.980   0.001  0.00  0.00    +0.220 C 
BRANCH   6   7
ATOM      7  O   LIG    1        2.379   1.066  -0.015  0.00  0.00    -0.550 OA
ATOM      8  H   LIG    1        3.246   1.494  -0.021  0.00  0.00    +0.390 HD
ENDBRANCH   6   7
ENDBRANCH   3   6
ENDBRANCH   1   4
BRANCH   1   9
ATOM      9  C   LIG    1       -3.626   2.095   0.031  0.00  0.00    +0.010 C 
BRANCH   9  10
ATOM     10  C   LIG    1       -4.940   1.312   0.033  0.00  0.00    +0.180 C 
BRANCH  10  11
ATOM     11  N   LIG    1       -6.069   2.252   0.043  0.00  0.00    -0.540 NA
ATOM     12  C   LIG    1       -5.864   3.311   1.041  0.00  0.00    +0.140 C 
ATOM     13  C   LIG    1       -7.032   4.298   0.977  0.00  0.00    +0.220 C 
ATOM     14  O   LIG    1       -8.259   3.592   1.182  0.00  0.00    -0.390 OA
ATOM     15  C   LIG    1       -8.491   2.553   0.227  0.00  0.00    +0.220 C 
ATOM     16  C   LIG    1       -7.338   1.548   0.284  0.00  0.00    +0.150 C 
ENDBRANCH  10  11
ENDBRANCH   9  10
ENDBRANCH   1   9
TORSDOF 6
ENDMDL
MODEL     1456
REMARK  Name = ZINC000016662152
REMARK                            x       y       z     vdW  Elec       q    Type
REMARK                         _______ _______ _______ _____ _____    ______ ____
ROOT
ATOM      1  S   LIG    1       -0.000  -0.824  -1.437  0.00  0.00    +2.750 S 
ATOM      2  O   LIG    1       -0.566   0.055  -2.399  0.00  0.00    -0.870 OA
ATOM      3  O   LIG    1       -0.525  -2.116  -1.161  0.00  0.00    -0.870 OA
ENDROOT
BRANCH   1   5
ATOM      4  C   LIG    1       -0.018   1.461   0.010  0.00  0.00    +0.390 C 
ATOM      5  N   LIG    1        0.002  -0.004   0.002  0.00  0.00    -0.840 N 
BRANCH   5   6
ATOM      6  N   LIG    1        0.023  -0.711   1.211  0.00  0.00    +0.190 N 
ATOM      7  O   LIG    1        0.040  -1.929   1.205  0.00  0.00    -0.140 OA
ATOM      8  O   LIG    1        0.025  -0.108   2.269  0.00  0.00    -0.110 OA
ENDBRANCH   5   6
ENDBRANCH   1   5
BRANCH   1   9
ATOM      9  N   LIG    1        1.581  -1.046  -1.877  0.00  0.00    -0.840 N 
ATOM     10  C   LIG    1        2.301  -2.245  -1.444  0.00  0.00    +0.390 C 
BRANCH   9  11
ATOM     11  N   LIG    1        2.229  -0.085  -2.665  0.00  0.00    +0.190 N 
ATOM     12  O   LIG    1        1.630   0.912  -3.025  0.00  0.00    -0.130 OA
ATOM     13  O   LIG    1        3.392  -0.248  -2.989  0.00  0.00    -0.110 OA
ENDBRANCH   9  11
ENDBRANCH   1   9
TORSDOF 4
ENDMDL
MODEL     1457
REMARK  Name = ZINC000012442709
REMARK                            x       y       z     vdW  Elec       q    Type
REMARK                         _______ _______ _______ _____ _____    ______ ____
ROOT
ATOM      1  C   LIG    1       -2.602  -2.707   0.012  0.00  0.00    +0.510 A 
ATOM      2  N   LIG    1       -2.706  -4.011   0.012  0.00  0.00    -0.460 NA
ATOM      3  C   LIG    1       -4.022  -4.351   0.021  0.00  0.00    -0.060 A 
ATOM      4  C   LIG    1       -4.757  -3.174   0.027  0.00  0.00    +0.250 A 
ATOM      5  N   LIG    1       -6.132  -3.240   0.036  0.00  0.00    -0.510 N 
ATOM      6  C   LIG    1       -6.763  -4.427   0.040  0.00  0.00    +0.720 A 
ATOM      7  N   LIG    1       -6.097  -5.594   0.035  0.00  0.00    -0.650 N 
ATOM      8  H   LIG    1       -6.592  -6.428   0.038  0.00  0.00    +0.440 HD
ATOM      9  O   LIG    1       -7.979  -4.446   0.048  0.00  0.00    -0.530 OA
ATOM     10  C   LIG    1       -6.916  -2.003   0.042  0.00  0.00    +0.340 C 
ATOM     11  C   LIG    1       -4.747  -5.621   0.025  0.00  0.00    +0.600 A 
ATOM     12  O   LIG    1       -4.146  -6.680   0.020  0.00  0.00    -0.480 OA
ATOM     13  N   LIG    1       -3.853  -2.152   0.027  0.00  0.00    -0.580 N 
ATOM     14  H   LIG    1       -4.060  -1.205   0.031  0.00  0.00    +0.420 HD
ENDROOT
BRANCH   1  15
ATOM     15  N   LIG    1       -1.413  -1.998   0.005  0.00  0.00    -0.700 N 
ATOM     16  H   LIG    1       -0.567  -2.472  -0.006  0.00  0.00    +0.430 HD
BRANCH  15  17
ATOM     17  C   LIG    1       -1.433  -0.534   0.013  0.00  0.00    +0.220 C 
BRANCH  17  19
ATOM     18  C   LIG    1       -0.019   1.526   0.010  0.00  0.00    +0.010 C 
ATOM     19  C   LIG    1        0.002  -0.004   0.002  0.00  0.00    +0.210 C 
BRANCH  19  20
ATOM     20  O   LIG    1        0.693  -0.477   1.160  0.00  0.00    -0.560 OA
ATOM     21  H   LIG    1        0.294  -0.202   1.996  0.00  0.00    +0.380 HD
ENDBRANCH  19  20
ENDBRANCH  17  19
ENDBRANCH  15  17
ENDBRANCH   1  15
TORSDOF 4
ENDMDL
MODEL     1458
REMARK  Name = ZINC000044122535
REMARK                            x       y       z     vdW  Elec       q    Type
REMARK                         _______ _______ _______ _____ _____    ______ ____
ROOT
ATOM      1  C   LIG    1       -1.256  -2.120  -0.021  0.00  0.00    +0.220 C 
ATOM      2  C   LIG    1       -1.002  -2.632   1.399  0.00  0.00    +0.020 C 
ATOM      3  C   LIG    1       -1.070  -4.162   1.404  0.00  0.00    +0.170 C 
ATOM      4  C   LIG    1       -2.439  -4.606   0.881  0.00  0.00    -0.010 C 
ATOM      5  C   LIG    1       -2.652  -4.036  -0.523  0.00  0.00    +0.250 C 
ATOM      6  N   LIG    1       -2.578  -2.570  -0.475  0.00  0.00    -0.650 NA
ATOM      7  H   LIG    1       -3.310  -2.191   0.107  0.00  0.00    +0.370 HD
ENDROOT
BRANCH   1   8
ATOM      8  C   LIG    1       -1.210  -0.614  -0.027  0.00  0.00    +0.480 C 
ATOM      9  O   LIG    1       -2.237   0.023  -0.015  0.00  0.00    -0.500 OA
BRANCH   8  11
ATOM     10  C   LIG    1       -0.058   1.473  -0.051  0.00  0.00    +0.270 C 
ATOM     11  O   LIG    1       -0.027   0.021  -0.046  0.00  0.00    -0.360 OA
ENDBRANCH   8  11
ENDBRANCH   1   8
BRANCH   5  12
ATOM     12  C   LIG    1       -1.583  -4.562  -1.446  0.00  0.00    +0.460 C 
ATOM     13  O   LIG    1       -0.887  -3.793  -2.065  0.00  0.00    -0.490 OA
BRANCH  12  14
ATOM     14  O   LIG    1       -1.405  -5.886  -1.581  0.00  0.00    -0.360 OA
ATOM     15  C   LIG    1       -0.357  -6.321  -2.487  0.00  0.00    +0.270 C 
ENDBRANCH  12  14
ENDBRANCH   5  12
BRANCH   3  16
ATOM     16  O   LIG    1       -0.889  -4.643   2.737  0.00  0.00    -0.560 OA
ATOM     17  H   LIG    1       -0.920  -5.607   2.815  0.00  0.00    +0.380 HD
ENDBRANCH   3  16
TORSDOF 5
ENDMDL
MODEL     1459
REMARK  Name = ZINC000044122540
REMARK                            x       y       z     vdW  Elec       q    Type
REMARK                         _______ _______ _______ _____ _____    ______ ____
ROOT
ATOM      1  C   LIG    1       -1.244  -2.135   0.003  0.00  0.00    +0.250 C 
ATOM      2  C   LIG    1       -1.151  -2.642  -1.439  0.00  0.00    +0.040 C 
ATOM      3  C   LIG    1       -2.334  -2.096  -2.244  0.00  0.00    +0.170 C 
ATOM      4  C   LIG    1       -3.641  -2.532  -1.575  0.00  0.00    -0.020 C 
ATOM      5  C   LIG    1       -3.661  -2.028  -0.130  0.00  0.00    +0.220 C 
ATOM      6  N   LIG    1       -2.511  -2.579   0.598  0.00  0.00    -0.650 NA
ATOM      7  H   LIG    1       -2.558  -3.586   0.640  0.00  0.00    +0.370 HD
ENDROOT
BRANCH   1   8
ATOM      8  C   LIG    1       -1.185  -0.630   0.010  0.00  0.00    +0.460 C 
ATOM      9  O   LIG    1       -2.069   0.007   0.533  0.00  0.00    -0.490 OA
BRANCH   8  11
ATOM     10  C   LIG    1       -0.161   1.456  -0.519  0.00  0.00    +0.270 C 
ATOM     11  O   LIG    1       -0.151   0.005  -0.565  0.00  0.00    -0.360 OA
ENDBRANCH   8  11
ENDBRANCH   1   8
BRANCH   5  12
ATOM     12  C   LIG    1       -4.937  -2.472   0.538  0.00  0.00    +0.470 C 
ATOM     13  O   LIG    1       -4.934  -3.435   1.268  0.00  0.00    -0.500 OA
BRANCH  12  14
ATOM     14  O   LIG    1       -6.077  -1.798   0.323  0.00  0.00    -0.360 OA
ATOM     15  C   LIG    1       -7.268  -2.281   0.999  0.00  0.00    +0.270 C 
ENDBRANCH  12  14
ENDBRANCH   5  12
BRANCH   3  16
ATOM     16  O   LIG    1       -2.284  -2.612  -3.575  0.00  0.00    -0.560 OA
ATOM     17  H   LIG    1       -3.005  -2.307  -4.143  0.00  0.00    +0.380 HD
ENDBRANCH   3  16
TORSDOF 5
ENDMDL
MODEL     1460
REMARK  Name = ZINC000042381450
REMARK                            x       y       z     vdW  Elec       q    Type
REMARK                         _______ _______ _______ _____ _____    ______ ____
ROOT
ATOM      1  C   LIG    1        0.042  -3.301  -1.472  0.00  0.00    +0.610 C 
ATOM      2  N   LIG    1        0.061  -4.520  -0.898  0.00  0.00    -0.710 N 
ATOM      3  H   LIG    1        0.067  -4.601   0.069  0.00  0.00    +0.410 HD
ATOM      4  O   LIG    1        0.034  -3.200  -2.684  0.00  0.00    -0.530 OA
ENDROOT
BRANCH   1   8
ATOM      5  C   LIG    1       -0.018   1.461   0.010  0.00  0.00    +0.370 C 
ATOM      6  N   LIG    1        0.002  -0.004   0.002  0.00  0.00    -0.360 N 
ATOM      7  C   LIG    1        0.008  -0.802  -1.085  0.00  0.00    +0.310 A 
ATOM      8  C   LIG    1        0.028  -2.090  -0.630  0.00  0.00    -0.110 A 
ATOM      9  N   LIG    1        0.035  -2.067   0.714  0.00  0.00    -0.210 NA
ATOM     10  N   LIG    1        0.025  -0.846   1.123  0.00  0.00    -0.060 NA
ENDBRANCH   1   8
BRANCH   2  11
ATOM     11  C   LIG    1        0.074  -5.723  -1.734  0.00  0.00    +0.270 C 
BRANCH  11  12
ATOM     12  C   LIG    1        0.096  -6.965  -0.840  0.00  0.00    +0.320 C 
BRANCH  12  13
ATOM     13  N   LIG    1        0.109  -8.168  -1.676  0.00  0.00    -0.350 N 
ATOM     14  N   LIG    1       -1.006  -8.695  -2.032  0.00  0.00    -0.220 NA
ATOM     15  C   LIG    1       -1.069  -9.765  -2.775  0.00  0.00    +0.230 A 
ATOM     16  C   LIG    1        0.105 -10.393  -3.221  0.00  0.00    +0.080 A 
ATOM     17  C   LIG    1        1.306  -9.853  -2.857  0.00  0.00    -0.030 A 
ATOM     18  C   LIG    1        1.291  -8.691  -2.056  0.00  0.00    +0.480 A 
ATOM     19  O   LIG    1        2.337  -8.170  -1.704  0.00  0.00    -0.530 OA
ENDBRANCH  12  13
ENDBRANCH  11  12
ENDBRANCH   2  11
TORSDOF 4
ENDMDL
MODEL     1461
REMARK  Name = ZINC000252605381
REMARK                            x       y       z     vdW  Elec       q    Type
REMARK                         _______ _______ _______ _____ _____    ______ ____
ROOT
ATOM      1  C   LIG    1       -2.579  -3.190   0.010  0.00  0.00    +0.080 C 
ATOM      2  C   LIG    1       -2.785  -4.538   0.004  0.00  0.00    +0.090 A 
ATOM      3  N   LIG    1       -1.828  -5.520  -0.004  0.00  0.00    -0.520 NA
ATOM      4  C   LIG    1       -2.405  -6.690  -0.007  0.00  0.00    +0.620 A 
ATOM      5  N   LIG    1       -3.772  -6.568  -0.001  0.00  0.00    -0.400 N 
ATOM      6  N   LIG    1       -4.999  -7.245   0.001  0.00  0.00    -0.290 NA
ATOM      7  C   LIG    1       -5.942  -6.337   0.009  0.00  0.00    +0.460 A 
ATOM      8  N   LIG    1       -5.392  -5.126   0.012  0.00  0.00    -0.500 NA
ATOM      9  C   LIG    1       -4.077  -5.235   0.013  0.00  0.00    +0.290 A 
ENDROOT
BRANCH   4  10
ATOM     10  N   LIG    1       -1.728  -7.895  -0.015  0.00  0.00    -0.810 N 
ATOM     11  H   LIG    1       -2.222  -8.729  -0.017  0.00  0.00    +0.420 HD
ATOM     12  H   LIG    1       -0.758  -7.906  -0.020  0.00  0.00    +0.430 HD
ENDBRANCH   4  10
BRANCH   1  13
ATOM     13  S   LIG    1       -0.938  -2.550  -0.003  0.00  0.00    +0.080 S 
BRANCH  13  14
ATOM     14  C   LIG    1       -1.293  -0.775   0.010  0.00  0.00    +0.070 C 
BRANCH  14  18
ATOM     15  N   LIG    1       -0.016   1.344   0.009  0.00  0.00    -0.850 N 
ATOM     16  H   LIG    1       -0.863   1.817   0.016  0.00  0.00    +0.400 HD
ATOM     17  H   LIG    1        0.817   1.840   0.004  0.00  0.00    +0.410 HD
ATOM     18  C   LIG    1        0.002  -0.004   0.002  0.00  0.00    +0.540 C 
ATOM     19  O   LIG    1        1.060  -0.596  -0.011  0.00  0.00    -0.520 OA
ENDBRANCH  14  18
ENDBRANCH  13  14
ENDBRANCH   1  13
TORSDOF 4
ENDMDL
MODEL     1462
REMARK  Name = ZINC000000057348
REMARK                            x       y       z     vdW  Elec       q    Type
REMARK                         _______ _______ _______ _____ _____    ______ ____
ROOT
ATOM      1  N   LIG    1        0.844  -1.956  -1.207  0.00  0.00    -0.410 N 
ATOM      2  C   LIG    1        1.904  -2.655  -0.756  0.00  0.00    +0.490 A 
ATOM      3  N   LIG    1        1.665  -3.937  -0.861  0.00  0.00    -0.500 NA
ATOM      4  C   LIG    1        0.450  -4.130  -1.380  0.00  0.00    +0.310 A 
ATOM      5  N   LIG    1       -0.291  -5.256  -1.699  0.00  0.00    -0.510 N 
ATOM      6  C   LIG    1        0.270  -6.590  -1.470  0.00  0.00    +0.350 C 
ATOM      7  C   LIG    1       -1.523  -5.127  -2.228  0.00  0.00    +0.710 A 
ATOM      8  O   LIG    1       -2.157  -6.127  -2.505  0.00  0.00    -0.540 OA
ATOM      9  N   LIG    1       -2.071  -3.921  -2.453  0.00  0.00    -0.550 N 
ATOM     10  C   LIG    1       -3.417  -3.835  -3.026  0.00  0.00    +0.340 C 
ATOM     11  C   LIG    1       -1.401  -2.787  -2.159  0.00  0.00    +0.590 A 
ATOM     12  O   LIG    1       -1.908  -1.700  -2.369  0.00  0.00    -0.490 OA
ATOM     13  C   LIG    1       -0.104  -2.876  -1.608  0.00  0.00    -0.130 A 
ENDROOT
BRANCH   1  14
ATOM     14  C   LIG    1        0.718  -0.497  -1.257  0.00  0.00    +0.340 C 
BRANCH  14  16
ATOM     15  C   LIG    1       -0.019   1.526   0.010  0.00  0.00    +0.030 C 
ATOM     16  C   LIG    1        0.002  -0.004   0.002  0.00  0.00    +0.150 C 
BRANCH  16  17
ATOM     17  O   LIG    1       -1.339  -0.499   0.012  0.00  0.00    -0.550 OA
ATOM     18  H   LIG    1       -1.853  -0.225   0.784  0.00  0.00    +0.380 HD
ENDBRANCH  16  17
ENDBRANCH  14  16
ENDBRANCH   1  14
TORSDOF 3
ENDMDL
MODEL     1463
REMARK  Name = ZINC000000287837
REMARK                            x       y       z     vdW  Elec       q    Type
REMARK                         _______ _______ _______ _____ _____    ______ ____
ROOT
ATOM      1  C   LIG    1       -2.384   1.153   0.126  0.00  0.00    +0.400 A 
ATOM      2  C   LIG    1       -2.350  -0.233   0.220  0.00  0.00    -0.100 A 
ATOM      3  C   LIG    1       -3.541  -0.934   0.320  0.00  0.00    +0.120 A 
ATOM      4  C   LIG    1       -4.730  -0.223   0.323  0.00  0.00    -0.100 A 
ATOM      5  C   LIG    1       -4.692   1.163   0.226  0.00  0.00    +0.400 A 
ATOM      6  N   LIG    1       -3.537   1.803   0.137  0.00  0.00    -0.480 NA
ENDROOT
BRANCH   1   9
ATOM      7  O   LIG    1       -2.265   3.807   0.053  0.00  0.00    -0.410 OA
ATOM      8  C   LIG    1       -1.207   3.214   0.043  0.00  0.00    +0.480 C 
ATOM      9  N   LIG    1       -1.190   1.866   0.025  0.00  0.00    -0.660 N 
ATOM     10  H   LIG    1       -0.348   1.393  -0.057  0.00  0.00    +0.420 HD
BRANCH   8  11
ATOM     11  C   LIG    1        0.088   3.984   0.058  0.00  0.00    +0.220 C 
BRANCH  11  12
ATOM     12  O   LIG    1       -0.191   5.385   0.082  0.00  0.00    -0.550 OA
ATOM     13  H   LIG    1        0.599   5.943   0.092  0.00  0.00    +0.390 HD
ENDBRANCH  11  12
ENDBRANCH   8  11
ENDBRANCH   1   9
BRANCH   5  14
ATOM     14  N   LIG    1       -5.884   1.887   0.228  0.00  0.00    -0.660 N 
ATOM     15  H   LIG    1       -6.727   1.431   0.376  0.00  0.00    +0.420 HD
ATOM     16  C   LIG    1       -5.863   3.219   0.025  0.00  0.00    +0.480 C 
ATOM     17  O   LIG    1       -4.803   3.802  -0.067  0.00  0.00    -0.410 OA
BRANCH  16  18
ATOM     18  C   LIG    1       -7.156   3.984  -0.088  0.00  0.00    +0.220 C 
BRANCH  18  19
ATOM     19  O   LIG    1       -6.874   5.369  -0.300  0.00  0.00    -0.550 OA
ATOM     20  H   LIG    1       -7.662   5.923  -0.382  0.00  0.00    +0.390 HD
ENDBRANCH  18  19
ENDBRANCH  16  18
ENDBRANCH   5  14
TORSDOF 6
ENDMDL
MODEL     1464
REMARK  Name = ZINC000036365593
REMARK                            x       y       z     vdW  Elec       q    Type
REMARK                         _______ _______ _______ _____ _____    ______ ____
ROOT
ATOM      1  O   LIG    1        0.002  -0.004   0.002  0.00  0.00    -0.460 OA
ATOM      2  C   LIG    1       -0.014   1.208   0.009  0.00  0.00    +0.520 C 
ATOM      3  C   LIG    1       -1.235   2.107   0.032  0.00  0.00    +0.320 C 
ATOM      4  N   LIG    1       -0.664   3.465   0.031  0.00  0.00    -0.730 N 
ATOM      5  H   LIG    1       -1.157   4.301   0.043  0.00  0.00    +0.450 HD
ATOM      6  C   LIG    1        0.673   3.321   0.011  0.00  0.00    +0.700 C 
ATOM      7  O   LIG    1        1.453   4.253   0.005  0.00  0.00    -0.530 OA
ATOM      8  N   LIG    1        1.048   2.037   0.003  0.00  0.00    -0.570 N 
ENDROOT
BRANCH   8   9
ATOM      9  C   LIG    1        2.443   1.587  -0.018  0.00  0.00    +0.290 C 
ATOM     10  C   LIG    1        3.147   2.143  -1.268  0.00  0.00    +0.080 C 
ATOM     11  C   LIG    1        4.666   1.915  -1.060  0.00  0.00    -0.290 C 
ATOM     12  S   LIG    1        4.902   2.382   0.697  0.00  0.00    +2.400 S 
ATOM     13  O   LIG    1        5.209   3.767   0.780  0.00  0.00    -0.920 OA
ATOM     14  O   LIG    1        5.747   1.430   1.328  0.00  0.00    -0.930 OA
ATOM     15  C   LIG    1        3.175   2.111   1.233  0.00  0.00    -0.320 C 
ENDBRANCH   8   9
TORSDOF 1
ENDMDL
MODEL     1465
REMARK  Name = ZINC000002857401
REMARK                            x       y       z     vdW  Elec       q    Type
REMARK                         _______ _______ _______ _____ _____    ______ ____
ROOT
ATOM      1  C   LIG    1        0.657  -2.104  -1.120  0.00  0.00    +0.320 C 
ENDROOT
BRANCH   1   2
ATOM      2  N   LIG    1        1.724  -2.504  -2.041  0.00  0.00    -0.560 N 
ATOM      3  C   LIG    1        1.742  -2.143  -3.329  0.00  0.00    +0.530 C 
ATOM      4  C   LIG    1        2.974  -2.721  -3.991  0.00  0.00    +0.110 C 
ATOM      5  C   LIG    1        3.672  -3.487  -2.849  0.00  0.00    +0.110 C 
ATOM      6  O   LIG    1        0.904  -1.460  -3.879  0.00  0.00    -0.430 OA
ATOM      7  C   LIG    1        2.765  -3.256  -1.661  0.00  0.00    +0.530 C 
ATOM      8  O   LIG    1        2.947  -3.690  -0.544  0.00  0.00    -0.480 OA
ENDBRANCH   1   2
BRANCH   1   9
ATOM      9  C   LIG    1        0.598  -0.600  -1.043  0.00  0.00    +0.460 C 
ATOM     10  O   LIG    1        1.088   0.070  -1.921  0.00  0.00    -0.460 OA
BRANCH   9  12
ATOM     11  C   LIG    1       -0.018   1.448   0.010  0.00  0.00    +0.290 C 
ATOM     12  O   LIG    1        0.002  -0.004   0.002  0.00  0.00    -0.340 OA
ENDBRANCH   9  12
ENDBRANCH   1   9
BRANCH   1  13
ATOM     13  C   LIG    1       -0.662  -2.633  -1.619  0.00  0.00    +0.460 C 
ATOM     14  O   LIG    1       -0.785  -2.952  -2.778  0.00  0.00    -0.460 OA
BRANCH  13  15
ATOM     15  O   LIG    1       -1.700  -2.751  -0.776  0.00  0.00    -0.340 OA
ATOM     16  C   LIG    1       -2.940  -3.268  -1.326  0.00  0.00    +0.290 C 
ENDBRANCH  13  15
ENDBRANCH   1  13
TORSDOF 5
ENDMDL
MODEL     1466
REMARK  Name = ZINC000029320484
REMARK                            x       y       z     vdW  Elec       q    Type
REMARK                         _______ _______ _______ _____ _____    ______ ____
ROOT
ATOM      1  C   LIG    1       -3.824  -4.817  -0.341  0.00  0.00    +0.260 C 
ENDROOT
BRANCH   1   5
ATOM      2  N   LIG    1       -3.359  -1.175  -0.141  0.00  0.00    -0.740 N 
ATOM      3  H   LIG    1       -2.402  -1.095  -0.274  0.00  0.00    +0.400 HD
ATOM      4  C   LIG    1       -3.941  -2.391  -0.146  0.00  0.00    +0.710 C 
ATOM      5  N   LIG    1       -3.192  -3.495  -0.336  0.00  0.00    -0.710 N 
ATOM      6  H   LIG    1       -2.235  -3.415  -0.469  0.00  0.00    +0.410 HD
ATOM      7  O   LIG    1       -5.141  -2.492   0.021  0.00  0.00    -0.590 OA
BRANCH   2   8
ATOM      8  C   LIG    1       -4.173   0.025   0.066  0.00  0.00    +0.280 C 
BRANCH   8  10
ATOM      9  C   LIG    1       -4.139   2.523   0.117  0.00  0.00    +0.030 C 
ATOM     10  C   LIG    1       -3.275   1.263   0.026  0.00  0.00    -0.030 C 
ATOM     11  C   LIG    1       -2.303   1.226   1.207  0.00  0.00    +0.020 C 
ENDBRANCH   8  10
ENDBRANCH   2   8
ENDBRANCH   1   5
BRANCH   1  12
ATOM     12  C   LIG    1       -3.948  -5.320   1.074  0.00  0.00    +0.510 C 
ATOM     13  O   LIG    1       -3.202  -4.902   1.934  0.00  0.00    -0.510 OA
ATOM     14  N   LIG    1       -4.888  -6.235   1.384  0.00  0.00    -0.850 N 
ATOM     15  H   LIG    1       -4.922  -6.612   2.277  0.00  0.00    +0.410 HD
ATOM     16  H   LIG    1       -5.530  -6.517   0.714  0.00  0.00    +0.400 HD
ENDBRANCH   1  12
BRANCH   1  17
ATOM     17  C   LIG    1       -2.980  -5.774  -1.142  0.00  0.00    +0.530 C 
ATOM     18  O   LIG    1       -1.788  -5.583  -1.256  0.00  0.00    -0.520 OA
ATOM     19  N   LIG    1       -3.550  -6.843  -1.733  0.00  0.00    -0.840 N 
ATOM     20  H   LIG    1       -2.997  -7.498  -2.188  0.00  0.00    +0.410 HD
ATOM     21  H   LIG    1       -4.513  -6.958  -1.704  0.00  0.00    +0.410 HD
ENDBRANCH   1  17
TORSDOF 5
ENDMDL
MODEL     1467
REMARK  Name = ZINC000012999924
REMARK                            x       y       z     vdW  Elec       q    Type
REMARK                         _______ _______ _______ _____ _____    ______ ____
ROOT
ATOM      1  C   LIG    1        2.762  -4.195   0.060  0.00  0.00    +0.520 C 
ATOM      2  N   LIG    1        2.258  -5.444   0.119  0.00  0.00    -0.700 N 
ATOM      3  H   LIG    1        1.303  -5.577   0.225  0.00  0.00    +0.420 HD
ATOM      4  O   LIG    1        3.956  -4.029  -0.072  0.00  0.00    -0.530 OA
ENDROOT
BRANCH   1   5
ATOM      5  C   LIG    1        1.842  -3.006   0.159  0.00  0.00    +0.120 C 
BRANCH   5  10
ATOM      6  C   LIG    1        4.938   1.861  -0.197  0.00  0.00    +0.090 C 
ATOM      7  C   LIG    1        4.131   0.592  -0.104  0.00  0.00    -0.080 A 
ATOM      8  C   LIG    1        3.629   0.006  -1.252  0.00  0.00    +0.000 A 
ATOM      9  C   LIG    1        2.889  -1.158  -1.167  0.00  0.00    +0.020 A 
ATOM     10  C   LIG    1        2.650  -1.737   0.066  0.00  0.00    -0.080 A 
ATOM     11  C   LIG    1        3.152  -1.152   1.213  0.00  0.00    +0.020 A 
ATOM     12  C   LIG    1        3.896   0.010   1.128  0.00  0.00    +0.000 A 
ENDBRANCH   5  10
ENDBRANCH   1   5
BRANCH   2  13
ATOM     13  C   LIG    1        3.152  -6.600   0.023  0.00  0.00    +0.240 C 
BRANCH  13  14
ATOM     14  C   LIG    1        3.400  -6.924  -1.427  0.00  0.00    +0.520 C 
ATOM     15  O   LIG    1        2.597  -6.586  -2.270  0.00  0.00    -0.510 OA
ATOM     16  N   LIG    1        4.515  -7.590  -1.788  0.00  0.00    -0.850 N 
ATOM     17  H   LIG    1        4.641  -7.861  -2.711  0.00  0.00    +0.410 HD
ATOM     18  H   LIG    1        5.192  -7.798  -1.125  0.00  0.00    +0.400 HD
ENDBRANCH  13  14
BRANCH  13  19
ATOM     19  C   LIG    1        2.515  -7.785   0.701  0.00  0.00    +0.530 C 
ATOM     20  O   LIG    1        1.307  -7.857   0.789  0.00  0.00    -0.510 OA
ATOM     21  N   LIG    1        3.287  -8.767   1.209  0.00  0.00    -0.840 N 
ATOM     22  H   LIG    1        2.876  -9.563   1.581  0.00  0.00    +0.410 HD
ATOM     23  H   LIG    1        4.252  -8.676   1.203  0.00  0.00    +0.400 HD
ENDBRANCH  13  19
ENDBRANCH   2  13
TORSDOF 5
ENDMDL
MODEL     1468
REMARK  Name = ZINC000001050158
REMARK                            x       y       z     vdW  Elec       q    Type
REMARK                         _______ _______ _______ _____ _____    ______ ____
ROOT
ATOM      1  O   LIG    1        0.002  -0.004   0.002  0.00  0.00    -0.930 OA
ATOM      2  S   LIG    1       -0.017   1.417   0.010  0.00  0.00    +2.730 S 
ATOM      3  O   LIG    1        1.162   2.210   0.003  0.00  0.00    -0.920 OA
ENDROOT
BRANCH   2   4
ATOM      4  N   LIG    1       -0.875   1.865   1.354  0.00  0.00    -0.990 NA
ATOM      5  C   LIG    1       -0.686   3.191   1.965  0.00  0.00    +0.270 C 
ATOM      6  C   LIG    1       -2.064   3.837   2.154  0.00  0.00    +0.210 C 
ATOM      7  O   LIG    1       -2.917   2.929   2.855  0.00  0.00    -0.370 OA
ATOM      8  C   LIG    1       -3.169   1.706   2.159  0.00  0.00    +0.220 C 
ATOM      9  C   LIG    1       -1.852   0.953   1.968  0.00  0.00    +0.280 C 
ENDBRANCH   2   4
BRANCH   2  10
ATOM     10  C   LIG    1       -0.957   1.909  -1.397  0.00  0.00    -0.300 A 
ATOM     11  N   LIG    1       -2.260   1.997  -1.447  0.00  0.00    -0.220 NA
ATOM     12  N   LIG    1       -2.588   2.422  -2.745  0.00  0.00    -0.460 N 
ATOM     13  H   LIG    1       -3.478   2.581  -3.097  0.00  0.00    +0.450 HD
ATOM     14  C   LIG    1       -1.425   2.564  -3.402  0.00  0.00    +0.510 A 
ATOM     15  N   LIG    1       -0.454   2.258  -2.580  0.00  0.00    -0.480 NA
ENDBRANCH   2  10
TORSDOF 2
ENDMDL
MODEL     1469
REMARK  Name = ZINC000003035136
REMARK                            x       y       z     vdW  Elec       q    Type
REMARK                         _______ _______ _______ _____ _____    ______ ____
ROOT
ATOM      1  C   LIG    1       -4.864   0.688   0.029  0.00  0.00    +0.210 C 
ATOM      2  C   LIG    1       -4.830  -0.109  -1.291  0.00  0.00    -0.290 C 
ATOM      3  S   LIG    1       -6.611  -0.407  -1.635  0.00  0.00    +2.410 S 
ATOM      4  C   LIG    1       -7.154   1.212  -0.955  0.00  0.00    -0.300 C 
ATOM      5  O   LIG    1       -7.091  -1.462  -0.813  0.00  0.00    -0.890 OA
ATOM      6  O   LIG    1       -6.831  -0.438  -3.039  0.00  0.00    -0.900 OA
ATOM      7  C   LIG    1       -6.179   1.436   0.216  0.00  0.00    +0.190 C 
ENDROOT
BRANCH   1   8
ATOM      8  N   LIG    1       -3.761   1.658   0.029  0.00  0.00    -0.500 N 
ATOM      9  H   LIG    1       -3.826   2.242  -0.791  0.00  0.00    +0.420 HD
ATOM     10  H   LIG    1       -3.818   2.233   0.856  0.00  0.00    +0.430 HD
BRANCH   8  11
ATOM     11  C   LIG    1       -2.479   0.941   0.019  0.00  0.00    +0.290 C 
BRANCH  11  12
ATOM     12  C   LIG    1       -1.330   1.951   0.019  0.00  0.00    -0.060 C 
BRANCH  12  14
ATOM     13  O   LIG    1        0.002  -0.004   0.002  0.00  0.00    -0.690 OA
ATOM     14  C   LIG    1       -0.015   1.215   0.009  0.00  0.00    +0.500 C 
ATOM     15  O   LIG    1        1.033   1.839   0.002  0.00  0.00    -0.670 OA
ENDBRANCH  12  14
ENDBRANCH  11  12
ENDBRANCH   8  11
ENDBRANCH   1   8
BRANCH   7  16
ATOM     16  O   LIG    1       -6.794   0.984   1.424  0.00  0.00    -0.540 OA
ATOM     17  H   LIG    1       -7.606   1.456   1.652  0.00  0.00    +0.410 HD
ENDBRANCH   7  16
TORSDOF 5
ENDMDL
MODEL     1470
REMARK  Name = ZINC000003035138
REMARK                            x       y       z     vdW  Elec       q    Type
REMARK                         _______ _______ _______ _____ _____    ______ ____
ROOT
ATOM      1  C   LIG    1       -4.864   0.688   0.029  0.00  0.00    +0.210 C 
ATOM      2  C   LIG    1       -4.860  -0.107   1.360  0.00  0.00    -0.300 C 
ATOM      3  S   LIG    1       -6.567  -0.789   1.374  0.00  0.00    +2.410 S 
ATOM      4  C   LIG    1       -7.344   0.682   0.605  0.00  0.00    -0.310 C 
ATOM      5  O   LIG    1       -7.016  -0.924   2.716  0.00  0.00    -0.900 OA
ATOM      6  O   LIG    1       -6.647  -1.892   0.482  0.00  0.00    -0.900 OA
ATOM      7  C   LIG    1       -6.199   1.427  -0.093  0.00  0.00    +0.210 C 
ENDROOT
BRANCH   1   8
ATOM      8  N   LIG    1       -3.761   1.658   0.029  0.00  0.00    -0.490 N 
ATOM      9  H   LIG    1       -3.826   2.242  -0.791  0.00  0.00    +0.430 HD
ATOM     10  H   LIG    1       -3.818   2.233   0.856  0.00  0.00    +0.430 HD
BRANCH   8  11
ATOM     11  C   LIG    1       -2.479   0.941   0.019  0.00  0.00    +0.270 C 
BRANCH  11  12
ATOM     12  C   LIG    1       -1.330   1.951   0.019  0.00  0.00    -0.060 C 
BRANCH  12  14
ATOM     13  O   LIG    1        0.002  -0.004   0.002  0.00  0.00    -0.690 OA
ATOM     14  C   LIG    1       -0.015   1.215   0.009  0.00  0.00    +0.500 C 
ATOM     15  O   LIG    1        1.033   1.839   0.002  0.00  0.00    -0.670 OA
ENDBRANCH  12  14
ENDBRANCH  11  12
ENDBRANCH   8  11
ENDBRANCH   1   8
BRANCH   7  16
ATOM     16  O   LIG    1       -6.065   2.724   0.492  0.00  0.00    -0.570 OA
ATOM     17  H   LIG    1       -6.850   3.281   0.396  0.00  0.00    +0.420 HD
ENDBRANCH   7  16
TORSDOF 5
ENDMDL
MODEL     1471
REMARK  Name = ZINC000003185526
REMARK                            x       y       z     vdW  Elec       q    Type
REMARK                         _______ _______ _______ _____ _____    ______ ____
ROOT
ATOM      1  C   LIG    1        0.880  -0.358  -1.545  0.00  0.00    -0.430 C 
ATOM      2  C   LIG    1        2.308   0.243  -1.484  0.00  0.00    -0.260 C 
ATOM      3  S   LIG    1        3.147  -0.695  -2.825  0.00  0.00    +2.400 S 
ATOM      4  C   LIG    1        2.258  -2.267  -2.515  0.00  0.00    -0.310 C 
ATOM      5  O   LIG    1        4.524  -0.851  -2.508  0.00  0.00    -0.920 OA
ATOM      6  O   LIG    1        2.763  -0.169  -4.088  0.00  0.00    -0.920 OA
ATOM      7  C   LIG    1        0.996  -1.872  -1.736  0.00  0.00    +0.240 C 
ENDROOT
BRANCH   1   9
ATOM      8  C   LIG    1       -0.022   1.810   0.012  0.00  0.00    -0.270 C 
ATOM      9  S   LIG    1        0.002  -0.004   0.002  0.00  0.00    +2.460 S 
ATOM     10  O   LIG    1       -1.334  -0.474  -0.117  0.00  0.00    -0.930 OA
ATOM     11  O   LIG    1        0.801  -0.452   1.088  0.00  0.00    -0.900 OA
ENDBRANCH   1   9
BRANCH   7  12
ATOM     12  O   LIG    1        1.028  -2.499  -0.453  0.00  0.00    -0.560 OA
ATOM     13  H   LIG    1        1.035  -3.466  -0.488  0.00  0.00    +0.400 HD
ENDBRANCH   7  12
TORSDOF 2
ENDMDL
MODEL     1472
REMARK  Name = ZINC000071773129
REMARK                            x       y       z     vdW  Elec       q    Type
REMARK                         _______ _______ _______ _____ _____    ______ ____
ROOT
ATOM      1  C   LIG    1       -0.217   1.768   0.206  0.00  0.00    +0.350 C 
ATOM      2  N   LIG    1       -0.056   0.313   0.144  0.00  0.00    -0.550 N 
ATOM      3  C   LIG    1       -1.146  -0.477   0.078  0.00  0.00    +0.550 A 
ATOM      4  C   LIG    1       -0.989  -1.873   0.019  0.00  0.00    -0.120 A 
ATOM      5  C   LIG    1        0.274  -2.400   0.030  0.00  0.00    +0.450 A 
ATOM      6  N   LIG    1        1.358  -1.554   0.098  0.00  0.00    -0.540 N 
ATOM      7  C   LIG    1        2.714  -2.107   0.110  0.00  0.00    +0.350 C 
ATOM      8  O   LIG    1       -2.261   0.016   0.070  0.00  0.00    -0.500 OA
ATOM      9  C   LIG    1        1.178  -0.221   0.149  0.00  0.00    +0.700 A 
ATOM     10  O   LIG    1        2.147   0.511   0.208  0.00  0.00    -0.530 OA
ENDROOT
BRANCH   5  11
ATOM     11  N   LIG    1        0.460  -3.763  -0.028  0.00  0.00    -0.840 N 
ATOM     12  H   LIG    1        1.355  -4.127  -0.110  0.00  0.00    +0.410 HD
ATOM     13  H   LIG    1       -0.305  -4.358   0.014  0.00  0.00    +0.420 HD
ENDBRANCH   5  11
BRANCH   4  14
ATOM     14  N   LIG    1       -2.119  -2.720  -0.051  0.00  0.00    -1.030 N 
ATOM     15  H   LIG    1       -2.002  -3.678  -0.151  0.00  0.00    +0.420 HD
BRANCH  14  16
ATOM     16  S   LIG    1       -3.642  -2.077   0.037  0.00  0.00    +2.630 S 
ATOM     17  O   LIG    1       -3.597  -1.224   1.172  0.00  0.00    -0.930 OA
ATOM     18  O   LIG    1       -4.502  -3.208   0.005  0.00  0.00    -0.970 OA
ATOM     19  C   LIG    1       -3.812  -1.105  -1.484  0.00  0.00    -0.280 C 
ENDBRANCH  14  16
ENDBRANCH   4  14
TORSDOF 3
ENDMDL
