MODEL        1
REMARK  Name = ZINC000203215459
REMARK                            x       y       z     vdW  Elec       q    Type
REMARK                         _______ _______ _______ _____ _____    ______ ____
ROOT
ATOM      1  C   LIG    1       -0.032   5.396   0.033  0.00  0.00    +0.440 C 
ATOM      2  C   LIG    1        0.602   5.895   1.333  0.00  0.00    +0.250 C 
ATOM      3  N   LIG    1        0.664   7.363   1.313  0.00  0.00    -0.500 N 
ATOM      4  C   LIG    1        1.477   7.802   0.171  0.00  0.00    +0.270 C 
ATOM      5  C   LIG    1        0.841   7.299  -1.128  0.00  0.00    +0.180 C 
ATOM      6  H   LIG    1        1.082   7.694   2.170  0.00  0.00    +0.450 HD
ATOM      7  H   LIG    1       -0.268   7.738   1.226  0.00  0.00    +0.430 HD
ATOM      8  O   LIG    1        0.731   5.874  -1.079  0.00  0.00    -0.340 OA
ENDROOT
BRANCH   1  13
ATOM      9  O   LIG    1        0.002  -0.004   0.002  0.00  0.00    -0.480 OA
ATOM     10  C   LIG    1       -0.014   1.214   0.009  0.00  0.00    +0.540 A 
ATOM     11  C   LIG    1       -1.246   1.911   0.030  0.00  0.00    -0.070 A 
ATOM     12  C   LIG    1       -1.236   3.261   0.038  0.00  0.00    +0.340 A 
ATOM     13  N   LIG    1       -0.043   3.930   0.025  0.00  0.00    -0.530 N 
ATOM     14  C   LIG    1        1.121   3.256   0.005  0.00  0.00    +0.710 A 
ATOM     15  O   LIG    1        2.170   3.870  -0.006  0.00  0.00    -0.530 OA
ATOM     16  N   LIG    1        1.140   1.910   0.001  0.00  0.00    -0.660 N 
ATOM     17  H   LIG    1        1.988   1.439  -0.013  0.00  0.00    +0.440 HD
ENDBRANCH   1  13
BRANCH   5  18
ATOM     18  C   LIG    1        1.717   7.704  -2.316  0.00  0.00    +0.230 C 
BRANCH  18  19
ATOM     19  O   LIG    1        1.066   7.337  -3.534  0.00  0.00    -0.560 OA
ATOM     20  H   LIG    1        1.566   7.564  -4.330  0.00  0.00    +0.400 HD
ENDBRANCH  18  19
ENDBRANCH   5  18
TORSDOF 3
ENDMDL
MODEL        2
REMARK  Name = ZINC000067897702
REMARK                            x       y       z     vdW  Elec       q    Type
REMARK                         _______ _______ _______ _____ _____    ______ ____
ROOT
ATOM      1  N   LIG    1       -1.376  -0.512   0.012  0.00  0.00    -0.380 N 
ATOM      2  C   LIG    1       -1.361  -1.988   0.011  0.00  0.00    +0.250 C 
ATOM      3  C   LIG    1       -2.138  -2.449  -1.233  0.00  0.00    +0.240 C 
ATOM      4  C   LIG    1       -3.009  -1.229  -1.599  0.00  0.00    +0.200 C 
ATOM      5  O   LIG    1       -4.167  -1.201  -0.761  0.00  0.00    -0.360 OA
ATOM      6  C   LIG    1       -5.051  -2.306  -0.952  0.00  0.00    +0.320 C 
ATOM      7  C   LIG    1       -4.278  -3.589  -0.811  0.00  0.00    +0.490 C 
ATOM      8  O   LIG    1       -4.873  -4.617  -0.568  0.00  0.00    -0.500 OA
ATOM      9  N   LIG    1       -2.937  -3.624  -0.939  0.00  0.00    -0.590 N 
ATOM     10  C   LIG    1       -2.086  -0.051  -1.200  0.00  0.00    +0.300 C 
ATOM     11  H   LIG    1       -1.856  -0.178   0.835  0.00  0.00    +0.430 HD
ENDROOT
BRANCH   1  13
ATOM     12  C   LIG    1       -0.019   1.526   0.010  0.00  0.00    +0.090 C 
ATOM     13  C   LIG    1        0.002  -0.004   0.002  0.00  0.00    +0.160 C 
ATOM     14  C   LIG    1        0.742  -0.511   1.242  0.00  0.00    +0.090 C 
ENDBRANCH   1  13
BRANCH   9  15
ATOM     15  C   LIG    1       -2.263  -4.916  -0.794  0.00  0.00    +0.320 C 
BRANCH  15  16
ATOM     16  C   LIG    1       -2.170  -5.587  -2.141  0.00  0.00    +0.500 C 
ATOM     17  O   LIG    1       -2.623  -5.040  -3.124  0.00  0.00    -0.540 OA
ATOM     18  N   LIG    1       -1.585  -6.796  -2.252  0.00  0.00    -0.850 N 
ATOM     19  H   LIG    1       -1.525  -7.228  -3.119  0.00  0.00    +0.410 HD
ATOM     20  H   LIG    1       -1.223  -7.234  -1.466  0.00  0.00    +0.410 HD
ENDBRANCH  15  16
ENDBRANCH   9  15
TORSDOF 3
ENDMDL
MODEL        3
REMARK  Name = ZINC000521824926
REMARK                            x       y       z     vdW  Elec       q    Type
REMARK                         _______ _______ _______ _____ _____    ______ ____
ROOT
ATOM      1  N   LIG    1       -2.820   1.421   2.432  0.00  0.00    -0.730 N 
ATOM      2  H   LIG    1       -2.350   1.982   3.069  0.00  0.00    +0.410 HD
ATOM      3  C   LIG    1       -4.104   1.077   2.656  0.00  0.00    +0.720 C 
ATOM      4  N   LIG    1       -4.735   1.512   3.765  0.00  0.00    -0.500 N 
ATOM      5  C   LIG    1       -4.064   2.312   4.662  0.00  0.00    +0.270 A 
ATOM      6  C   LIG    1       -4.698   2.745   5.771  0.00  0.00    +0.000 A 
ATOM      7  C   LIG    1       -6.048   2.365   5.988  0.00  0.00    +0.530 A 
ATOM      8  N   LIG    1       -6.669   1.580   5.084  0.00  0.00    -0.640 N 
ATOM      9  H   LIG    1       -7.591   1.316   5.227  0.00  0.00    +0.450 HD
ATOM     10  O   LIG    1       -6.641   2.744   6.981  0.00  0.00    -0.460 OA
ATOM     11  F   LIG    1       -4.056   3.531   6.663  0.00  0.00    -0.080 F 
ATOM     12  C   LIG    1       -6.016   1.165   3.983  0.00  0.00    +0.700 A 
ATOM     13  O   LIG    1       -6.590   0.458   3.178  0.00  0.00    -0.460 OA
ATOM     14  O   LIG    1       -4.693   0.375   1.858  0.00  0.00    -0.480 OA
ENDROOT
BRANCH   1  15
ATOM     15  C   LIG    1       -2.135   0.949   1.227  0.00  0.00    +0.310 C 
BRANCH  15  16
ATOM     16  C   LIG    1       -0.699   1.479   1.216  0.00  0.00    +0.260 C 
BRANCH  16  17
ATOM     17  N   LIG    1       -0.012   1.005   0.008  0.00  0.00    -0.630 N 
ATOM     18  H   LIG    1       -0.500   1.339  -0.810  0.00  0.00    +0.440 HD
ATOM     19  H   LIG    1        0.935   1.354   0.000  0.00  0.00    +0.450 HD
ATOM     20  H   LIG    1        0.002  -0.004   0.002  0.00  0.00    +0.440 HD
ENDBRANCH  16  17
ENDBRANCH  15  16
ENDBRANCH   1  15
TORSDOF 3
ENDMDL
MODEL        4
REMARK  Name = ZINC000109833657
REMARK                            x       y       z     vdW  Elec       q    Type
REMARK                         _______ _______ _______ _____ _____    ______ ____
ROOT
ATOM      1  C   LIG    1       -3.570  -2.429  -2.458  0.00  0.00    +0.500 C 
ATOM      2  O   LIG    1       -2.844  -2.536  -3.423  0.00  0.00    -0.410 OA
ENDROOT
BRANCH   1   3
ATOM      3  C   LIG    1       -3.070  -1.762  -1.218  0.00  0.00    +0.500 C 
ATOM      4  O   LIG    1       -3.796  -1.654  -0.253  0.00  0.00    -0.440 OA
BRANCH   3   5
ATOM      5  O   LIG    1       -1.815  -1.281  -1.172  0.00  0.00    -0.310 OA
BRANCH   5   9
ATOM      6  C   LIG    1        0.002  -0.004   0.002  0.00  0.00    +0.140 C 
ATOM      7  C   LIG    1        0.232  -0.631   1.390  0.00  0.00    +0.270 C 
ATOM      8  O   LIG    1       -0.810  -1.556   1.020  0.00  0.00    -0.380 OA
ATOM      9  C   LIG    1       -1.397  -0.645   0.065  0.00  0.00    +0.370 C 
BRANCH   6  10
ATOM     10  N   LIG    1       -0.018   1.465   0.010  0.00  0.00    -0.840 NA
ATOM     11  H   LIG    1       -0.556   1.823  -0.764  0.00  0.00    +0.350 HD
ATOM     12  H   LIG    1        0.919   1.839   0.003  0.00  0.00    +0.360 HD
ENDBRANCH   6  10
ENDBRANCH   5   9
ENDBRANCH   3   5
ENDBRANCH   1   3
BRANCH   1  13
ATOM     13  O   LIG    1       -4.826  -2.910  -2.504  0.00  0.00    -0.350 OA
BRANCH  13  14
ATOM     14  C   LIG    1       -5.243  -3.545  -3.741  0.00  0.00    +0.390 C 
ATOM     15  O   LIG    1       -5.769  -2.626  -4.720  0.00  0.00    -0.330 OA
ATOM     16  C   LIG    1       -7.122  -2.754  -4.237  0.00  0.00    +0.290 C 
ATOM     17  C   LIG    1       -6.669  -4.127  -3.693  0.00  0.00    +0.180 C 
BRANCH  17  18
ATOM     18  N   LIG    1       -7.150  -4.415  -2.335  0.00  0.00    -0.630 N 
ATOM     19  H   LIG    1       -7.089  -3.580  -1.772  0.00  0.00    +0.440 HD
ATOM     20  H   LIG    1       -6.582  -5.141  -1.924  0.00  0.00    +0.440 HD
ATOM     21  H   LIG    1       -8.110  -4.723  -2.377  0.00  0.00    +0.440 HD
ENDBRANCH  17  18
ENDBRANCH  13  14
ENDBRANCH   1  13
TORSDOF 7
ENDMDL
MODEL        5
REMARK  Name = ZINC000109833657
REMARK                            x       y       z     vdW  Elec       q    Type
REMARK                         _______ _______ _______ _____ _____    ______ ____
ROOT
ATOM      1  C   LIG    1       -4.868   0.561  -0.811  0.00  0.00    +0.500 C 
ATOM      2  O   LIG    1       -4.678   1.694  -1.198  0.00  0.00    -0.420 OA
ENDROOT
BRANCH   1   3
ATOM      3  C   LIG    1       -3.715  -0.278  -0.362  0.00  0.00    +0.490 C 
ATOM      4  O   LIG    1       -3.905  -1.411   0.025  0.00  0.00    -0.430 OA
BRANCH   3   5
ATOM      5  O   LIG    1       -2.468   0.226  -0.386  0.00  0.00    -0.300 OA
BRANCH   5   9
ATOM      6  C   LIG    1        0.002  -0.004   0.002  0.00  0.00    +0.110 C 
ATOM      7  C   LIG    1        0.232  -0.631   1.390  0.00  0.00    +0.260 C 
ATOM      8  O   LIG    1       -1.205  -0.643   1.498  0.00  0.00    -0.370 OA
ATOM      9  C   LIG    1       -1.397  -0.645   0.065  0.00  0.00    +0.370 C 
BRANCH   6  10
ATOM     10  N   LIG    1       -0.018   1.465   0.010  0.00  0.00    -0.820 NA
ATOM     11  H   LIG    1       -0.556   1.823  -0.764  0.00  0.00    +0.360 HD
ATOM     12  H   LIG    1        0.919   1.839   0.003  0.00  0.00    +0.360 HD
ENDBRANCH   6  10
ENDBRANCH   5   9
ENDBRANCH   3   5
ENDBRANCH   1   3
BRANCH   1  13
ATOM     13  O   LIG    1       -6.115   0.058  -0.787  0.00  0.00    -0.310 OA
BRANCH  13  14
ATOM     14  C   LIG    1       -7.186   0.929  -1.238  0.00  0.00    +0.380 C 
ATOM     15  O   LIG    1       -7.486   0.805  -2.643  0.00  0.00    -0.340 OA
ATOM     16  C   LIG    1       -8.911   0.860  -2.430  0.00  0.00    +0.310 C 
ATOM     17  C   LIG    1       -8.596   0.354  -1.007  0.00  0.00    +0.160 C 
BRANCH  17  18
ATOM     18  N   LIG    1       -9.356   1.039   0.048  0.00  0.00    -0.630 N 
ATOM     19  H   LIG    1       -9.407   2.025  -0.161  0.00  0.00    +0.440 HD
ATOM     20  H   LIG    1       -8.895   0.906   0.935  0.00  0.00    +0.440 HD
ATOM     21  H   LIG    1      -10.289   0.656   0.093  0.00  0.00    +0.450 HD
ENDBRANCH  17  18
ENDBRANCH  13  14
ENDBRANCH   1  13
TORSDOF 7
ENDMDL
MODEL        6
REMARK  Name = ZINC000083871895
REMARK                            x       y       z     vdW  Elec       q    Type
REMARK                         _______ _______ _______ _____ _____    ______ ____
ROOT
ATOM      1  C   LIG    1       -0.073   1.489   0.060  0.00  0.00    +0.210 C 
ATOM      2  N   LIG    1       -0.033   0.020   0.041  0.00  0.00    -0.540 NA
ATOM      3  C   LIG    1       -1.385  -0.542  -0.072  0.00  0.00    +0.180 C 
ATOM      4  C   LIG    1       -1.289  -2.059  -0.270  0.00  0.00    +0.310 C 
ATOM      5  N   LIG    1       -0.469  -2.621   0.814  0.00  0.00    -0.580 N 
ATOM      6  C   LIG    1        0.846  -2.017   1.077  0.00  0.00    +0.290 C 
ATOM      7  C   LIG    1       -0.911  -3.662   1.546  0.00  0.00    +0.500 C 
ATOM      8  O   LIG    1       -2.035  -4.086   1.381  0.00  0.00    -0.520 OA
ATOM      9  C   LIG    1        0.666  -0.502   1.223  0.00  0.00    +0.180 C 
ENDROOT
BRANCH   7  10
ATOM     10  C   LIG    1       -0.009  -4.300   2.571  0.00  0.00    +0.140 C 
ATOM     11  C   LIG    1        1.028  -5.176   1.864  0.00  0.00    +0.290 C 
ATOM     12  O   LIG    1        1.846  -5.822   2.844  0.00  0.00    -0.350 OA
ATOM     13  C   LIG    1        1.107  -6.625   3.769  0.00  0.00    +0.270 C 
ATOM     14  C   LIG    1        0.071  -5.750   4.480  0.00  0.00    +0.250 C 
ATOM     15  N   LIG    1       -0.810  -5.129   3.482  0.00  0.00    -0.490 N 
ATOM     16  H   LIG    1       -1.281  -5.849   2.954  0.00  0.00    +0.440 HD
ATOM     17  H   LIG    1       -1.494  -4.553   3.949  0.00  0.00    +0.440 HD
ENDBRANCH   7  10
TORSDOF 1
ENDMDL
MODEL        7
REMARK  Name = ZINC000083871896
REMARK                            x       y       z     vdW  Elec       q    Type
REMARK                         _______ _______ _______ _____ _____    ______ ____
ROOT
ATOM      1  C   LIG    1        0.008   1.446  -0.036  0.00  0.00    +0.210 C 
ATOM      2  N   LIG    1        0.020  -0.023  -0.031  0.00  0.00    -0.540 NA
ATOM      3  C   LIG    1       -1.344  -0.560  -0.117  0.00  0.00    +0.180 C 
ATOM      4  C   LIG    1       -1.280  -2.081  -0.292  0.00  0.00    +0.310 C 
ATOM      5  N   LIG    1       -0.458  -2.642   0.791  0.00  0.00    -0.590 N 
ATOM      6  C   LIG    1        0.872  -2.060   1.028  0.00  0.00    +0.280 C 
ATOM      7  C   LIG    1       -0.911  -3.662   1.546  0.00  0.00    +0.500 C 
ATOM      8  O   LIG    1       -2.045  -4.067   1.401  0.00  0.00    -0.520 OA
ATOM      9  C   LIG    1        0.723  -0.540   1.150  0.00  0.00    +0.180 C 
ENDROOT
BRANCH   7  10
ATOM     10  C   LIG    1       -0.009  -4.300   2.571  0.00  0.00    +0.140 C 
ATOM     11  C   LIG    1       -0.086  -3.511   3.881  0.00  0.00    +0.280 C 
ATOM     12  O   LIG    1        0.729  -4.152   4.866  0.00  0.00    -0.350 OA
ATOM     13  C   LIG    1        0.363  -5.512   5.117  0.00  0.00    +0.270 C 
ATOM     14  C   LIG    1        0.442  -6.304   3.809  0.00  0.00    +0.250 C 
ATOM     15  N   LIG    1       -0.439  -5.684   2.810  0.00  0.00    -0.490 N 
ATOM     16  H   LIG    1       -0.388  -6.206   1.947  0.00  0.00    +0.440 HD
ATOM     17  H   LIG    1       -1.389  -5.687   3.150  0.00  0.00    +0.440 HD
ENDBRANCH   7  10
TORSDOF 1
ENDMDL
MODEL        8
REMARK  Name = ZINC000090715615
REMARK                            x       y       z     vdW  Elec       q    Type
REMARK                         _______ _______ _______ _____ _____    ______ ____
ROOT
ATOM      1  C   LIG    1        0.002  -0.004   0.002  0.00  0.00    +0.680 A 
ATOM      2  N   LIG    1       -1.140  -0.684   0.004  0.00  0.00    -0.610 NA
ATOM      3  C   LIG    1       -1.122  -2.014  -0.004  0.00  0.00    +0.700 A 
ATOM      4  N   LIG    1        0.038  -2.663  -0.014  0.00  0.00    -0.620 N 
ATOM      5  C   LIG    1        1.180  -1.982  -0.016  0.00  0.00    +0.640 A 
ATOM      6  H   LIG    1        0.051  -3.632  -0.020  0.00  0.00    +0.450 HD
ATOM      7  N   LIG    1        1.162  -0.653  -0.013  0.00  0.00    -0.600 NA
ENDROOT
BRANCH   5   8
ATOM      8  N   LIG    1        2.385  -2.656  -0.026  0.00  0.00    -0.460 N 
ATOM      9  C   LIG    1        2.474  -3.593   1.101  0.00  0.00    +0.230 C 
ATOM     10  C   LIG    1        3.753  -4.423   0.976  0.00  0.00    +0.070 C 
ATOM     11  C   LIG    1        4.965  -3.487   0.969  0.00  0.00    +0.160 C 
ATOM     12  C   LIG    1        4.824  -2.491  -0.185  0.00  0.00    +0.030 C 
ATOM     13  C   LIG    1        3.513  -1.716  -0.026  0.00  0.00    +0.260 C 
BRANCH  11  14
ATOM     14  O   LIG    1        6.159  -4.253   0.795  0.00  0.00    -0.560 OA
ATOM     15  H   LIG    1        6.968  -3.723   0.781  0.00  0.00    +0.390 HD
ENDBRANCH  11  14
ENDBRANCH   5   8
BRANCH   1  16
ATOM     16  N   LIG    1       -0.017   1.376   0.010  0.00  0.00    -0.750 N 
ATOM     17  H   LIG    1       -0.863   1.849   0.016  0.00  0.00    +0.440 HD
ATOM     18  H   LIG    1        0.817   1.872   0.004  0.00  0.00    +0.440 HD
ENDBRANCH   1  16
BRANCH   3  19
ATOM     19  N   LIG    1       -2.308  -2.720  -0.002  0.00  0.00    -0.770 N 
ATOM     20  H   LIG    1       -2.295  -3.690  -0.008  0.00  0.00    +0.430 HD
ATOM     21  H   LIG    1       -3.154  -2.246   0.005  0.00  0.00    +0.450 HD
ENDBRANCH   3  19
TORSDOF 4
ENDMDL
MODEL        9
REMARK  Name = ZINC000003831134
REMARK                            x       y       z     vdW  Elec       q    Type
REMARK                         _______ _______ _______ _____ _____    ______ ____
ROOT
ATOM      1  N   LIG    1       -2.167  -0.015  -1.326  0.00  0.00    -0.370 N 
ATOM      2  C   LIG    1       -1.434  -0.576  -2.467  0.00  0.00    +0.270 C 
ATOM      3  C   LIG    1       -2.180  -0.256  -3.764  0.00  0.00    +0.150 C 
ATOM      4  C   LIG    1       -3.582  -0.870  -3.705  0.00  0.00    +0.120 C 
ATOM      5  C   LIG    1       -4.311  -0.335  -2.469  0.00  0.00    +0.210 C 
ATOM      6  C   LIG    1       -3.485  -0.653  -1.220  0.00  0.00    +0.200 C 
ATOM      7  H   LIG    1       -2.285   0.978  -1.458  0.00  0.00    +0.440 HD
ENDROOT
BRANCH   5   8
ATOM      8  O   LIG    1       -4.476   1.080  -2.587  0.00  0.00    -0.530 OA
ATOM      9  H   LIG    1       -4.988   1.353  -3.361  0.00  0.00    +0.400 HD
ENDBRANCH   5   8
BRANCH   4  10
ATOM     10  O   LIG    1       -3.478  -2.293  -3.621  0.00  0.00    -0.550 OA
ATOM     11  H   LIG    1       -3.021  -2.699  -4.370  0.00  0.00    +0.400 HD
ENDBRANCH   4  10
BRANCH   3  12
ATOM     12  O   LIG    1       -1.465  -0.804  -4.873  0.00  0.00    -0.550 OA
ATOM     13  H   LIG    1       -1.882  -0.639  -5.730  0.00  0.00    +0.400 HD
ENDBRANCH   3  12
BRANCH   1  14
ATOM     14  C   LIG    1       -1.408  -0.257  -0.092  0.00  0.00    +0.270 C 
BRANCH  14  15
ATOM     15  C   LIG    1       -0.089   0.517  -0.145  0.00  0.00    +0.220 C 
BRANCH  15  16
ATOM     16  O   LIG    1       -0.360   1.920  -0.154  0.00  0.00    -0.580 OA
ATOM     17  H   LIG    1        0.432   2.473  -0.186  0.00  0.00    +0.410 HD
ENDBRANCH  15  16
ENDBRANCH  14  15
ENDBRANCH   1  14
BRANCH   6  18
ATOM     18  C   LIG    1       -4.208  -0.120   0.018  0.00  0.00    +0.210 C 
BRANCH  18  19
ATOM     19  O   LIG    1       -4.431   1.284  -0.128  0.00  0.00    -0.550 OA
ATOM     20  H   LIG    1       -4.887   1.690   0.622  0.00  0.00    +0.400 HD
ENDBRANCH  18  19
ENDBRANCH   6  18
TORSDOF 8
ENDMDL
MODEL       10
REMARK  Name = ZINC000004165550
REMARK                            x       y       z     vdW  Elec       q    Type
REMARK                         _______ _______ _______ _____ _____    ______ ____
ROOT
ATOM      1  N   LIG    1       -2.163  -0.024  -1.319  0.00  0.00    -0.370 N 
ATOM      2  C   LIG    1       -1.430  -0.585  -2.461  0.00  0.00    +0.270 C 
ATOM      3  C   LIG    1       -2.170  -0.255  -3.759  0.00  0.00    +0.150 C 
ATOM      4  C   LIG    1       -3.576  -0.859  -3.706  0.00  0.00    +0.110 C 
ATOM      5  C   LIG    1       -4.305  -0.324  -2.470  0.00  0.00    +0.210 C 
ATOM      6  C   LIG    1       -3.485  -0.653  -1.220  0.00  0.00    +0.200 C 
ATOM      7  H   LIG    1       -2.273   0.971  -1.448  0.00  0.00    +0.430 HD
ENDROOT
BRANCH   5   8
ATOM      8  O   LIG    1       -5.592  -0.937  -2.373  0.00  0.00    -0.530 OA
ATOM      9  H   LIG    1       -6.165  -0.773  -3.134  0.00  0.00    +0.400 HD
ENDBRANCH   5   8
BRANCH   4  10
ATOM     10  O   LIG    1       -3.482  -2.283  -3.628  0.00  0.00    -0.540 OA
ATOM     11  H   LIG    1       -3.025  -2.689  -4.378  0.00  0.00    +0.400 HD
ENDBRANCH   4  10
BRANCH   3  12
ATOM     12  O   LIG    1       -1.455  -0.803  -4.868  0.00  0.00    -0.540 OA
ATOM     13  H   LIG    1       -1.868  -0.632  -5.725  0.00  0.00    +0.410 HD
ENDBRANCH   3  12
BRANCH   1  14
ATOM     14  C   LIG    1       -1.409  -0.276  -0.084  0.00  0.00    +0.280 C 
BRANCH  14  15
ATOM     15  C   LIG    1       -0.084   0.487  -0.130  0.00  0.00    +0.220 C 
BRANCH  15  16
ATOM     16  O   LIG    1       -0.343   1.893  -0.134  0.00  0.00    -0.580 OA
ATOM     17  H   LIG    1        0.453   2.440  -0.163  0.00  0.00    +0.410 HD
ENDBRANCH  15  16
ENDBRANCH  14  15
ENDBRANCH   1  14
BRANCH   6  18
ATOM     18  C   LIG    1       -4.208  -0.120   0.018  0.00  0.00    +0.230 C 
BRANCH  18  19
ATOM     19  O   LIG    1       -4.431   1.284  -0.128  0.00  0.00    -0.580 OA
ATOM     20  H   LIG    1       -4.887   1.690   0.622  0.00  0.00    +0.410 HD
ENDBRANCH  18  19
ENDBRANCH   6  18
TORSDOF 8
ENDMDL
MODEL       11
REMARK  Name = ZINC000003831133
REMARK                            x       y       z     vdW  Elec       q    Type
REMARK                         _______ _______ _______ _____ _____    ______ ____
ROOT
ATOM      1  N   LIG    1       -2.167  -0.015  -1.326  0.00  0.00    -0.370 N 
ATOM      2  C   LIG    1       -1.434  -0.576  -2.467  0.00  0.00    +0.280 C 
ATOM      3  C   LIG    1       -2.180  -0.256  -3.764  0.00  0.00    +0.160 C 
ATOM      4  C   LIG    1       -3.582  -0.870  -3.705  0.00  0.00    +0.120 C 
ATOM      5  C   LIG    1       -4.311  -0.335  -2.469  0.00  0.00    +0.210 C 
ATOM      6  C   LIG    1       -3.485  -0.653  -1.220  0.00  0.00    +0.210 C 
ATOM      7  H   LIG    1       -2.285   0.978  -1.458  0.00  0.00    +0.450 HD
ENDROOT
BRANCH   5   8
ATOM      8  O   LIG    1       -4.476   1.080  -2.587  0.00  0.00    -0.520 OA
ATOM      9  H   LIG    1       -4.988   1.353  -3.361  0.00  0.00    +0.390 HD
ENDBRANCH   5   8
BRANCH   4  10
ATOM     10  O   LIG    1       -3.478  -2.293  -3.621  0.00  0.00    -0.550 OA
ATOM     11  H   LIG    1       -3.021  -2.699  -4.370  0.00  0.00    +0.400 HD
ENDBRANCH   4  10
BRANCH   3  12
ATOM     12  O   LIG    1       -2.285   1.161  -3.918  0.00  0.00    -0.550 OA
ATOM     13  H   LIG    1       -2.748   1.436  -4.721  0.00  0.00    +0.400 HD
ENDBRANCH   3  12
BRANCH   1  14
ATOM     14  C   LIG    1       -1.408  -0.257  -0.092  0.00  0.00    +0.260 C 
BRANCH  14  15
ATOM     15  C   LIG    1       -0.089   0.517  -0.145  0.00  0.00    +0.210 C 
BRANCH  15  16
ATOM     16  O   LIG    1       -0.360   1.920  -0.154  0.00  0.00    -0.570 OA
ATOM     17  H   LIG    1        0.432   2.473  -0.186  0.00  0.00    +0.410 HD
ENDBRANCH  15  16
ENDBRANCH  14  15
ENDBRANCH   1  14
BRANCH   6  18
ATOM     18  C   LIG    1       -4.208  -0.120   0.018  0.00  0.00    +0.210 C 
BRANCH  18  19
ATOM     19  O   LIG    1       -4.431   1.284  -0.128  0.00  0.00    -0.550 OA
ATOM     20  H   LIG    1       -4.887   1.690   0.622  0.00  0.00    +0.400 HD
ENDBRANCH  18  19
ENDBRANCH   6  18
TORSDOF 8
ENDMDL
MODEL       12
REMARK  Name = ZINC000011592756
REMARK                            x       y       z     vdW  Elec       q    Type
REMARK                         _______ _______ _______ _____ _____    ______ ____
ROOT
ATOM      1  N   LIG    1       -2.163  -0.024  -1.319  0.00  0.00    -0.370 N 
ATOM      2  C   LIG    1       -1.430  -0.585  -2.461  0.00  0.00    +0.290 C 
ATOM      3  C   LIG    1       -2.170  -0.255  -3.759  0.00  0.00    +0.160 C 
ATOM      4  C   LIG    1       -3.576  -0.859  -3.706  0.00  0.00    +0.120 C 
ATOM      5  C   LIG    1       -4.305  -0.324  -2.470  0.00  0.00    +0.230 C 
ATOM      6  C   LIG    1       -3.485  -0.653  -1.220  0.00  0.00    +0.200 C 
ATOM      7  H   LIG    1       -2.273   0.971  -1.448  0.00  0.00    +0.440 HD
ENDROOT
BRANCH   5   8
ATOM      8  O   LIG    1       -5.592  -0.937  -2.373  0.00  0.00    -0.540 OA
ATOM      9  H   LIG    1       -6.165  -0.773  -3.134  0.00  0.00    +0.400 HD
ENDBRANCH   5   8
BRANCH   4  10
ATOM     10  O   LIG    1       -3.482  -2.283  -3.628  0.00  0.00    -0.540 OA
ATOM     11  H   LIG    1       -3.025  -2.689  -4.378  0.00  0.00    +0.390 HD
ENDBRANCH   4  10
BRANCH   3  12
ATOM     12  O   LIG    1       -2.264   1.163  -3.907  0.00  0.00    -0.560 OA
ATOM     13  H   LIG    1       -2.722   1.445  -4.710  0.00  0.00    +0.410 HD
ENDBRANCH   3  12
BRANCH   1  14
ATOM     14  C   LIG    1       -1.409  -0.276  -0.084  0.00  0.00    +0.270 C 
BRANCH  14  15
ATOM     15  C   LIG    1       -0.084   0.487  -0.130  0.00  0.00    +0.220 C 
BRANCH  15  16
ATOM     16  O   LIG    1       -0.343   1.893  -0.134  0.00  0.00    -0.570 OA
ATOM     17  H   LIG    1        0.453   2.440  -0.163  0.00  0.00    +0.410 HD
ENDBRANCH  15  16
ENDBRANCH  14  15
ENDBRANCH   1  14
BRANCH   6  18
ATOM     18  C   LIG    1       -4.208  -0.120   0.018  0.00  0.00    +0.220 C 
BRANCH  18  19
ATOM     19  O   LIG    1       -4.431   1.284  -0.128  0.00  0.00    -0.570 OA
ATOM     20  H   LIG    1       -4.887   1.690   0.622  0.00  0.00    +0.410 HD
ENDBRANCH  18  19
ENDBRANCH   6  18
TORSDOF 8
ENDMDL
MODEL       13
REMARK  Name = ZINC000003831132
REMARK                            x       y       z     vdW  Elec       q    Type
REMARK                         _______ _______ _______ _____ _____    ______ ____
ROOT
ATOM      1  N   LIG    1       -2.167  -0.015  -1.326  0.00  0.00    -0.370 N 
ATOM      2  C   LIG    1       -1.434  -0.576  -2.467  0.00  0.00    +0.270 C 
ATOM      3  C   LIG    1       -2.180  -0.256  -3.764  0.00  0.00    +0.150 C 
ATOM      4  C   LIG    1       -3.582  -0.870  -3.705  0.00  0.00    +0.120 C 
ATOM      5  C   LIG    1       -4.311  -0.335  -2.469  0.00  0.00    +0.210 C 
ATOM      6  C   LIG    1       -3.485  -0.653  -1.220  0.00  0.00    +0.200 C 
ATOM      7  H   LIG    1       -2.285   0.978  -1.458  0.00  0.00    +0.450 HD
ENDROOT
BRANCH   5   8
ATOM      8  O   LIG    1       -4.476   1.080  -2.587  0.00  0.00    -0.540 OA
ATOM      9  H   LIG    1       -4.988   1.353  -3.361  0.00  0.00    +0.400 HD
ENDBRANCH   5   8
BRANCH   4  10
ATOM     10  O   LIG    1       -4.310  -0.515  -4.882  0.00  0.00    -0.550 OA
ATOM     11  H   LIG    1       -3.901  -0.818  -5.704  0.00  0.00    +0.400 HD
ENDBRANCH   4  10
BRANCH   3  12
ATOM     12  O   LIG    1       -1.465  -0.804  -4.873  0.00  0.00    -0.550 OA
ATOM     13  H   LIG    1       -1.882  -0.639  -5.730  0.00  0.00    +0.400 HD
ENDBRANCH   3  12
BRANCH   1  14
ATOM     14  C   LIG    1       -1.408  -0.257  -0.092  0.00  0.00    +0.270 C 
BRANCH  14  15
ATOM     15  C   LIG    1       -0.089   0.517  -0.145  0.00  0.00    +0.220 C 
BRANCH  15  16
ATOM     16  O   LIG    1       -0.360   1.920  -0.154  0.00  0.00    -0.580 OA
ATOM     17  H   LIG    1        0.432   2.473  -0.186  0.00  0.00    +0.410 HD
ENDBRANCH  15  16
ENDBRANCH  14  15
ENDBRANCH   1  14
BRANCH   6  18
ATOM     18  C   LIG    1       -4.208  -0.120   0.018  0.00  0.00    +0.210 C 
BRANCH  18  19
ATOM     19  O   LIG    1       -4.431   1.284  -0.128  0.00  0.00    -0.550 OA
ATOM     20  H   LIG    1       -4.887   1.690   0.622  0.00  0.00    +0.400 HD
ENDBRANCH  18  19
ENDBRANCH   6  18
TORSDOF 8
ENDMDL
MODEL       14
REMARK  Name = ZINC000257275913
REMARK                            x       y       z     vdW  Elec       q    Type
REMARK                         _______ _______ _______ _____ _____    ______ ____
ROOT
ATOM      1  C   LIG    1       -1.475  -2.540   0.241  0.00  0.00    +0.010 C 
ATOM      2  C   LIG    1       -0.741  -3.363  -0.786  0.00  0.00    +0.230 C 
ATOM      3  N   LIG    1        0.091  -4.366  -0.078  0.00  0.00    -0.520 NA
ATOM      4  C   LIG    1       -0.637  -5.466   0.386  0.00  0.00    +0.220 C 
ATOM      5  C   LIG    1       -1.718  -5.070   1.409  0.00  0.00    +0.260 C 
ATOM      6  N   LIG    1       -2.871  -4.579   0.691  0.00  0.00    -0.380 N 
ATOM      7  C   LIG    1       -4.088  -4.992   1.402  0.00  0.00    +0.330 C 
ATOM      8  H   LIG    1       -2.879  -4.984  -0.233  0.00  0.00    +0.420 HD
ATOM      9  C   LIG    1       -2.868  -3.105   0.565  0.00  0.00    +0.290 C 
ENDROOT
BRANCH   1  12
ATOM     10  C   LIG    1       -0.717   1.069  -0.779  0.00  0.00    +0.300 C 
ATOM     11  N   LIG    1       -0.552  -0.330  -0.378  0.00  0.00    -0.610 N 
ATOM     12  C   LIG    1       -1.629  -1.135  -0.281  0.00  0.00    +0.520 C 
ATOM     13  O   LIG    1       -2.722  -0.728  -0.614  0.00  0.00    -0.530 OA
ATOM     14  C   LIG    1        0.783  -0.855  -0.083  0.00  0.00    +0.290 C 
ENDBRANCH   1  12
BRANCH   3  15
ATOM     15  C   LIG    1        1.221  -4.796  -0.912  0.00  0.00    +0.270 C 
BRANCH  15  16
ATOM     16  C   LIG    1        0.700  -5.505  -2.136  0.00  0.00    +0.490 C 
ATOM     17  O   LIG    1       -0.494  -5.573  -2.335  0.00  0.00    -0.560 OA
ATOM     18  N   LIG    1        1.562  -6.062  -3.010  0.00  0.00    -0.840 N 
ATOM     19  H   LIG    1        1.226  -6.518  -3.798  0.00  0.00    +0.410 HD
ATOM     20  H   LIG    1        2.517  -6.008  -2.851  0.00  0.00    +0.410 HD
ENDBRANCH  15  16
ENDBRANCH   3  15
TORSDOF 3
ENDMDL
MODEL       15
REMARK  Name = ZINC000037750325
REMARK                            x       y       z     vdW  Elec       q    Type
REMARK                         _______ _______ _______ _____ _____    ______ ____
ROOT
ATOM      1  N   LIG    1        1.710  -2.160  -2.982  0.00  0.00    -0.500 N 
ATOM      2  H   LIG    1        2.632  -1.751  -2.947  0.00  0.00    +0.430 HD
ATOM      3  H   LIG    1        1.197  -1.766  -3.757  0.00  0.00    +0.430 HD
ENDROOT
BRANCH   1   4
ATOM      4  C   LIG    1        0.999  -1.873  -1.729  0.00  0.00    +0.300 C 
BRANCH   4   5
ATOM      5  C   LIG    1        0.880  -0.358  -1.545  0.00  0.00    -0.360 C 
BRANCH   5   7
ATOM      6  C   LIG    1       -0.022   1.810   0.012  0.00  0.00    -0.250 C 
ATOM      7  S   LIG    1        0.002  -0.004   0.002  0.00  0.00    +2.430 S 
ATOM      8  O   LIG    1       -1.334  -0.474  -0.117  0.00  0.00    -0.910 OA
ATOM      9  O   LIG    1        0.801  -0.452   1.088  0.00  0.00    -0.910 OA
ENDBRANCH   5   7
ENDBRANCH   4   5
ENDBRANCH   1   4
BRANCH   1  10
ATOM     10  C   LIG    1        1.825  -3.614  -3.158  0.00  0.00    +0.300 C 
BRANCH  10  11
ATOM     11  C   LIG    1        2.565  -3.912  -4.463  0.00  0.00    -0.360 C 
BRANCH  11  12
ATOM     12  S   LIG    1        2.707  -5.708  -4.681  0.00  0.00    +2.430 S 
ATOM     13  O   LIG    1        1.403  -6.247  -4.856  0.00  0.00    -0.910 OA
ATOM     14  O   LIG    1        3.538  -6.224  -3.651  0.00  0.00    -0.910 OA
ATOM     15  C   LIG    1        3.598  -5.825  -6.256  0.00  0.00    -0.240 C 
ENDBRANCH  11  12
ENDBRANCH  10  11
ENDBRANCH   1  10
TORSDOF 6
ENDMDL
MODEL       16
REMARK  Name = ZINC000035653215
REMARK                            x       y       z     vdW  Elec       q    Type
REMARK                         _______ _______ _______ _____ _____    ______ ____
ROOT
ATOM      1  N   LIG    1        0.711  -0.489   1.189  0.00  0.00    -0.630 N 
ATOM      2  H   LIG    1        1.077   0.142   1.827  0.00  0.00    +0.430 HD
ATOM      3  C   LIG    1        0.857  -1.841   1.398  0.00  0.00    +0.460 C 
ATOM      4  N   LIG    1        1.464  -2.392   2.421  0.00  0.00    -0.610 N 
ATOM      5  C   LIG    1        1.499  -3.805   2.456  0.00  0.00    +0.180 C 
ATOM      6  C   LIG    1        0.372  -4.420   1.599  0.00  0.00    +0.240 C 
ATOM      7  O   LIG    1        0.881  -5.660   1.118  0.00  0.00    -0.310 OA
ATOM      8  C   LIG    1        1.125  -6.577   2.197  0.00  0.00    +0.150 C 
ATOM      9  C   LIG    1        2.149  -6.037   3.192  0.00  0.00    +0.150 C 
ATOM     10  C   LIG    1        1.731  -4.639   3.677  0.00  0.00    +0.240 C 
ATOM     11  H   LIG    1        1.869  -1.856   3.120  0.00  0.00    +0.440 HD
ATOM     12  S   LIG    1        0.246  -3.125   0.327  0.00  0.00    +0.120 S 
ENDROOT
BRANCH   1  14
ATOM     13  C   LIG    1       -0.019   1.526   0.010  0.00  0.00    +0.080 C 
ATOM     14  C   LIG    1        0.002  -0.004   0.002  0.00  0.00    +0.300 C 
ENDBRANCH   1  14
BRANCH   9  15
ATOM     15  O   LIG    1        3.428  -5.961   2.559  0.00  0.00    -0.550 OA
ATOM     16  H   LIG    1        3.759  -6.811   2.239  0.00  0.00    +0.400 HD
ENDBRANCH   9  15
BRANCH  10  17
ATOM     17  O   LIG    1        0.535  -4.728   4.455  0.00  0.00    -0.550 OA
ATOM     18  H   LIG    1        0.618  -5.285   5.241  0.00  0.00    +0.410 HD
ENDBRANCH  10  17
BRANCH   8  19
ATOM     19  C   LIG    1        1.644  -7.896   1.620  0.00  0.00    +0.230 C 
BRANCH  19  20
ATOM     20  O   LIG    1        0.623  -8.502   0.824  0.00  0.00    -0.560 OA
ATOM     21  H   LIG    1        0.883  -9.344   0.426  0.00  0.00    +0.390 HD
ENDBRANCH  19  20
ENDBRANCH   8  19
TORSDOF 5
ENDMDL
MODEL       17
REMARK  Name = ZINC000045789160
REMARK                            x       y       z     vdW  Elec       q    Type
REMARK                         _______ _______ _______ _____ _____    ______ ____
ROOT
ATOM      1  N   LIG    1        0.711  -0.489   1.189  0.00  0.00    -0.630 N 
ATOM      2  H   LIG    1        1.077   0.142   1.827  0.00  0.00    +0.430 HD
ATOM      3  C   LIG    1        0.857  -1.841   1.398  0.00  0.00    +0.460 C 
ATOM      4  N   LIG    1        1.456  -2.384   2.408  0.00  0.00    -0.600 N 
ATOM      5  C   LIG    1        1.574  -3.825   2.452  0.00  0.00    +0.230 C 
ATOM      6  C   LIG    1        1.293  -4.430   1.075  0.00  0.00    +0.260 C 
ATOM      7  O   LIG    1        2.490  -4.547   0.308  0.00  0.00    -0.330 OA
ATOM      8  C   LIG    1        3.515  -5.316   0.937  0.00  0.00    +0.150 C 
ATOM      9  C   LIG    1        3.983  -4.577   2.189  0.00  0.00    +0.140 C 
ATOM     10  C   LIG    1        2.836  -4.315   3.103  0.00  0.00    +0.230 C 
ATOM     11  H   LIG    1        1.818  -1.836   3.122  0.00  0.00    +0.440 HD
ATOM     12  S   LIG    1        0.247  -3.119   0.330  0.00  0.00    +0.100 S 
ENDROOT
BRANCH   1  14
ATOM     13  C   LIG    1       -0.019   1.526   0.010  0.00  0.00    +0.070 C 
ATOM     14  C   LIG    1        0.002  -0.004   0.002  0.00  0.00    +0.290 C 
ENDBRANCH   1  14
BRANCH   9  15
ATOM     15  O   LIG    1        4.561  -3.327   1.809  0.00  0.00    -0.550 OA
ATOM     16  H   LIG    1        5.325  -3.408   1.222  0.00  0.00    +0.390 HD
ENDBRANCH   9  15
BRANCH  10  17
ATOM     17  O   LIG    1        3.243  -3.349   4.075  0.00  0.00    -0.550 OA
ATOM     18  H   LIG    1        3.993  -3.629   4.618  0.00  0.00    +0.410 HD
ENDBRANCH  10  17
BRANCH   8  19
ATOM     19  C   LIG    1        4.690  -5.493  -0.028  0.00  0.00    +0.210 C 
BRANCH  19  20
ATOM     20  O   LIG    1        4.271  -6.270  -1.151  0.00  0.00    -0.560 OA
ATOM     21  H   LIG    1        4.966  -6.423  -1.806  0.00  0.00    +0.390 HD
ENDBRANCH  19  20
ENDBRANCH   8  19
TORSDOF 5
ENDMDL
MODEL       18
REMARK  Name = ZINC000045789163
REMARK                            x       y       z     vdW  Elec       q    Type
REMARK                         _______ _______ _______ _____ _____    ______ ____
ROOT
ATOM      1  N   LIG    1        0.711  -0.489   1.189  0.00  0.00    -0.630 N 
ATOM      2  H   LIG    1        1.077   0.142   1.827  0.00  0.00    +0.430 HD
ATOM      3  C   LIG    1        0.857  -1.841   1.398  0.00  0.00    +0.460 C 
ATOM      4  N   LIG    1        1.464  -2.392   2.421  0.00  0.00    -0.600 N 
ATOM      5  C   LIG    1        1.499  -3.805   2.456  0.00  0.00    +0.170 C 
ATOM      6  C   LIG    1        0.372  -4.420   1.599  0.00  0.00    +0.220 C 
ATOM      7  O   LIG    1        0.881  -5.660   1.118  0.00  0.00    -0.300 OA
ATOM      8  C   LIG    1        1.125  -6.577   2.197  0.00  0.00    +0.150 C 
ATOM      9  C   LIG    1        2.149  -6.037   3.192  0.00  0.00    +0.150 C 
ATOM     10  C   LIG    1        1.731  -4.639   3.677  0.00  0.00    +0.240 C 
ATOM     11  H   LIG    1        1.869  -1.856   3.120  0.00  0.00    +0.440 HD
ATOM     12  S   LIG    1        0.246  -3.125   0.327  0.00  0.00    +0.130 S 
ENDROOT
BRANCH   1  14
ATOM     13  C   LIG    1       -0.019   1.526   0.010  0.00  0.00    +0.090 C 
ATOM     14  C   LIG    1        0.002  -0.004   0.002  0.00  0.00    +0.300 C 
ENDBRANCH   1  14
BRANCH   9  15
ATOM     15  O   LIG    1        3.428  -5.961   2.559  0.00  0.00    -0.550 OA
ATOM     16  H   LIG    1        3.759  -6.811   2.239  0.00  0.00    +0.390 HD
ENDBRANCH   9  15
BRANCH  10  17
ATOM     17  O   LIG    1        2.777  -4.059   4.458  0.00  0.00    -0.550 OA
ATOM     18  H   LIG    1        3.011  -4.570   5.245  0.00  0.00    +0.400 HD
ENDBRANCH  10  17
BRANCH   8  19
ATOM     19  C   LIG    1        1.644  -7.896   1.620  0.00  0.00    +0.230 C 
BRANCH  19  20
ATOM     20  O   LIG    1        0.623  -8.502   0.824  0.00  0.00    -0.560 OA
ATOM     21  H   LIG    1        0.883  -9.344   0.426  0.00  0.00    +0.400 HD
ENDBRANCH  19  20
ENDBRANCH   8  19
TORSDOF 5
ENDMDL
MODEL       19
REMARK  Name = ZINC000245190548
REMARK                            x       y       z     vdW  Elec       q    Type
REMARK                         _______ _______ _______ _____ _____    ______ ____
ROOT
ATOM      1  N   LIG    1        0.711  -0.489   1.189  0.00  0.00    -0.620 N 
ATOM      2  H   LIG    1        1.077   0.142   1.827  0.00  0.00    +0.430 HD
ATOM      3  C   LIG    1        0.857  -1.841   1.398  0.00  0.00    +0.460 C 
ATOM      4  N   LIG    1        1.464  -2.392   2.421  0.00  0.00    -0.600 N 
ATOM      5  C   LIG    1        1.499  -3.805   2.456  0.00  0.00    +0.170 C 
ATOM      6  C   LIG    1        0.372  -4.420   1.599  0.00  0.00    +0.220 C 
ATOM      7  O   LIG    1        0.881  -5.660   1.118  0.00  0.00    -0.300 OA
ATOM      8  C   LIG    1        1.125  -6.577   2.197  0.00  0.00    +0.190 C 
ATOM      9  C   LIG    1        2.149  -6.037   3.192  0.00  0.00    +0.160 C 
ATOM     10  C   LIG    1        1.731  -4.639   3.677  0.00  0.00    +0.220 C 
ATOM     11  H   LIG    1        1.869  -1.856   3.120  0.00  0.00    +0.440 HD
ATOM     12  S   LIG    1        0.246  -3.125   0.327  0.00  0.00    +0.130 S 
ENDROOT
BRANCH   1  14
ATOM     13  C   LIG    1       -0.019   1.526   0.010  0.00  0.00    +0.090 C 
ATOM     14  C   LIG    1        0.002  -0.004   0.002  0.00  0.00    +0.300 C 
ENDBRANCH   1  14
BRANCH   9  15
ATOM     15  O   LIG    1        2.229  -6.920   4.312  0.00  0.00    -0.550 OA
ATOM     16  H   LIG    1        2.497  -7.821   4.085  0.00  0.00    +0.400 HD
ENDBRANCH   9  15
BRANCH  10  17
ATOM     17  O   LIG    1        2.777  -4.059   4.458  0.00  0.00    -0.550 OA
ATOM     18  H   LIG    1        3.011  -4.570   5.245  0.00  0.00    +0.410 HD
ENDBRANCH  10  17
BRANCH   8  19
ATOM     19  C   LIG    1       -0.191  -6.839   2.933  0.00  0.00    +0.170 C 
BRANCH  19  20
ATOM     20  O   LIG    1       -1.101  -7.509   2.058  0.00  0.00    -0.560 OA
ATOM     21  H   LIG    1       -1.958  -7.707   2.460  0.00  0.00    +0.390 HD
ENDBRANCH  19  20
ENDBRANCH   8  19
TORSDOF 5
ENDMDL
MODEL       20
REMARK  Name = ZINC000044028930
REMARK                            x       y       z     vdW  Elec       q    Type
REMARK                         _______ _______ _______ _____ _____    ______ ____
ROOT
ATOM      1  N   LIG    1        0.711  -0.489   1.189  0.00  0.00    -0.630 N 
ATOM      2  H   LIG    1        1.077   0.142   1.827  0.00  0.00    +0.430 HD
ATOM      3  C   LIG    1        0.857  -1.841   1.398  0.00  0.00    +0.470 C 
ATOM      4  N   LIG    1        1.456  -2.384   2.408  0.00  0.00    -0.610 N 
ATOM      5  C   LIG    1        1.574  -3.825   2.452  0.00  0.00    +0.240 C 
ATOM      6  C   LIG    1        1.293  -4.430   1.075  0.00  0.00    +0.270 C 
ATOM      7  O   LIG    1        2.490  -4.547   0.308  0.00  0.00    -0.330 OA
ATOM      8  C   LIG    1        3.515  -5.316   0.937  0.00  0.00    +0.160 C 
ATOM      9  C   LIG    1        3.983  -4.577   2.189  0.00  0.00    +0.150 C 
ATOM     10  C   LIG    1        2.836  -4.315   3.103  0.00  0.00    +0.210 C 
ATOM     11  H   LIG    1        1.818  -1.836   3.122  0.00  0.00    +0.430 HD
ATOM     12  S   LIG    1        0.247  -3.119   0.330  0.00  0.00    +0.100 S 
ENDROOT
BRANCH   1  14
ATOM     13  C   LIG    1       -0.019   1.526   0.010  0.00  0.00    +0.070 C 
ATOM     14  C   LIG    1        0.002  -0.004   0.002  0.00  0.00    +0.290 C 
ENDBRANCH   1  14
BRANCH   9  15
ATOM     15  O   LIG    1        4.561  -3.327   1.809  0.00  0.00    -0.560 OA
ATOM     16  H   LIG    1        5.325  -3.408   1.222  0.00  0.00    +0.390 HD
ENDBRANCH   9  15
BRANCH  10  17
ATOM     17  O   LIG    1        2.507  -5.530   3.779  0.00  0.00    -0.550 OA
ATOM     18  H   LIG    1        3.229  -5.893   4.310  0.00  0.00    +0.410 HD
ENDBRANCH  10  17
BRANCH   8  19
ATOM     19  C   LIG    1        4.690  -5.493  -0.028  0.00  0.00    +0.210 C 
BRANCH  19  20
ATOM     20  O   LIG    1        4.271  -6.270  -1.151  0.00  0.00    -0.560 OA
ATOM     21  H   LIG    1        4.966  -6.423  -1.806  0.00  0.00    +0.390 HD
ENDBRANCH  19  20
ENDBRANCH   8  19
TORSDOF 5
ENDMDL
MODEL       21
REMARK  Name = ZINC000585099617
REMARK                            x       y       z     vdW  Elec       q    Type
REMARK                         _______ _______ _______ _____ _____    ______ ____
ROOT
ATOM      1  C   LIG    1        0.632   1.482   0.222  0.00  0.00    +0.320 C 
ATOM      2  N   LIG    1        0.592   0.018   0.204  0.00  0.00    -0.620 N 
ATOM      3  C   LIG    1       -0.484  -0.952   0.362  0.00  0.00    +0.330 C 
ATOM      4  C   LIG    1        0.554  -2.048   0.176  0.00  0.00    -0.150 C 
ATOM      5  C   LIG    1        0.773  -2.917   1.416  0.00  0.00    +0.090 C 
ATOM      6  C   LIG    1        1.934  -3.880   1.144  0.00  0.00    +0.070 C 
ATOM      7  C   LIG    1        1.640  -4.674  -0.130  0.00  0.00    +0.250 C 
ATOM      8  N   LIG    1        1.529  -3.760  -1.273  0.00  0.00    -0.380 N 
ATOM      9  H   LIG    1        2.368  -3.203  -1.339  0.00  0.00    +0.430 HD
ATOM     10  C   LIG    1        0.369  -2.877  -1.094  0.00  0.00    +0.310 C 
ATOM     11  C   LIG    1        1.530  -0.922   0.032  0.00  0.00    +0.520 C 
ATOM     12  O   LIG    1        2.726  -0.878  -0.165  0.00  0.00    -0.490 OA
ENDROOT
BRANCH   8  13
ATOM     13  C   LIG    1        1.362  -4.539  -2.507  0.00  0.00    +0.250 C 
BRANCH  13  14
ATOM     14  C   LIG    1        1.398  -3.598  -3.713  0.00  0.00    +0.210 C 
BRANCH  14  15
ATOM     15  O   LIG    1        2.658  -2.926  -3.755  0.00  0.00    -0.540 OA
ATOM     16  H   LIG    1        3.418  -3.519  -3.834  0.00  0.00    +0.390 HD
ENDBRANCH  14  15
BRANCH  14  17
ATOM     17  C   LIG    1        1.208  -4.407  -4.997  0.00  0.00    +0.180 C 
BRANCH  17  18
ATOM     18  O   LIG    1        1.124  -3.518  -6.112  0.00  0.00    -0.560 OA
ATOM     19  H   LIG    1        1.003  -3.963  -6.962  0.00  0.00    +0.400 HD
ENDBRANCH  17  18
ENDBRANCH  14  17
ENDBRANCH  13  14
ENDBRANCH   8  13
TORSDOF 5
ENDMDL
MODEL       22
REMARK  Name = ZINC000585099618
REMARK                            x       y       z     vdW  Elec       q    Type
REMARK                         _______ _______ _______ _____ _____    ______ ____
ROOT
ATOM      1  C   LIG    1       -0.670   1.417  -0.248  0.00  0.00    +0.320 C 
ATOM      2  N   LIG    1       -0.589  -0.045  -0.225  0.00  0.00    -0.620 N 
ATOM      3  C   LIG    1       -1.581  -1.097  -0.042  0.00  0.00    +0.310 C 
ATOM      4  C   LIG    1       -0.455  -2.107  -0.196  0.00  0.00    -0.150 C 
ATOM      5  C   LIG    1       -0.569  -2.982  -1.445  0.00  0.00    +0.090 C 
ATOM      6  C   LIG    1       -1.605  -4.082  -1.185  0.00  0.00    +0.070 C 
ATOM      7  C   LIG    1       -1.215  -4.849   0.080  0.00  0.00    +0.260 C 
ATOM      8  N   LIG    1       -1.215  -3.941   1.233  0.00  0.00    -0.380 N 
ATOM      9  H   LIG    1       -2.115  -3.491   1.305  0.00  0.00    +0.430 HD
ATOM     10  C   LIG    1       -0.170  -2.922   1.065  0.00  0.00    +0.310 C 
ATOM     11  C   LIG    1        0.424  -0.909  -0.370  0.00  0.00    +0.540 C 
ATOM     12  O   LIG    1        1.613  -0.771  -0.566  0.00  0.00    -0.480 OA
ENDROOT
BRANCH   8  13
ATOM     13  C   LIG    1       -0.954  -4.709   2.458  0.00  0.00    +0.250 C 
BRANCH  13  14
ATOM     14  C   LIG    1       -1.103  -3.793   3.675  0.00  0.00    +0.210 C 
BRANCH  14  15
ATOM     15  O   LIG    1       -2.435  -3.279   3.724  0.00  0.00    -0.550 OA
ATOM     16  H   LIG    1       -3.117  -3.960   3.796  0.00  0.00    +0.390 HD
ENDBRANCH  14  15
BRANCH  14  17
ATOM     17  C   LIG    1       -0.815  -4.588   4.950  0.00  0.00    +0.180 C 
BRANCH  17  18
ATOM     18  O   LIG    1       -0.839  -3.708   6.075  0.00  0.00    -0.560 OA
ATOM     19  H   LIG    1       -0.664  -4.145   6.920  0.00  0.00    +0.400 HD
ENDBRANCH  17  18
ENDBRANCH  14  17
ENDBRANCH  13  14
ENDBRANCH   8  13
TORSDOF 5
ENDMDL
MODEL       23
REMARK  Name = ZINC000585099619
REMARK                            x       y       z     vdW  Elec       q    Type
REMARK                         _______ _______ _______ _____ _____    ______ ____
ROOT
ATOM      1  C   LIG    1       -0.018   1.461   0.010  0.00  0.00    +0.330 C 
ATOM      2  N   LIG    1        0.002  -0.004   0.002  0.00  0.00    -0.620 N 
ATOM      3  C   LIG    1       -1.048  -1.016   0.000  0.00  0.00    +0.330 C 
ATOM      4  C   LIG    1        0.048  -2.070  -0.009  0.00  0.00    -0.150 C 
ATOM      5  C   LIG    1        0.105  -2.924   1.259  0.00  0.00    +0.090 C 
ATOM      6  C   LIG    1        1.331  -3.841   1.181  0.00  0.00    +0.070 C 
ATOM      7  C   LIG    1        1.270  -4.652  -0.115  0.00  0.00    +0.260 C 
ATOM      8  N   LIG    1        1.304  -3.748  -1.270  0.00  0.00    -0.380 N 
ATOM      9  H   LIG    1        2.120  -3.158  -1.210  0.00  0.00    +0.430 HD
ATOM     10  C   LIG    1        0.096  -2.912  -1.284  0.00  0.00    +0.300 C 
ATOM     11  C   LIG    1        0.991  -0.907  -0.012  0.00  0.00    +0.520 C 
ATOM     12  O   LIG    1        2.200  -0.816  -0.020  0.00  0.00    -0.500 OA
ENDROOT
BRANCH   8  13
ATOM     13  C   LIG    1        1.362  -4.539  -2.507  0.00  0.00    +0.250 C 
BRANCH  13  14
ATOM     14  C   LIG    1        2.683  -5.311  -2.557  0.00  0.00    +0.210 C 
BRANCH  14  15
ATOM     15  O   LIG    1        3.774  -4.389  -2.529  0.00  0.00    -0.540 OA
ATOM     16  H   LIG    1        3.781  -3.765  -3.267  0.00  0.00    +0.390 HD
ENDBRANCH  14  15
BRANCH  14  17
ATOM     17  C   LIG    1        2.743  -6.134  -3.845  0.00  0.00    +0.180 C 
BRANCH  17  18
ATOM     18  O   LIG    1        3.921  -6.944  -3.837  0.00  0.00    -0.560 OA
ATOM     19  H   LIG    1        4.025  -7.494  -4.626  0.00  0.00    +0.400 HD
ENDBRANCH  17  18
ENDBRANCH  14  17
ENDBRANCH  13  14
ENDBRANCH   8  13
TORSDOF 5
ENDMDL
MODEL       24
REMARK  Name = ZINC000585099614
REMARK                            x       y       z     vdW  Elec       q    Type
REMARK                         _______ _______ _______ _____ _____    ______ ____
ROOT
ATOM      1  C   LIG    1       -0.018   1.461   0.010  0.00  0.00    +0.320 C 
ATOM      2  N   LIG    1        0.002  -0.004   0.002  0.00  0.00    -0.620 N 
ATOM      3  C   LIG    1       -1.048  -1.016   0.000  0.00  0.00    +0.300 C 
ATOM      4  C   LIG    1        0.049  -2.070  -0.010  0.00  0.00    -0.150 C 
ATOM      5  C   LIG    1        0.095  -2.909  -1.288  0.00  0.00    +0.090 C 
ATOM      6  C   LIG    1       -1.010  -3.970  -1.222  0.00  0.00    +0.070 C 
ATOM      7  C   LIG    1       -0.851  -4.782   0.065  0.00  0.00    +0.250 C 
ATOM      8  N   LIG    1       -0.993  -3.903   1.231  0.00  0.00    -0.380 N 
ATOM      9  H   LIG    1       -1.875  -3.415   1.177  0.00  0.00    +0.430 HD
ATOM     10  C   LIG    1        0.104  -2.926   1.255  0.00  0.00    +0.310 C 
ATOM     11  C   LIG    1        0.991  -0.907  -0.012  0.00  0.00    +0.540 C 
ATOM     12  O   LIG    1        2.200  -0.816  -0.020  0.00  0.00    -0.480 OA
ENDROOT
BRANCH   8  13
ATOM     13  C   LIG    1       -0.954  -4.709   2.458  0.00  0.00    +0.250 C 
BRANCH  13  14
ATOM     14  C   LIG    1       -2.171  -5.635   2.498  0.00  0.00    +0.210 C 
BRANCH  14  15
ATOM     15  O   LIG    1       -3.367  -4.852   2.480  0.00  0.00    -0.540 OA
ATOM     16  H   LIG    1       -3.448  -4.242   3.225  0.00  0.00    +0.390 HD
ENDBRANCH  14  15
BRANCH  14  17
ATOM     17  C   LIG    1       -2.131  -6.475   3.777  0.00  0.00    +0.180 C 
BRANCH  17  18
ATOM     18  O   LIG    1       -3.202  -7.421   3.760  0.00  0.00    -0.560 OA
ATOM     19  H   LIG    1       -3.238  -7.988   4.542  0.00  0.00    +0.400 HD
ENDBRANCH  17  18
ENDBRANCH  14  17
ENDBRANCH  13  14
ENDBRANCH   8  13
TORSDOF 5
ENDMDL
MODEL       25
REMARK  Name = ZINC000095095731
REMARK                            x       y       z     vdW  Elec       q    Type
REMARK                         _______ _______ _______ _____ _____    ______ ____
ROOT
ATOM      1  C   LIG    1       -2.113   0.957   1.227  0.00  0.00    +0.080 A 
ATOM      2  N   LIG    1       -2.526  -0.170   1.756  0.00  0.00    -0.420 NA
ATOM      3  C   LIG    1       -3.850  -0.214   1.526  0.00  0.00    +0.200 A 
ATOM      4  N   LIG    1       -4.169   0.868   0.881  0.00  0.00    -0.330 NA
ATOM      5  O   LIG    1       -3.187   1.557   0.704  0.00  0.00    +0.120 OA
ENDROOT
BRANCH   1   6
ATOM      6  C   LIG    1       -0.699   1.479   1.216  0.00  0.00    +0.470 C 
BRANCH   6   7
ATOM      7  N   LIG    1       -0.012   1.005   0.008  0.00  0.00    -0.630 N 
ATOM      8  H   LIG    1       -0.500   1.339  -0.810  0.00  0.00    +0.440 HD
ATOM      9  H   LIG    1        0.935   1.354   0.000  0.00  0.00    +0.450 HD
ATOM     10  H   LIG    1        0.002  -0.004   0.002  0.00  0.00    +0.440 HD
ENDBRANCH   6   7
ENDBRANCH   1   6
BRANCH   3  11
ATOM     11  C   LIG    1       -4.791  -1.315   1.941  0.00  0.00    +0.210 C 
BRANCH  11  12
ATOM     12  C   LIG    1       -5.341  -1.016   3.312  0.00  0.00    +0.520 C 
ATOM     13  N   LIG    1       -6.210  -1.869   3.890  0.00  0.00    -0.610 N 
ATOM     14  C   LIG    1       -6.631  -3.102   3.205  0.00  0.00    +0.250 C 
ATOM     15  C   LIG    1       -6.448  -4.278   4.171  0.00  0.00    +0.220 C 
ATOM     16  O   LIG    1       -7.106  -3.981   5.405  0.00  0.00    -0.370 OA
ATOM     17  C   LIG    1       -6.575  -2.846   6.093  0.00  0.00    +0.220 C 
ATOM     18  C   LIG    1       -6.760  -1.599   5.228  0.00  0.00    +0.260 C 
ATOM     19  O   LIG    1       -5.002  -0.008   3.894  0.00  0.00    -0.530 OA
ENDBRANCH  11  12
ENDBRANCH   3  11
TORSDOF 4
ENDMDL
MODEL       26
REMARK  Name = ZINC000067897684
REMARK                            x       y       z     vdW  Elec       q    Type
REMARK                         _______ _______ _______ _____ _____    ______ ____
ROOT
ATOM      1  C   LIG    1       -0.018   1.465   0.010  0.00  0.00    +0.340 C 
ATOM      2  N   LIG    1        0.002  -0.004   0.002  0.00  0.00    -0.390 N 
ATOM      3  C   LIG    1        0.687  -0.486  -1.217  0.00  0.00    +0.250 C 
ATOM      4  C   LIG    1        1.471  -1.736  -0.762  0.00  0.00    +0.230 C 
ATOM      5  C   LIG    1        1.918  -1.350   0.662  0.00  0.00    +0.190 C 
ATOM      6  O   LIG    1        3.086  -0.529   0.593  0.00  0.00    -0.360 OA
ATOM      7  C   LIG    1        4.231  -1.185   0.046  0.00  0.00    +0.320 C 
ATOM      8  C   LIG    1        3.873  -1.764  -1.296  0.00  0.00    +0.500 C 
ATOM      9  O   LIG    1        4.755  -2.019  -2.088  0.00  0.00    -0.500 OA
ATOM     10  N   LIG    1        2.591  -1.989  -1.646  0.00  0.00    -0.590 N 
ATOM     11  C   LIG    1        0.741  -0.497   1.179  0.00  0.00    +0.300 C 
ATOM     12  H   LIG    1       -0.943  -0.357   0.022  0.00  0.00    +0.430 HD
ENDROOT
BRANCH  10  13
ATOM     13  C   LIG    1        2.329  -2.557  -2.971  0.00  0.00    +0.320 C 
BRANCH  13  14
ATOM     14  C   LIG    1        2.319  -4.062  -2.879  0.00  0.00    +0.500 C 
ATOM     15  O   LIG    1        2.513  -4.605  -1.812  0.00  0.00    -0.540 OA
ATOM     16  N   LIG    1        2.096  -4.803  -3.982  0.00  0.00    -0.850 N 
ATOM     17  H   LIG    1        2.090  -5.771  -3.924  0.00  0.00    +0.410 HD
ATOM     18  H   LIG    1        1.941  -4.368  -4.835  0.00  0.00    +0.410 HD
ENDBRANCH  13  14
ENDBRANCH  10  13
TORSDOF 2
ENDMDL
MODEL       27
REMARK  Name = ZINC000067897684
REMARK                            x       y       z     vdW  Elec       q    Type
REMARK                         _______ _______ _______ _____ _____    ______ ____
ROOT
ATOM      1  C   LIG    1       -0.018   1.465   0.010  0.00  0.00    +0.330 C 
ATOM      2  N   LIG    1        0.002  -0.004   0.002  0.00  0.00    -0.390 N 
ATOM      3  C   LIG    1       -1.380  -0.519   0.005  0.00  0.00    +0.250 C 
ATOM      4  C   LIG    1       -1.531  -1.408   1.252  0.00  0.00    +0.240 C 
ATOM      5  C   LIG    1       -0.079  -1.782   1.616  0.00  0.00    +0.200 C 
ATOM      6  O   LIG    1        0.361  -2.855   0.780  0.00  0.00    -0.370 OA
ATOM      7  C   LIG    1       -0.352  -4.076   0.973  0.00  0.00    +0.320 C 
ATOM      8  C   LIG    1       -1.827  -3.815   0.834  0.00  0.00    +0.490 C 
ATOM      9  O   LIG    1       -2.574  -4.740   0.593  0.00  0.00    -0.500 OA
ATOM     10  N   LIG    1       -2.341  -2.576   0.960  0.00  0.00    -0.590 N 
ATOM     11  C   LIG    1        0.688  -0.499   1.214  0.00  0.00    +0.300 C 
ATOM     12  H   LIG    1        0.485  -0.333  -0.820  0.00  0.00    +0.440 HD
ENDROOT
BRANCH  10  13
ATOM     13  C   LIG    1       -3.789  -2.411   0.817  0.00  0.00    +0.320 C 
BRANCH  13  14
ATOM     14  C   LIG    1       -4.447  -2.563   2.164  0.00  0.00    +0.500 C 
ATOM     15  O   LIG    1       -3.773  -2.787   3.147  0.00  0.00    -0.540 OA
ATOM     16  N   LIG    1       -5.786  -2.450   2.277  0.00  0.00    -0.850 N 
ATOM     17  H   LIG    1       -6.209  -2.548   3.144  0.00  0.00    +0.410 HD
ATOM     18  H   LIG    1       -6.325  -2.271   1.491  0.00  0.00    +0.410 HD
ENDBRANCH  13  14
ENDBRANCH  10  13
TORSDOF 2
ENDMDL
MODEL       28
REMARK  Name = ZINC000408722647
REMARK                            x       y       z     vdW  Elec       q    Type
REMARK                         _______ _______ _______ _____ _____    ______ ____
ROOT
ATOM      1  C   LIG    1       -1.416  -2.058  -0.121  0.00  0.00    +0.270 C 
ENDROOT
BRANCH   1   2
ATOM      2  O   LIG    1       -0.594  -2.617   0.906  0.00  0.00    -0.530 OA
ATOM      3  H   LIG    1       -0.893  -2.413   1.803  0.00  0.00    +0.400 HD
ENDBRANCH   1   2
BRANCH   1   4
ATOM      4  O   LIG    1       -0.890  -2.417  -1.400  0.00  0.00    -0.520 OA
ATOM      5  H   LIG    1       -1.399  -2.071  -2.146  0.00  0.00    +0.410 HD
ENDBRANCH   1   4
BRANCH   1   6
ATOM      6  C   LIG    1       -1.433  -0.534   0.013  0.00  0.00    +0.180 C 
BRANCH   6   7
ATOM      7  O   LIG    1       -2.066  -0.171   1.242  0.00  0.00    -0.520 OA
ATOM      8  H   LIG    1       -1.626  -0.521   2.029  0.00  0.00    +0.370 HD
ENDBRANCH   6   7
BRANCH   6   9
ATOM      9  C   LIG    1        0.002  -0.004   0.002  0.00  0.00    +0.180 C 
BRANCH   9  10
ATOM     10  O   LIG    1       -0.017   1.425   0.010  0.00  0.00    -0.560 OA
ATOM     11  H   LIG    1        0.861   1.830   0.004  0.00  0.00    +0.390 HD
ENDBRANCH   9  10
ENDBRANCH   6   9
ENDBRANCH   1   6
BRANCH   1  12
ATOM     12  C   LIG    1       -2.841  -2.598   0.015  0.00  0.00    +0.200 C 
BRANCH  12  13
ATOM     13  C   LIG    1       -2.809  -4.128   0.005  0.00  0.00    +0.170 C 
ATOM     14  N   LIG    1       -4.188  -4.688   0.068  0.00  0.00    -0.510 N 
ATOM     15  C   LIG    1       -4.150  -6.092  -0.384  0.00  0.00    +0.290 C 
ATOM     16  C   LIG    1       -3.367  -6.179  -1.715  0.00  0.00    +0.130 C 
ATOM     17  H   LIG    1       -4.797  -4.156  -0.536  0.00  0.00    +0.440 HD
ATOM     18  H   LIG    1       -4.529  -4.646   1.016  0.00  0.00    +0.440 HD
ATOM     19  S   LIG    1       -2.202  -4.760  -1.608  0.00  0.00    -0.090 S 
ENDBRANCH  12  13
BRANCH  12  20
ATOM     20  O   LIG    1       -3.408  -2.141   1.244  0.00  0.00    -0.510 OA
ATOM     21  H   LIG    1       -2.921  -2.421   2.030  0.00  0.00    +0.380 HD
ENDBRANCH  12  20
ENDBRANCH   1  12
TORSDOF 9
ENDMDL
MODEL       29
REMARK  Name = ZINC000408722650
REMARK                            x       y       z     vdW  Elec       q    Type
REMARK                         _______ _______ _______ _____ _____    ______ ____
ROOT
ATOM      1  C   LIG    1       -1.416  -2.058  -0.121  0.00  0.00    +0.270 C 
ENDROOT
BRANCH   1   2
ATOM      2  O   LIG    1       -0.594  -2.617   0.906  0.00  0.00    -0.530 OA
ATOM      3  H   LIG    1       -0.893  -2.413   1.803  0.00  0.00    +0.400 HD
ENDBRANCH   1   2
BRANCH   1   4
ATOM      4  O   LIG    1       -0.890  -2.417  -1.400  0.00  0.00    -0.520 OA
ATOM      5  H   LIG    1       -1.399  -2.071  -2.146  0.00  0.00    +0.400 HD
ENDBRANCH   1   4
BRANCH   1   6
ATOM      6  C   LIG    1       -1.433  -0.534   0.013  0.00  0.00    +0.200 C 
BRANCH   6   7
ATOM      7  O   LIG    1       -2.066  -0.171   1.242  0.00  0.00    -0.530 OA
ATOM      8  H   LIG    1       -1.626  -0.521   2.029  0.00  0.00    +0.370 HD
ENDBRANCH   6   7
BRANCH   6   9
ATOM      9  C   LIG    1        0.002  -0.004   0.002  0.00  0.00    +0.180 C 
BRANCH   9  10
ATOM     10  O   LIG    1       -0.017   1.425   0.010  0.00  0.00    -0.560 OA
ATOM     11  H   LIG    1        0.861   1.830   0.004  0.00  0.00    +0.390 HD
ENDBRANCH   9  10
ENDBRANCH   6   9
ENDBRANCH   1   6
BRANCH   1  12
ATOM     12  C   LIG    1       -2.841  -2.598   0.015  0.00  0.00    +0.210 C 
BRANCH  12  13
ATOM     13  C   LIG    1       -2.841  -4.106  -0.243  0.00  0.00    +0.190 C 
ATOM     14  N   LIG    1       -4.225  -4.654  -0.186  0.00  0.00    -0.510 N 
ATOM     15  C   LIG    1       -4.242  -5.967  -0.860  0.00  0.00    +0.300 C 
ATOM     16  C   LIG    1       -3.543  -5.845  -2.233  0.00  0.00    +0.130 C 
ATOM     17  H   LIG    1       -4.858  -4.026  -0.656  0.00  0.00    +0.440 HD
ATOM     18  H   LIG    1       -4.507  -4.764   0.777  0.00  0.00    +0.440 HD
ATOM     19  S   LIG    1       -2.345  -4.475  -1.972  0.00  0.00    -0.110 S 
ENDBRANCH  12  13
BRANCH  12  20
ATOM     20  O   LIG    1       -3.688  -1.952  -0.938  0.00  0.00    -0.530 OA
ATOM     21  H   LIG    1       -3.419  -2.084  -1.857  0.00  0.00    +0.390 HD
ENDBRANCH  12  20
ENDBRANCH   1  12
TORSDOF 9
ENDMDL
MODEL       30
REMARK  Name = ZINC000408722649
REMARK                            x       y       z     vdW  Elec       q    Type
REMARK                         _______ _______ _______ _____ _____    ______ ____
ROOT
ATOM      1  C   LIG    1       -1.416  -2.058  -0.121  0.00  0.00    +0.270 C 
ENDROOT
BRANCH   1   2
ATOM      2  O   LIG    1       -0.594  -2.617   0.906  0.00  0.00    -0.520 OA
ATOM      3  H   LIG    1       -0.893  -2.413   1.803  0.00  0.00    +0.400 HD
ENDBRANCH   1   2
BRANCH   1   4
ATOM      4  O   LIG    1       -0.890  -2.417  -1.400  0.00  0.00    -0.530 OA
ATOM      5  H   LIG    1       -1.399  -2.071  -2.146  0.00  0.00    +0.410 HD
ENDBRANCH   1   4
BRANCH   1   6
ATOM      6  C   LIG    1       -1.433  -0.534   0.013  0.00  0.00    +0.180 C 
BRANCH   6   7
ATOM      7  O   LIG    1       -2.066  -0.171   1.242  0.00  0.00    -0.520 OA
ATOM      8  H   LIG    1       -1.626  -0.521   2.029  0.00  0.00    +0.370 HD
ENDBRANCH   6   7
BRANCH   6   9
ATOM      9  C   LIG    1        0.002  -0.004   0.002  0.00  0.00    +0.180 C 
BRANCH   9  10
ATOM     10  O   LIG    1       -0.017   1.425   0.010  0.00  0.00    -0.560 OA
ATOM     11  H   LIG    1        0.861   1.830   0.004  0.00  0.00    +0.390 HD
ENDBRANCH   9  10
ENDBRANCH   6   9
ENDBRANCH   1   6
BRANCH   1  12
ATOM     12  C   LIG    1       -2.841  -2.598   0.015  0.00  0.00    +0.200 C 
BRANCH  12  13
ATOM     13  C   LIG    1       -2.809  -4.128   0.005  0.00  0.00    +0.180 C 
ATOM     14  N   LIG    1       -4.185  -4.673   0.056  0.00  0.00    -0.510 N 
ATOM     15  C   LIG    1       -4.214  -5.961   0.776  0.00  0.00    +0.300 C 
ATOM     16  C   LIG    1       -3.433  -5.766   2.105  0.00  0.00    +0.140 C 
ATOM     17  H   LIG    1       -4.521  -4.814  -0.885  0.00  0.00    +0.440 HD
ATOM     18  H   LIG    1       -4.786  -4.015   0.528  0.00  0.00    +0.440 HD
ATOM     19  S   LIG    1       -2.004  -4.760   1.526  0.00  0.00    -0.110 S 
ENDBRANCH  12  13
BRANCH  12  20
ATOM     20  O   LIG    1       -3.408  -2.141   1.244  0.00  0.00    -0.520 OA
ATOM     21  H   LIG    1       -2.921  -2.421   2.030  0.00  0.00    +0.390 HD
ENDBRANCH  12  20
ENDBRANCH   1  12
TORSDOF 9
ENDMDL
MODEL       31
REMARK  Name = ZINC000408722645
REMARK                            x       y       z     vdW  Elec       q    Type
REMARK                         _______ _______ _______ _____ _____    ______ ____
ROOT
ATOM      1  C   LIG    1       -1.416  -2.058  -0.121  0.00  0.00    +0.270 C 
ENDROOT
BRANCH   1   2
ATOM      2  O   LIG    1       -0.594  -2.617   0.906  0.00  0.00    -0.520 OA
ATOM      3  H   LIG    1       -0.893  -2.413   1.803  0.00  0.00    +0.400 HD
ENDBRANCH   1   2
BRANCH   1   4
ATOM      4  O   LIG    1       -0.890  -2.417  -1.400  0.00  0.00    -0.530 OA
ATOM      5  H   LIG    1       -1.399  -2.071  -2.146  0.00  0.00    +0.400 HD
ENDBRANCH   1   4
BRANCH   1   6
ATOM      6  C   LIG    1       -1.433  -0.534   0.013  0.00  0.00    +0.190 C 
BRANCH   6   7
ATOM      7  O   LIG    1       -2.066  -0.171   1.242  0.00  0.00    -0.530 OA
ATOM      8  H   LIG    1       -1.626  -0.521   2.029  0.00  0.00    +0.370 HD
ENDBRANCH   6   7
BRANCH   6   9
ATOM      9  C   LIG    1        0.002  -0.004   0.002  0.00  0.00    +0.180 C 
BRANCH   9  10
ATOM     10  O   LIG    1       -0.017   1.425   0.010  0.00  0.00    -0.560 OA
ATOM     11  H   LIG    1        0.861   1.830   0.004  0.00  0.00    +0.390 HD
ENDBRANCH   9  10
ENDBRANCH   6   9
ENDBRANCH   1   6
BRANCH   1  12
ATOM     12  C   LIG    1       -2.841  -2.598   0.015  0.00  0.00    +0.200 C 
BRANCH  12  13
ATOM     13  C   LIG    1       -2.841  -4.106  -0.243  0.00  0.00    +0.170 C 
ATOM     14  N   LIG    1       -4.222  -4.638  -0.196  0.00  0.00    -0.510 N 
ATOM     15  C   LIG    1       -4.234  -6.025   0.308  0.00  0.00    +0.300 C 
ATOM     16  C   LIG    1       -3.371  -6.057   1.600  0.00  0.00    +0.140 C 
ATOM     17  H   LIG    1       -4.617  -4.621  -1.124  0.00  0.00    +0.440 HD
ATOM     18  H   LIG    1       -4.780  -4.059   0.414  0.00  0.00    +0.440 HD
ATOM     19  S   LIG    1       -1.959  -4.985   1.102  0.00  0.00    -0.100 S 
ENDBRANCH  12  13
BRANCH  12  20
ATOM     20  O   LIG    1       -3.688  -1.952  -0.938  0.00  0.00    -0.530 OA
ATOM     21  H   LIG    1       -3.419  -2.084  -1.857  0.00  0.00    +0.390 HD
ENDBRANCH  12  20
ENDBRANCH   1  12
TORSDOF 9
ENDMDL
MODEL       32
REMARK  Name = ZINC000016921152
REMARK                            x       y       z     vdW  Elec       q    Type
REMARK                         _______ _______ _______ _____ _____    ______ ____
ROOT
ATOM      1  C   LIG    1       -1.293  -0.775   0.010  0.00  0.00    +0.250 C 
ENDROOT
BRANCH   1   5
ATOM      2  N   LIG    1       -0.016   1.344   0.009  0.00  0.00    -0.840 N 
ATOM      3  H   LIG    1       -0.863   1.817   0.016  0.00  0.00    +0.400 HD
ATOM      4  H   LIG    1        0.817   1.840   0.004  0.00  0.00    +0.410 HD
ATOM      5  C   LIG    1        0.002  -0.004   0.002  0.00  0.00    +0.510 C 
ATOM      6  O   LIG    1        1.060  -0.596  -0.011  0.00  0.00    -0.530 OA
ENDBRANCH   1   5
BRANCH   1   7
ATOM      7  N   LIG    1       -1.005  -2.212  -0.000  0.00  0.00    -0.680 N 
ATOM      8  H   LIG    1       -0.990  -2.697  -0.840  0.00  0.00    +0.420 HD
ATOM      9  C   LIG    1       -0.762  -2.859   1.157  0.00  0.00    +0.510 C 
ATOM     10  O   LIG    1       -0.782  -2.252   2.207  0.00  0.00    -0.530 OA
BRANCH   9  11
ATOM     11  C   LIG    1       -0.467  -4.337   1.146  0.00  0.00    +0.310 C 
BRANCH  11  12
ATOM     12  N   LIG    1       -0.239  -4.801   2.521  0.00  0.00    -0.620 N 
ATOM     13  H   LIG    1       -1.064  -4.626   3.076  0.00  0.00    +0.440 HD
ATOM     14  H   LIG    1        0.544  -4.304   2.918  0.00  0.00    +0.440 HD
ATOM     15  H   LIG    1       -0.042  -5.790   2.514  0.00  0.00    +0.450 HD
ENDBRANCH  11  12
ENDBRANCH   9  11
ENDBRANCH   1   7
BRANCH   1  16
ATOM     16  C   LIG    1       -2.112  -0.410  -1.229  0.00  0.00    +0.160 C 
BRANCH  16  17
ATOM     17  C   LIG    1       -3.457  -1.086  -1.160  0.00  0.00    -0.040 A 
ATOM     18  C   LIG    1       -3.746  -2.341  -1.553  0.00  0.00    +0.160 A 
ATOM     19  N   LIG    1       -5.050  -2.558  -1.324  0.00  0.00    -0.490 NA
ATOM     20  C   LIG    1       -5.580  -1.484  -0.804  0.00  0.00    +0.410 A 
ATOM     21  N   LIG    1       -4.619  -0.544  -0.679  0.00  0.00    -0.560 N 
ATOM     22  H   LIG    1       -4.732   0.351  -0.322  0.00  0.00    +0.420 HD
ENDBRANCH  16  17
ENDBRANCH   1  16
TORSDOF 6
ENDMDL
MODEL       33
REMARK  Name = ZINC000023973087
REMARK                            x       y       z     vdW  Elec       q    Type
REMARK                         _______ _______ _______ _____ _____    ______ ____
ROOT
ATOM      1  C   LIG    1        1.526  -2.281  -2.655  0.00  0.00    +0.510 C 
ATOM      2  N   LIG    1        1.665  -3.603  -2.876  0.00  0.00    -0.710 N 
ATOM      3  H   LIG    1        1.312  -4.241  -2.238  0.00  0.00    +0.420 HD
ATOM      4  O   LIG    1        1.969  -1.482  -3.453  0.00  0.00    -0.510 OA
ENDROOT
BRANCH   1   7
ATOM      5  N   LIG    1        0.688  -0.476  -1.203  0.00  0.00    -0.700 N 
ATOM      6  H   LIG    1        1.042   0.162  -1.842  0.00  0.00    +0.410 HD
ATOM      7  C   LIG    1        0.827  -1.799  -1.425  0.00  0.00    +0.510 C 
ATOM      8  O   LIG    1        0.384  -2.598  -0.626  0.00  0.00    -0.520 OA
BRANCH   5  10
ATOM      9  C   LIG    1       -0.019   1.526   0.010  0.00  0.00    +0.050 C 
ATOM     10  C   LIG    1        0.002  -0.004   0.002  0.00  0.00    +0.270 C 
ENDBRANCH   5  10
ENDBRANCH   1   7
BRANCH   2  11
ATOM     11  C   LIG    1        2.351  -4.075  -4.082  0.00  0.00    +0.290 C 
BRANCH  11  12
ATOM     12  C   LIG    1        2.372  -5.605  -4.090  0.00  0.00    +0.030 C 
BRANCH  12  13
ATOM     13  C   LIG    1        3.088  -6.098  -5.349  0.00  0.00    +0.280 C 
BRANCH  13  14
ATOM     14  N   LIG    1        3.108  -7.567  -5.357  0.00  0.00    -0.390 N 
ATOM     15  C   LIG    1        3.898  -8.040  -6.502  0.00  0.00    +0.240 C 
ATOM     16  C   LIG    1        3.917  -9.571  -6.508  0.00  0.00    +0.260 C 
ATOM     17  O   LIG    1        2.574 -10.059  -6.559  0.00  0.00    -0.360 OA
ATOM     18  C   LIG    1        1.757  -9.606  -5.476  0.00  0.00    +0.260 C 
ATOM     19  C   LIG    1        1.734  -8.075  -5.468  0.00  0.00    +0.230 C 
ATOM     20  H   LIG    1        3.523  -7.903  -4.501  0.00  0.00    +0.420 HD
ENDBRANCH  13  14
ENDBRANCH  12  13
ENDBRANCH  11  12
ENDBRANCH   2  11
TORSDOF 6
ENDMDL
MODEL       34
REMARK  Name = ZINC000257314331
REMARK                            x       y       z     vdW  Elec       q    Type
REMARK                         _______ _______ _______ _____ _____    ______ ____
ROOT
ATOM      1  N   LIG    1       -2.255  -3.027   0.007  0.00  0.00    -0.390 N 
ATOM      2  C   LIG    1       -1.974  -4.481  -0.129  0.00  0.00    +0.290 C 
ATOM      3  C   LIG    1       -2.460  -5.120   1.163  0.00  0.00    +0.200 C 
ATOM      4  N   LIG    1       -3.030  -6.448   1.111  0.00  0.00    -0.720 N 
ATOM      5  H   LIG    1       -2.742  -7.093   0.446  0.00  0.00    +0.420 HD
ATOM      6  C   LIG    1       -3.982  -6.756   2.022  0.00  0.00    +0.490 C 
ATOM      7  C   LIG    1       -4.559  -5.773   2.998  0.00  0.00    +0.320 C 
ATOM      8  O   LIG    1       -3.919  -4.487   2.925  0.00  0.00    -0.330 OA
ATOM      9  O   LIG    1       -4.393  -7.897   2.052  0.00  0.00    -0.500 OA
ATOM     10  C   LIG    1       -3.612  -4.162   1.584  0.00  0.00    +0.150 C 
ATOM     11  C   LIG    1       -2.962  -2.810   1.302  0.00  0.00    +0.320 C 
ATOM     12  H   LIG    1       -2.839  -2.720  -0.756  0.00  0.00    +0.430 HD
ENDROOT
BRANCH   1  13
ATOM     13  C   LIG    1       -0.993  -2.276  -0.001  0.00  0.00    +0.300 C 
BRANCH  13  14
ATOM     14  C   LIG    1       -1.293  -0.775   0.010  0.00  0.00    +0.060 C 
BRANCH  14  18
ATOM     15  N   LIG    1       -0.016   1.344   0.009  0.00  0.00    -0.840 N 
ATOM     16  H   LIG    1       -0.863   1.817   0.016  0.00  0.00    +0.410 HD
ATOM     17  H   LIG    1        0.817   1.840   0.004  0.00  0.00    +0.420 HD
ATOM     18  C   LIG    1        0.002  -0.004   0.002  0.00  0.00    +0.520 C 
ATOM     19  O   LIG    1        1.060  -0.596  -0.011  0.00  0.00    -0.530 OA
ENDBRANCH  14  18
ENDBRANCH  13  14
ENDBRANCH   1  13
TORSDOF 3
ENDMDL
MODEL       35
REMARK  Name = ZINC000257302548
REMARK                            x       y       z     vdW  Elec       q    Type
REMARK                         _______ _______ _______ _____ _____    ______ ____
ROOT
ATOM      1  N   LIG    1       -1.005  -2.216  -0.000  0.00  0.00    -0.360 N 
ATOM      2  C   LIG    1       -2.253  -2.937   0.184  0.00  0.00    +0.280 C 
ATOM      3  C   LIG    1       -2.013  -4.310   0.740  0.00  0.00    +0.070 C 
ATOM      4  C   LIG    1       -1.218  -5.177  -0.230  0.00  0.00    +0.200 C 
ATOM      5  N   LIG    1       -1.500  -6.577   0.082  0.00  0.00    -0.720 N 
ATOM      6  H   LIG    1       -2.426  -6.861   0.121  0.00  0.00    +0.410 HD
ATOM      7  C   LIG    1       -0.548  -7.486   0.318  0.00  0.00    +0.490 C 
ATOM      8  C   LIG    1        0.909  -7.109   0.231  0.00  0.00    +0.300 C 
ATOM      9  O   LIG    1        1.032  -5.989  -0.645  0.00  0.00    -0.350 OA
ATOM     10  O   LIG    1       -0.859  -8.623   0.603  0.00  0.00    -0.510 OA
ATOM     11  C   LIG    1        0.238  -4.864  -0.265  0.00  0.00    +0.140 C 
ATOM     12  C   LIG    1        0.635  -3.693  -1.136  0.00  0.00    +0.090 C 
ATOM     13  C   LIG    1       -0.319  -2.531  -1.209  0.00  0.00    +0.260 C 
ATOM     14  H   LIG    1       -0.396  -2.425   0.777  0.00  0.00    +0.430 HD
ENDROOT
BRANCH   1  15
ATOM     15  C   LIG    1       -1.293  -0.775   0.010  0.00  0.00    +0.300 C 
BRANCH  15  19
ATOM     16  N   LIG    1       -0.016   1.344   0.009  0.00  0.00    -0.820 N 
ATOM     17  H   LIG    1       -0.863   1.817   0.016  0.00  0.00    +0.410 HD
ATOM     18  H   LIG    1        0.817   1.840   0.004  0.00  0.00    +0.430 HD
ATOM     19  C   LIG    1        0.002  -0.004   0.002  0.00  0.00    +0.500 C 
ATOM     20  O   LIG    1        1.060  -0.596  -0.011  0.00  0.00    -0.520 OA
ENDBRANCH  15  19
ENDBRANCH   1  15
TORSDOF 2
ENDMDL
MODEL       36
REMARK  Name = ZINC000096516507
REMARK                            x       y       z     vdW  Elec       q    Type
REMARK                         _______ _______ _______ _____ _____    ______ ____
ROOT
ATOM      1  S   LIG    1        2.736   1.084  -0.025  0.00  0.00    +2.710 S 
ATOM      2  O   LIG    1        3.743   2.082  -0.125  0.00  0.00    -0.940 OA
ATOM      3  O   LIG    1        2.594   0.026  -0.962  0.00  0.00    -0.920 OA
ENDROOT
BRANCH   1  11
ATOM      4  O   LIG    1        0.002  -0.004   0.002  0.00  0.00    -0.540 OA
ATOM      5  C   LIG    1       -0.015   1.216   0.009  0.00  0.00    +0.560 A 
ATOM      6  N   LIG    1       -1.190   1.873   0.029  0.00  0.00    -0.600 N 
ATOM      7  H   LIG    1       -2.020   1.371   0.038  0.00  0.00    +0.430 HD
ATOM      8  C   LIG    1       -1.226   3.231   0.037  0.00  0.00    +0.390 A 
ATOM      9  C   LIG    1       -0.082   3.953   0.024  0.00  0.00    -0.090 A 
ATOM     10  C   LIG    1        1.158   3.299   0.003  0.00  0.00    +0.290 A 
ATOM     11  C   LIG    1        1.193   1.935   0.001  0.00  0.00    -0.830 A 
ENDBRANCH   1  11
BRANCH   1  12
ATOM     12  N   LIG    1        2.928   0.373   1.458  0.00  0.00    -1.010 NA
ATOM     13  C   LIG    1        3.590   1.088   2.560  0.00  0.00    +0.330 C 
ATOM     14  C   LIG    1        2.695   1.004   3.801  0.00  0.00    +0.260 C 
ATOM     15  N   LIG    1        2.390  -0.404   4.088  0.00  0.00    -0.500 N 
ATOM     16  C   LIG    1        1.600  -0.978   2.992  0.00  0.00    +0.260 C 
ATOM     17  H   LIG    1        1.863  -0.464   4.947  0.00  0.00    +0.430 HD
ATOM     18  H   LIG    1        3.252  -0.920   4.187  0.00  0.00    +0.430 HD
ATOM     19  C   LIG    1        2.436  -0.990   1.713  0.00  0.00    +0.340 C 
ENDBRANCH   1  12
TORSDOF 2
ENDMDL
MODEL       37
REMARK  Name = ZINC000022183431
REMARK                            x       y       z     vdW  Elec       q    Type
REMARK                         _______ _______ _______ _____ _____    ______ ____
ROOT
ATOM      1  C   LIG    1       -0.018   1.465   0.010  0.00  0.00    +0.330 C 
ATOM      2  N   LIG    1        0.002  -0.004   0.002  0.00  0.00    -0.390 N 
ATOM      3  C   LIG    1        0.709  -0.489   1.194  0.00  0.00    +0.260 C 
ATOM      4  C   LIG    1        0.631  -2.018   1.246  0.00  0.00    +0.330 C 
ATOM      5  N   LIG    1        1.144  -2.555  -0.024  0.00  0.00    -0.630 N 
ATOM      6  C   LIG    1        0.605  -2.005  -1.277  0.00  0.00    +0.310 C 
ATOM      7  C   LIG    1        2.081  -3.523  -0.038  0.00  0.00    +0.530 C 
ATOM      8  O   LIG    1        2.514  -3.965   1.005  0.00  0.00    -0.510 OA
ATOM      9  C   LIG    1        0.686  -0.476  -1.209  0.00  0.00    +0.270 C 
ATOM     10  H   LIG    1       -0.945  -0.352   0.009  0.00  0.00    +0.430 HD
ENDROOT
BRANCH   7  11
ATOM     11  C   LIG    1        2.592  -4.058  -1.352  0.00  0.00    +0.100 C 
BRANCH  11  12
ATOM     12  C   LIG    1        3.641  -5.140  -1.089  0.00  0.00    +0.170 C 
ATOM     13  N   LIG    1        3.005  -6.283  -0.419  0.00  0.00    -0.680 NA
ATOM     14  H   LIG    1        2.687  -6.029   0.504  0.00  0.00    +0.360 HD
ATOM     15  C   LIG    1        3.937  -7.420  -0.362  0.00  0.00    +0.190 C 
ATOM     16  C   LIG    1        4.144  -7.957  -1.779  0.00  0.00    +0.280 C 
ATOM     17  N   LIG    1        4.479  -6.863  -2.685  0.00  0.00    -0.710 N 
ATOM     18  H   LIG    1        4.893  -7.076  -3.537  0.00  0.00    +0.410 HD
ATOM     19  C   LIG    1        4.240  -5.581  -2.394  0.00  0.00    +0.530 C 
ATOM     20  O   LIG    1        4.522  -4.736  -3.217  0.00  0.00    -0.550 OA
ENDBRANCH  11  12
ENDBRANCH   7  11
TORSDOF 2
ENDMDL
MODEL       38
REMARK  Name = ZINC000022183427
REMARK                            x       y       z     vdW  Elec       q    Type
REMARK                         _______ _______ _______ _____ _____    ______ ____
ROOT
ATOM      1  C   LIG    1       -0.018   1.465   0.010  0.00  0.00    +0.330 C 
ATOM      2  N   LIG    1        0.002  -0.004   0.002  0.00  0.00    -0.390 N 
ATOM      3  C   LIG    1        0.709  -0.489   1.194  0.00  0.00    +0.250 C 
ATOM      4  C   LIG    1        0.631  -2.018   1.246  0.00  0.00    +0.320 C 
ATOM      5  N   LIG    1        1.144  -2.555  -0.024  0.00  0.00    -0.640 N 
ATOM      6  C   LIG    1        0.605  -2.005  -1.277  0.00  0.00    +0.310 C 
ATOM      7  C   LIG    1        2.081  -3.523  -0.038  0.00  0.00    +0.530 C 
ATOM      8  O   LIG    1        2.514  -3.965   1.005  0.00  0.00    -0.480 OA
ATOM      9  C   LIG    1        0.686  -0.476  -1.209  0.00  0.00    +0.250 C 
ATOM     10  H   LIG    1       -0.945  -0.352   0.009  0.00  0.00    +0.430 HD
ENDROOT
BRANCH   7  11
ATOM     11  C   LIG    1        2.592  -4.058  -1.352  0.00  0.00    +0.090 C 
BRANCH  11  12
ATOM     12  C   LIG    1        3.641  -5.140  -1.089  0.00  0.00    +0.220 C 
ATOM     13  N   LIG    1        4.807  -4.539  -0.428  0.00  0.00    -0.660 NA
ATOM     14  H   LIG    1        5.091  -3.692  -0.896  0.00  0.00    +0.340 HD
ATOM     15  C   LIG    1        5.914  -5.508  -0.371  0.00  0.00    +0.240 C 
ATOM     16  C   LIG    1        6.436  -5.739  -1.790  0.00  0.00    +0.230 C 
ATOM     17  N   LIG    1        5.327  -6.043  -2.689  0.00  0.00    -0.720 N 
ATOM     18  H   LIG    1        5.522  -6.467  -3.540  0.00  0.00    +0.410 HD
ATOM     19  C   LIG    1        4.055  -5.760  -2.393  0.00  0.00    +0.480 C 
ATOM     20  O   LIG    1        3.197  -6.019  -3.210  0.00  0.00    -0.550 OA
ENDBRANCH  11  12
ENDBRANCH   7  11
TORSDOF 2
ENDMDL
MODEL       39
REMARK  Name = ZINC000257276447
REMARK                            x       y       z     vdW  Elec       q    Type
REMARK                         _______ _______ _______ _____ _____    ______ ____
ROOT
ATOM      1  C   LIG    1        0.903  -2.341   0.799  0.00  0.00    -0.010 C 
ATOM      2  C   LIG    1       -0.589  -2.757   0.850  0.00  0.00    +0.310 C 
ATOM      3  N   LIG    1       -0.990  -2.411   2.237  0.00  0.00    -0.390 N 
ATOM      4  C   LIG    1        0.160  -2.776   3.093  0.00  0.00    +0.270 C 
ATOM      5  C   LIG    1       -2.178  -3.182   2.628  0.00  0.00    +0.340 C 
ATOM      6  H   LIG    1       -1.178  -1.423   2.309  0.00  0.00    +0.440 HD
ATOM      7  C   LIG    1        1.422  -2.725   2.204  0.00  0.00    +0.300 C 
ENDROOT
BRANCH   1  11
ATOM      8  C   LIG    1        2.259   1.075  -0.270  0.00  0.00    +0.310 C 
ATOM      9  N   LIG    1        2.130  -0.367  -0.046  0.00  0.00    -0.710 N 
ATOM     10  H   LIG    1        2.833  -0.968  -0.340  0.00  0.00    +0.410 HD
ATOM     11  C   LIG    1        1.036  -0.858   0.568  0.00  0.00    +0.520 C 
ATOM     12  O   LIG    1        0.158  -0.106   0.935  0.00  0.00    -0.540 OA
ENDBRANCH   1  11
BRANCH   7  13
ATOM     13  N   LIG    1        2.353  -1.710   2.701  0.00  0.00    -1.120 NA
ATOM     14  H   LIG    1        2.096  -0.775   2.704  0.00  0.00    +0.430 HD
BRANCH  13  15
ATOM     15  S   LIG    1        3.847  -2.159   3.258  0.00  0.00    +2.600 S 
ATOM     16  O   LIG    1        3.576  -3.196   4.191  0.00  0.00    -0.940 OA
ATOM     17  O   LIG    1        4.448  -0.939   3.672  0.00  0.00    -0.930 OA
ATOM     18  C   LIG    1        4.694  -2.822   1.797  0.00  0.00    -0.270 C 
ENDBRANCH  13  15
ENDBRANCH   7  13
TORSDOF 3
ENDMDL
MODEL       40
REMARK  Name = ZINC000084211876
REMARK                            x       y       z     vdW  Elec       q    Type
REMARK                         _______ _______ _______ _____ _____    ______ ____
ROOT
ATOM      1  C   LIG    1        0.628  -2.167  -1.017  0.00  0.00    +0.210 C 
ATOM      2  C   LIG    1        1.489  -2.694   0.136  0.00  0.00    +0.290 C 
ATOM      3  N   LIG    1        1.596  -4.155   0.038  0.00  0.00    -0.500 N 
ATOM      4  C   LIG    1        2.312  -4.523  -1.190  0.00  0.00    +0.270 C 
ATOM      5  C   LIG    1        1.492  -4.087  -2.409  0.00  0.00    +0.320 C 
ATOM      6  H   LIG    1        0.671  -4.558   0.018  0.00  0.00    +0.430 HD
ATOM      7  H   LIG    1        2.099  -4.509   0.838  0.00  0.00    +0.440 HD
ATOM      8  N   LIG    1        1.195  -2.651  -2.286  0.00  0.00    -0.630 N 
ATOM      9  C   LIG    1        1.440  -1.803  -3.304  0.00  0.00    +0.520 C 
ATOM     10  O   LIG    1        1.254  -0.613  -3.161  0.00  0.00    -0.470 OA
ENDROOT
BRANCH   1  14
ATOM     11  C   LIG    1       -0.534   1.480  -0.956  0.00  0.00    +0.300 C 
ATOM     12  N   LIG    1       -0.536   0.015  -0.969  0.00  0.00    -0.720 N 
ATOM     13  H   LIG    1       -1.376  -0.469  -0.953  0.00  0.00    +0.400 HD
ATOM     14  C   LIG    1        0.630  -0.660  -1.004  0.00  0.00    +0.530 C 
ATOM     15  O   LIG    1        1.681  -0.055  -1.024  0.00  0.00    -0.510 OA
ENDBRANCH   1  14
BRANCH   9  16
ATOM     16  C   LIG    1        1.946  -2.333  -4.621  0.00  0.00    +0.080 C 
BRANCH  16  17
ATOM     17  C   LIG    1        2.141  -1.171  -5.598  0.00  0.00    +0.190 C 
BRANCH  17  18
ATOM     18  O   LIG    1        2.620  -1.674  -6.846  0.00  0.00    -0.390 OA
ATOM     19  C   LIG    1        2.837  -0.665  -7.835  0.00  0.00    +0.220 C 
ENDBRANCH  17  18
ENDBRANCH  16  17
ENDBRANCH   9  16
TORSDOF 4
ENDMDL
MODEL       41
REMARK  Name = ZINC000084211874
REMARK                            x       y       z     vdW  Elec       q    Type
REMARK                         _______ _______ _______ _____ _____    ______ ____
ROOT
ATOM      1  C   LIG    1        0.630  -2.167  -1.026  0.00  0.00    +0.230 C 
ATOM      2  C   LIG    1        1.834  -2.687  -0.234  0.00  0.00    +0.290 C 
ATOM      3  N   LIG    1        1.905  -4.149  -0.357  0.00  0.00    -0.500 N 
ATOM      4  C   LIG    1        2.160  -4.522  -1.754  0.00  0.00    +0.270 C 
ATOM      5  C   LIG    1        0.971  -4.093  -2.620  0.00  0.00    +0.310 C 
ATOM      6  H   LIG    1        1.031  -4.553  -0.057  0.00  0.00    +0.430 HD
ATOM      7  H   LIG    1        2.652  -4.498   0.225  0.00  0.00    +0.440 HD
ATOM      8  N   LIG    1        0.730  -2.656  -2.409  0.00  0.00    -0.630 N 
ATOM      9  C   LIG    1        0.610  -1.813  -3.454  0.00  0.00    +0.510 C 
ATOM     10  O   LIG    1        0.481  -0.623  -3.261  0.00  0.00    -0.450 OA
ENDROOT
BRANCH   1  14
ATOM     11  C   LIG    1       -0.451   1.479  -0.586  0.00  0.00    +0.300 C 
ATOM     12  N   LIG    1       -0.453   0.014  -0.592  0.00  0.00    -0.720 N 
ATOM     13  H   LIG    1       -1.236  -0.471  -0.287  0.00  0.00    +0.400 HD
ATOM     14  C   LIG    1        0.632  -0.660  -1.020  0.00  0.00    +0.530 C 
ATOM     15  O   LIG    1        1.611  -0.054  -1.401  0.00  0.00    -0.510 OA
ENDBRANCH   1  14
BRANCH   9  16
ATOM     16  C   LIG    1        0.636  -2.349  -4.862  0.00  0.00    +0.220 C 
BRANCH  16  17
ATOM     17  O   LIG    1        0.493  -1.269  -5.786  0.00  0.00    -0.360 OA
ATOM     18  C   LIG    1        0.505  -1.671  -7.157  0.00  0.00    +0.230 C 
ENDBRANCH  16  17
ENDBRANCH   9  16
TORSDOF 3
ENDMDL
MODEL       42
REMARK  Name = ZINC000257241763
REMARK                            x       y       z     vdW  Elec       q    Type
REMARK                         _______ _______ _______ _____ _____    ______ ____
ROOT
ATOM      1  N   LIG    1        0.158  -2.337   1.315  0.00  0.00    -0.380 N 
ATOM      2  C   LIG    1        1.261  -1.728   2.069  0.00  0.00    +0.270 C 
ATOM      3  C   LIG    1        1.137  -2.105   3.549  0.00  0.00    +0.330 C 
ATOM      4  N   LIG    1        1.067  -3.571   3.653  0.00  0.00    -0.630 N 
ATOM      5  C   LIG    1        0.096  -4.280   2.806  0.00  0.00    +0.220 C 
ATOM      6  C   LIG    1        1.871  -4.245   4.500  0.00  0.00    +0.510 C 
ATOM      7  O   LIG    1        1.859  -5.457   4.511  0.00  0.00    -0.480 OA
ATOM      8  C   LIG    1        2.783  -3.491   5.433  0.00  0.00    +0.120 C 
ATOM      9  C   LIG    1        0.272  -3.800   1.361  0.00  0.00    +0.280 C 
ATOM     10  H   LIG    1       -0.721  -2.056   1.723  0.00  0.00    +0.430 HD
ENDROOT
BRANCH   5  11
ATOM     11  C   LIG    1        0.345  -5.764   2.884  0.00  0.00    +0.530 C 
ATOM     12  O   LIG    1        1.449  -6.207   2.651  0.00  0.00    -0.490 OA
ATOM     13  N   LIG    1       -0.660  -6.600   3.214  0.00  0.00    -0.840 N 
ATOM     14  H   LIG    1       -0.500  -7.555   3.265  0.00  0.00    +0.420 HD
ATOM     15  H   LIG    1       -1.544  -6.245   3.401  0.00  0.00    +0.400 HD
ENDBRANCH   5  11
BRANCH   1  16
ATOM     16  C   LIG    1        0.215  -1.887  -0.082  0.00  0.00    +0.300 C 
BRANCH  16  17
ATOM     17  C   LIG    1       -1.026  -2.382  -0.828  0.00  0.00    +0.190 C 
BRANCH  17  19
ATOM     18  C   LIG    1       -3.415  -2.191  -0.880  0.00  0.00    +0.240 C 
ATOM     19  O   LIG    1       -2.194  -1.792  -0.253  0.00  0.00    -0.400 OA
ENDBRANCH  17  19
ENDBRANCH  16  17
ENDBRANCH   1  16
TORSDOF 4
ENDMDL
MODEL       43
REMARK  Name = ZINC000257241763
REMARK                            x       y       z     vdW  Elec       q    Type
REMARK                         _______ _______ _______ _____ _____    ______ ____
ROOT
ATOM      1  N   LIG    1       -0.514  -2.567   1.248  0.00  0.00    -0.390 N 
ATOM      2  C   LIG    1       -1.394  -2.261   2.383  0.00  0.00    +0.260 C 
ATOM      3  C   LIG    1       -0.680  -2.614   3.692  0.00  0.00    +0.330 C 
ATOM      4  N   LIG    1       -0.246  -4.018   3.622  0.00  0.00    -0.610 N 
ATOM      5  C   LIG    1        0.506  -4.452   2.434  0.00  0.00    +0.260 C 
ATOM      6  C   LIG    1       -0.528  -4.881   4.617  0.00  0.00    +0.530 C 
ATOM      7  O   LIG    1       -0.162  -6.035   4.542  0.00  0.00    -0.510 OA
ATOM      8  C   LIG    1       -1.300  -4.413   5.824  0.00  0.00    +0.130 C 
ATOM      9  C   LIG    1       -0.266  -4.013   1.185  0.00  0.00    +0.290 C 
ATOM     10  H   LIG    1        0.363  -2.081   1.365  0.00  0.00    +0.430 HD
ENDROOT
BRANCH   5  11
ATOM     11  C   LIG    1        1.873  -3.819   2.441  0.00  0.00    +0.490 C 
ATOM     12  O   LIG    1        2.079  -2.827   3.107  0.00  0.00    -0.520 OA
ATOM     13  N   LIG    1        2.868  -4.356   1.706  0.00  0.00    -0.840 N 
ATOM     14  H   LIG    1        3.748  -3.949   1.710  0.00  0.00    +0.420 HD
ATOM     15  H   LIG    1        2.703  -5.150   1.173  0.00  0.00    +0.410 HD
ENDBRANCH   5  11
BRANCH   1  16
ATOM     16  C   LIG    1       -1.154  -2.126   0.002  0.00  0.00    +0.290 C 
BRANCH  16  17
ATOM     17  C   LIG    1       -1.295  -0.603   0.011  0.00  0.00    +0.210 C 
BRANCH  17  19
ATOM     18  C   LIG    1       -0.017   1.425   0.010  0.00  0.00    +0.240 C 
ATOM     19  O   LIG    1        0.002  -0.004   0.002  0.00  0.00    -0.400 OA
ENDBRANCH  17  19
ENDBRANCH  16  17
ENDBRANCH   1  16
TORSDOF 4
ENDMDL
MODEL       44
REMARK  Name = ZINC000084211875
REMARK                            x       y       z     vdW  Elec       q    Type
REMARK                         _______ _______ _______ _____ _____    ______ ____
ROOT
ATOM      1  C   LIG    1        0.591  -2.168  -1.042  0.00  0.00    +0.230 C 
ATOM      2  C   LIG    1       -0.788  -2.714  -1.424  0.00  0.00    +0.290 C 
ATOM      3  N   LIG    1       -0.718  -4.176  -1.548  0.00  0.00    -0.500 N 
ATOM      4  C   LIG    1        0.172  -4.541  -2.657  0.00  0.00    +0.260 C 
ATOM      5  C   LIG    1        1.600  -4.085  -2.336  0.00  0.00    +0.320 C 
ATOM      6  H   LIG    1       -1.641  -4.542  -1.726  0.00  0.00    +0.440 HD
ATOM      7  H   LIG    1       -0.362  -4.568  -0.689  0.00  0.00    +0.430 HD
ATOM      8  N   LIG    1        1.575  -2.647  -2.025  0.00  0.00    -0.630 N 
ATOM      9  C   LIG    1        2.425  -1.793  -2.629  0.00  0.00    +0.520 C 
ATOM     10  O   LIG    1        2.466  -0.631  -2.282  0.00  0.00    -0.450 OA
ENDROOT
BRANCH   1  14
ATOM     11  C   LIG    1        0.772   1.488   0.078  0.00  0.00    +0.300 C 
ATOM     12  N   LIG    1        0.803   0.024   0.085  0.00  0.00    -0.720 N 
ATOM     13  H   LIG    1        0.998  -0.453   0.907  0.00  0.00    +0.400 HD
ATOM     14  C   LIG    1        0.560  -0.662  -1.050  0.00  0.00    +0.530 C 
ATOM     15  O   LIG    1        0.316  -0.066  -2.077  0.00  0.00    -0.500 OA
ENDBRANCH   1  14
BRANCH   9  16
ATOM     16  C   LIG    1        3.325  -2.281  -3.734  0.00  0.00    +0.220 C 
BRANCH  16  17
ATOM     17  O   LIG    1        4.126  -1.198  -4.210  0.00  0.00    -0.360 OA
ATOM     18  C   LIG    1        5.020  -1.556  -5.266  0.00  0.00    +0.230 C 
ENDBRANCH  16  17
ENDBRANCH   9  16
TORSDOF 3
ENDMDL
MODEL       45
REMARK  Name = ZINC000084211877
REMARK                            x       y       z     vdW  Elec       q    Type
REMARK                         _______ _______ _______ _____ _____    ______ ____
ROOT
ATOM      1  C   LIG    1        0.587  -2.168  -1.036  0.00  0.00    +0.220 C 
ATOM      2  C   LIG    1       -0.839  -2.718  -0.921  0.00  0.00    +0.290 C 
ATOM      3  N   LIG    1       -0.811  -4.180  -1.055  0.00  0.00    -0.500 N 
ATOM      4  C   LIG    1       -0.353  -4.550  -2.400  0.00  0.00    +0.260 C 
ATOM      5  C   LIG    1        1.097  -4.091  -2.589  0.00  0.00    +0.320 C 
ATOM      6  H   LIG    1       -1.739  -4.547  -0.906  0.00  0.00    +0.440 HD
ATOM      7  H   LIG    1       -0.182  -4.568  -0.368  0.00  0.00    +0.430 HD
ATOM      8  N   LIG    1        1.177  -2.651  -2.294  0.00  0.00    -0.630 N 
ATOM      9  C   LIG    1        1.766  -1.799  -3.156  0.00  0.00    +0.520 C 
ATOM     10  O   LIG    1        1.920  -0.636  -2.849  0.00  0.00    -0.480 OA
ENDROOT
BRANCH   1  14
ATOM     11  C   LIG    1        1.129   1.494  -0.061  0.00  0.00    +0.300 C 
ATOM     12  N   LIG    1        1.165   0.029  -0.059  0.00  0.00    -0.720 N 
ATOM     13  H   LIG    1        1.631  -0.443   0.649  0.00  0.00    +0.400 HD
ATOM     14  C   LIG    1        0.550  -0.662  -1.039  0.00  0.00    +0.530 C 
ATOM     15  O   LIG    1       -0.032  -0.071  -1.924  0.00  0.00    -0.510 OA
ENDBRANCH   1  14
BRANCH   9  16
ATOM     16  C   LIG    1        2.236  -2.292  -4.501  0.00  0.00    +0.080 C 
BRANCH  16  17
ATOM     17  C   LIG    1        2.864  -1.133  -5.278  0.00  0.00    +0.190 C 
BRANCH  17  18
ATOM     18  O   LIG    1        3.309  -1.601  -6.553  0.00  0.00    -0.390 OA
ATOM     19  C   LIG    1        3.915  -0.591  -7.363  0.00  0.00    +0.220 C 
ENDBRANCH  17  18
ENDBRANCH  16  17
ENDBRANCH   9  16
TORSDOF 4
ENDMDL
MODEL       46
REMARK  Name = ZINC000257241762
REMARK                            x       y       z     vdW  Elec       q    Type
REMARK                         _______ _______ _______ _____ _____    ______ ____
ROOT
ATOM      1  N   LIG    1       -0.545  -2.460   1.296  0.00  0.00    -0.390 N 
ATOM      2  C   LIG    1        0.780  -1.833   1.388  0.00  0.00    +0.270 C 
ATOM      3  C   LIG    1        1.367  -2.084   2.781  0.00  0.00    +0.340 C 
ATOM      4  N   LIG    1        1.363  -3.533   3.034  0.00  0.00    -0.610 N 
ATOM      5  C   LIG    1        0.111  -4.273   2.808  0.00  0.00    +0.260 C 
ATOM      6  C   LIG    1        2.473  -4.165   3.462  0.00  0.00    +0.530 C 
ATOM      7  O   LIG    1        2.450  -5.361   3.666  0.00  0.00    -0.510 OA
ATOM      8  C   LIG    1        3.744  -3.387   3.688  0.00  0.00    +0.130 C 
ATOM      9  C   LIG    1       -0.415  -3.918   1.413  0.00  0.00    +0.280 C 
ATOM     10  H   LIG    1       -1.131  -2.115   2.041  0.00  0.00    +0.430 HD
ENDROOT
BRANCH   5  11
ATOM     11  C   LIG    1       -0.903  -3.884   3.852  0.00  0.00    +0.490 C 
ATOM     12  O   LIG    1       -0.774  -2.845   4.465  0.00  0.00    -0.520 OA
ATOM     13  N   LIG    1       -1.953  -4.690   4.105  0.00  0.00    -0.840 N 
ATOM     14  H   LIG    1       -2.606  -4.440   4.777  0.00  0.00    +0.420 HD
ATOM     15  H   LIG    1       -2.056  -5.521   3.615  0.00  0.00    +0.410 HD
ENDBRANCH   5  11
BRANCH   1  16
ATOM     16  C   LIG    1       -1.154  -2.126   0.002  0.00  0.00    +0.300 C 
BRANCH  16  17
ATOM     17  C   LIG    1       -2.595  -2.640  -0.032  0.00  0.00    +0.190 C 
BRANCH  17  19
ATOM     18  C   LIG    1       -4.733  -2.373   1.018  0.00  0.00    +0.240 C 
ATOM     19  O   LIG    1       -3.365  -1.964   0.965  0.00  0.00    -0.400 OA
ENDBRANCH  17  19
ENDBRANCH  16  17
ENDBRANCH   1  16
TORSDOF 4
ENDMDL
MODEL       47
REMARK  Name = ZINC000257241762
REMARK                            x       y       z     vdW  Elec       q    Type
REMARK                         _______ _______ _______ _____ _____    ______ ____
ROOT
ATOM      1  N   LIG    1       -1.053  -2.607   2.021  0.00  0.00    -0.380 N 
ATOM      2  C   LIG    1       -1.050  -2.230   3.440  0.00  0.00    +0.260 C 
ATOM      3  C   LIG    1        0.322  -2.540   4.048  0.00  0.00    +0.330 C 
ATOM      4  N   LIG    1        0.635  -3.955   3.795  0.00  0.00    -0.630 N 
ATOM      5  C   LIG    1        0.499  -4.460   2.421  0.00  0.00    +0.210 C 
ATOM      6  C   LIG    1        1.035  -4.765   4.795  0.00  0.00    +0.510 C 
ATOM      7  O   LIG    1        1.220  -5.945   4.583  0.00  0.00    -0.480 OA
ATOM      8  C   LIG    1        1.251  -4.206   6.178  0.00  0.00    +0.130 C 
ATOM      9  C   LIG    1       -0.882  -4.060   1.892  0.00  0.00    +0.290 C 
ATOM     10  H   LIG    1       -0.295  -2.138   1.548  0.00  0.00    +0.430 HD
ENDROOT
BRANCH   5  11
ATOM     11  C   LIG    1        0.632  -5.961   2.417  0.00  0.00    +0.540 C 
ATOM     12  O   LIG    1       -0.177  -6.643   3.011  0.00  0.00    -0.510 OA
ATOM     13  N   LIG    1        1.649  -6.547   1.755  0.00  0.00    -0.840 N 
ATOM     14  H   LIG    1        1.734  -7.513   1.753  0.00  0.00    +0.420 HD
ATOM     15  H   LIG    1        2.296  -6.002   1.281  0.00  0.00    +0.400 HD
ENDBRANCH   5  11
BRANCH   1  16
ATOM     16  C   LIG    1       -2.329  -2.210   1.413  0.00  0.00    +0.290 C 
BRANCH  16  17
ATOM     17  C   LIG    1       -2.450  -0.685   1.431  0.00  0.00    +0.210 C 
BRANCH  17  19
ATOM     18  C   LIG    1       -1.464   1.311   0.542  0.00  0.00    +0.240 C 
ATOM     19  O   LIG    1       -1.440  -0.117   0.595  0.00  0.00    -0.400 OA
ENDBRANCH  17  19
ENDBRANCH  16  17
ENDBRANCH   1  16
TORSDOF 4
ENDMDL
MODEL       48
REMARK  Name = ZINC000039293913
REMARK                            x       y       z     vdW  Elec       q    Type
REMARK                         _______ _______ _______ _____ _____    ______ ____
ROOT
ATOM      1  C   LIG    1        1.773  -4.145  -0.209  0.00  0.00    +0.110 C 
ENDROOT
BRANCH   1   2
ATOM      2  C   LIG    1        1.792  -2.615  -0.229  0.00  0.00    +0.050 C 
BRANCH   2   3
ATOM      3  C   LIG    1        0.657  -2.104  -1.120  0.00  0.00    +0.230 C 
BRANCH   3   4
ATOM      4  N   LIG    1        0.902  -2.514  -2.509  0.00  0.00    -0.820 NA
ATOM      5  H   LIG    1        1.775  -2.138  -2.848  0.00  0.00    +0.350 HD
ATOM      6  H   LIG    1        0.136  -2.243  -3.106  0.00  0.00    +0.360 HD
ENDBRANCH   3   4
BRANCH   3   7
ATOM      7  C   LIG    1        0.598  -0.600  -1.043  0.00  0.00    +0.420 C 
ATOM      8  O   LIG    1        1.088   0.070  -1.921  0.00  0.00    -0.500 OA
BRANCH   7  10
ATOM      9  C   LIG    1       -0.018   1.448   0.010  0.00  0.00    +0.280 C 
ATOM     10  O   LIG    1        0.002  -0.004   0.002  0.00  0.00    -0.360 OA
ENDBRANCH   7  10
ENDBRANCH   3   7
ENDBRANCH   2   3
ENDBRANCH   1   2
BRANCH   1  11
ATOM     11  C   LIG    1        2.907  -4.657   0.681  0.00  0.00    +0.220 C 
BRANCH  11  12
ATOM     12  N   LIG    1        4.200  -4.292   0.086  0.00  0.00    -0.630 N 
ATOM     13  H   LIG    1        4.948  -4.630   0.673  0.00  0.00    +0.440 HD
ATOM     14  H   LIG    1        4.262  -3.288   0.007  0.00  0.00    +0.450 HD
ATOM     15  H   LIG    1        4.278  -4.707  -0.830  0.00  0.00    +0.440 HD
ENDBRANCH  11  12
BRANCH  11  16
ATOM     16  C   LIG    1        2.815  -6.157   0.800  0.00  0.00    +0.450 C 
ATOM     17  O   LIG    1        3.529  -6.861   0.126  0.00  0.00    -0.490 OA
BRANCH  16  18
ATOM     18  O   LIG    1        1.940  -6.710   1.654  0.00  0.00    -0.330 OA
ATOM     19  C   LIG    1        1.905  -8.160   1.716  0.00  0.00    +0.310 C 
ENDBRANCH  16  18
ENDBRANCH  11  16
ENDBRANCH   1  11
TORSDOF 9
ENDMDL
MODEL       49
REMARK  Name = ZINC000039293915
REMARK                            x       y       z     vdW  Elec       q    Type
REMARK                         _______ _______ _______ _____ _____    ______ ____
ROOT
ATOM      1  C   LIG    1       -0.666  -4.171  -1.587  0.00  0.00    +0.090 C 
ENDROOT
BRANCH   1   2
ATOM      2  C   LIG    1       -0.682  -2.641  -1.627  0.00  0.00    +0.010 C 
BRANCH   2   3
ATOM      3  C   LIG    1        0.657  -2.104  -1.120  0.00  0.00    +0.240 C 
BRANCH   3   4
ATOM      4  N   LIG    1        1.727  -2.505  -2.043  0.00  0.00    -0.830 NA
ATOM      5  H   LIG    1        1.562  -2.140  -2.969  0.00  0.00    +0.360 HD
ATOM      6  H   LIG    1        1.830  -3.509  -2.063  0.00  0.00    +0.360 HD
ENDBRANCH   3   4
BRANCH   3   7
ATOM      7  C   LIG    1        0.598  -0.600  -1.043  0.00  0.00    +0.460 C 
ATOM      8  O   LIG    1        1.088   0.070  -1.921  0.00  0.00    -0.490 OA
BRANCH   7  10
ATOM      9  C   LIG    1       -0.018   1.448   0.010  0.00  0.00    +0.280 C 
ATOM     10  O   LIG    1        0.002  -0.004   0.002  0.00  0.00    -0.360 OA
ENDBRANCH   7  10
ENDBRANCH   3   7
ENDBRANCH   2   3
ENDBRANCH   1   2
BRANCH   1  11
ATOM     11  C   LIG    1       -2.005  -4.709  -2.094  0.00  0.00    +0.220 C 
BRANCH  11  12
ATOM     12  N   LIG    1       -2.169  -4.359  -3.511  0.00  0.00    -0.630 N 
ATOM     13  H   LIG    1       -2.149  -3.355  -3.614  0.00  0.00    +0.450 HD
ATOM     14  H   LIG    1       -3.052  -4.713  -3.845  0.00  0.00    +0.450 HD
ATOM     15  H   LIG    1       -1.418  -4.767  -4.047  0.00  0.00    +0.440 HD
ENDBRANCH  11  12
BRANCH  11  16
ATOM     16  C   LIG    1       -2.035  -6.207  -1.940  0.00  0.00    +0.450 C 
ATOM     17  O   LIG    1       -1.816  -6.917  -2.892  0.00  0.00    -0.480 OA
BRANCH  16  18
ATOM     18  O   LIG    1       -2.307  -6.754  -0.744  0.00  0.00    -0.330 OA
ATOM     19  C   LIG    1       -2.319  -8.204  -0.669  0.00  0.00    +0.310 C 
ENDBRANCH  16  18
ENDBRANCH  11  16
ENDBRANCH   1  11
TORSDOF 9
ENDMDL
MODEL       50
REMARK  Name = ZINC000257319874
REMARK                            x       y       z     vdW  Elec       q    Type
REMARK                         _______ _______ _______ _____ _____    ______ ____
ROOT
ATOM      1  C   LIG    1        2.422   1.187  -0.015  0.00  0.00    +0.280 C 
ATOM      2  C   LIG    1        3.543   2.080   0.558  0.00  0.00    +0.280 C 
ATOM      3  N   LIG    1        4.734   1.763  -0.271  0.00  0.00    -0.390 N 
ATOM      4  C   LIG    1        4.194   1.625  -1.648  0.00  0.00    +0.260 C 
ATOM      5  H   LIG    1        5.155   0.898   0.032  0.00  0.00    +0.430 HD
ATOM      6  C   LIG    1        2.849   0.885  -1.466  0.00  0.00    +0.180 C 
ENDROOT
BRANCH   1   9
ATOM      7  O   LIG    1        0.002  -0.004   0.002  0.00  0.00    -0.490 OA
ATOM      8  C   LIG    1       -0.014   1.212   0.009  0.00  0.00    +0.600 C 
ATOM      9  N   LIG    1        1.143   1.902   0.001  0.00  0.00    -0.730 N 
ATOM     10  H   LIG    1        1.130   2.872   0.007  0.00  0.00    +0.400 HD
BRANCH   8  11
ATOM     11  C   LIG    1       -1.299   1.931   0.019  0.00  0.00    -0.060 A 
ATOM     12  C   LIG    1       -2.564   1.370   0.027  0.00  0.00    +0.040 A 
ATOM     13  C   LIG    1       -3.448   2.451   0.035  0.00  0.00    +0.210 A 
ATOM     14  N   LIG    1       -2.737   3.550   0.032  0.00  0.00    -0.250 NA
ATOM     15  N   LIG    1       -1.481   3.284   0.027  0.00  0.00    -0.380 N 
ATOM     16  H   LIG    1       -0.770   3.944   0.025  0.00  0.00    +0.440 HD
ENDBRANCH   8  11
ENDBRANCH   1   9
BRANCH   6  17
ATOM     17  O   LIG    1        3.026  -0.520  -1.655  0.00  0.00    -0.540 OA
ATOM     18  H   LIG    1        3.338  -0.763  -2.537  0.00  0.00    +0.400 HD
ENDBRANCH   6  17
BRANCH   3  19
ATOM     19  C   LIG    1        5.711   2.859  -0.207  0.00  0.00    +0.290 C 
BRANCH  19  20
ATOM     20  C   LIG    1        6.978   2.458  -0.965  0.00  0.00    +0.220 C 
BRANCH  20  21
ATOM     21  O   LIG    1        6.674   2.304  -2.353  0.00  0.00    -0.580 OA
ATOM     22  H   LIG    1        7.432   2.049  -2.896  0.00  0.00    +0.410 HD
ENDBRANCH  20  21
ENDBRANCH  19  20
ENDBRANCH   3  19
TORSDOF 6
ENDMDL
MODEL       51
REMARK  Name = ZINC000257319874
REMARK                            x       y       z     vdW  Elec       q    Type
REMARK                         _______ _______ _______ _____ _____    ______ ____
ROOT
ATOM      1  C   LIG    1        2.422   1.187  -0.015  0.00  0.00    +0.280 C 
ATOM      2  C   LIG    1        3.540   2.078   0.558  0.00  0.00    +0.280 C 
ATOM      3  N   LIG    1        4.524   2.290  -0.526  0.00  0.00    -0.390 N 
ATOM      4  C   LIG    1        4.381   1.125  -1.436  0.00  0.00    +0.240 C 
ATOM      5  H   LIG    1        4.318   3.145  -1.020  0.00  0.00    +0.440 HD
ATOM      6  C   LIG    1        2.849   0.884  -1.469  0.00  0.00    +0.180 C 
ENDROOT
BRANCH   1   9
ATOM      7  O   LIG    1        0.002  -0.004   0.002  0.00  0.00    -0.480 OA
ATOM      8  C   LIG    1       -0.014   1.212   0.009  0.00  0.00    +0.600 C 
ATOM      9  N   LIG    1        1.143   1.902   0.001  0.00  0.00    -0.740 N 
ATOM     10  H   LIG    1        1.130   2.872   0.007  0.00  0.00    +0.400 HD
BRANCH   8  11
ATOM     11  C   LIG    1       -1.299   1.931   0.019  0.00  0.00    -0.060 A 
ATOM     12  C   LIG    1       -2.564   1.370   0.027  0.00  0.00    +0.040 A 
ATOM     13  C   LIG    1       -3.448   2.451   0.035  0.00  0.00    +0.210 A 
ATOM     14  N   LIG    1       -2.737   3.550   0.032  0.00  0.00    -0.260 NA
ATOM     15  N   LIG    1       -1.481   3.284   0.027  0.00  0.00    -0.380 N 
ATOM     16  H   LIG    1       -0.770   3.944   0.025  0.00  0.00    +0.440 HD
ENDBRANCH   8  11
ENDBRANCH   1   9
BRANCH   6  17
ATOM     17  O   LIG    1        2.558  -0.471  -1.817  0.00  0.00    -0.520 OA
ATOM     18  H   LIG    1        2.876  -0.730  -2.693  0.00  0.00    +0.400 HD
ENDBRANCH   6  17
BRANCH   3  19
ATOM     19  C   LIG    1        5.884   2.339   0.027  0.00  0.00    +0.290 C 
BRANCH  19  20
ATOM     20  C   LIG    1        6.875   2.682  -1.087  0.00  0.00    +0.220 C 
BRANCH  20  21
ATOM     21  O   LIG    1        6.614   4.003  -1.567  0.00  0.00    -0.580 OA
ATOM     22  H   LIG    1        7.206   4.288  -2.276  0.00  0.00    +0.410 HD
ENDBRANCH  20  21
ENDBRANCH  19  20
ENDBRANCH   3  19
TORSDOF 6
ENDMDL
MODEL       52
REMARK  Name = ZINC000257217807
REMARK                            x       y       z     vdW  Elec       q    Type
REMARK                         _______ _______ _______ _____ _____    ______ ____
ROOT
ATOM      1  N   LIG    1        1.403  -2.533  -0.165  0.00  0.00    -0.390 N 
ATOM      2  C   LIG    1        2.848  -2.255   0.041  0.00  0.00    +0.240 C 
ATOM      3  C   LIG    1        3.540  -3.223  -0.951  0.00  0.00    +0.180 C 
ATOM      4  C   LIG    1        2.656  -4.489  -0.873  0.00  0.00    +0.270 C 
ATOM      5  C   LIG    1        1.295  -3.997  -0.345  0.00  0.00    +0.280 C 
ATOM      6  H   LIG    1        1.072  -2.056  -0.990  0.00  0.00    +0.440 HD
ENDROOT
BRANCH   4   7
ATOM      7  N   LIG    1        2.502  -5.084  -2.202  0.00  0.00    -0.740 N 
ATOM      8  H   LIG    1        1.738  -4.850  -2.753  0.00  0.00    +0.410 HD
ATOM      9  C   LIG    1        3.420  -5.957  -2.661  0.00  0.00    +0.520 C 
ATOM     10  O   LIG    1        4.375  -6.250  -1.972  0.00  0.00    -0.480 OA
BRANCH   9  11
ATOM     11  C   LIG    1        3.261  -6.569  -4.029  0.00  0.00    +0.210 C 
BRANCH  11  12
ATOM     12  O   LIG    1        4.354  -7.455  -4.284  0.00  0.00    -0.370 OA
ATOM     13  C   LIG    1        4.299  -8.091  -5.562  0.00  0.00    +0.230 C 
ENDBRANCH  11  12
ENDBRANCH   9  11
ENDBRANCH   4   7
BRANCH   3  14
ATOM     14  O   LIG    1        4.876  -3.508  -0.530  0.00  0.00    -0.520 OA
ATOM     15  H   LIG    1        5.450  -2.731  -0.488  0.00  0.00    +0.400 HD
ENDBRANCH   3  14
BRANCH   1  16
ATOM     16  C   LIG    1        0.633  -2.108   1.011  0.00  0.00    +0.290 C 
BRANCH  16  17
ATOM     17  C   LIG    1        0.673  -0.582   1.123  0.00  0.00    +0.200 C 
BRANCH  17  19
ATOM     18  C   LIG    1       -0.017   1.425   0.010  0.00  0.00    +0.240 C 
ATOM     19  O   LIG    1        0.002  -0.004   0.002  0.00  0.00    -0.400 OA
ENDBRANCH  17  19
ENDBRANCH  16  17
ENDBRANCH   1  16
TORSDOF 7
ENDMDL
MODEL       53
REMARK  Name = ZINC000022585655
REMARK                            x       y       z     vdW  Elec       q    Type
REMARK                         _______ _______ _______ _____ _____    ______ ____
ROOT
ATOM      1  C   LIG    1        2.296  -4.277  -1.669  0.00  0.00    +0.240 C 
ENDROOT
BRANCH   1   2
ATOM      2  N   LIG    1        2.141  -5.736  -1.742  0.00  0.00    -0.520 NA
ATOM      3  C   LIG    1        2.289  -6.349  -0.415  0.00  0.00    +0.220 C 
ATOM      4  C   LIG    1        2.063  -7.859  -0.525  0.00  0.00    +0.280 C 
ATOM      5  N   LIG    1        3.039  -8.434  -1.460  0.00  0.00    -0.390 N 
ATOM      6  C   LIG    1        2.862  -7.830  -2.787  0.00  0.00    +0.280 C 
ATOM      7  C   LIG    1        2.832  -9.885  -1.552  0.00  0.00    +0.310 C 
ATOM      8  H   LIG    1        3.973  -8.247  -1.127  0.00  0.00    +0.420 HD
ATOM      9  C   LIG    1        3.095  -6.320  -2.696  0.00  0.00    +0.210 C 
ENDBRANCH   1   2
BRANCH   1  12
ATOM     10  N   LIG    1        2.076  -2.344  -3.196  0.00  0.00    -0.720 N 
ATOM     11  H   LIG    1        2.461  -1.790  -2.499  0.00  0.00    +0.410 HD
ATOM     12  C   LIG    1        1.897  -3.663  -2.986  0.00  0.00    +0.510 C 
ATOM     13  O   LIG    1        1.416  -4.356  -3.857  0.00  0.00    -0.530 OA
BRANCH  10  14
ATOM     14  C   LIG    1        1.688  -1.746  -4.476  0.00  0.00    +0.290 C 
BRANCH  14  15
ATOM     15  C   LIG    1        1.995  -0.248  -4.453  0.00  0.00    +0.170 C 
BRANCH  15  17
ATOM     16  C   LIG    1        3.802   1.322  -4.327  0.00  0.00    +0.210 C 
ATOM     17  O   LIG    1        3.407  -0.051  -4.356  0.00  0.00    -0.390 OA
ENDBRANCH  15  17
ENDBRANCH  14  15
ENDBRANCH  10  14
ENDBRANCH   1  12
TORSDOF 5
ENDMDL
MODEL       54
REMARK  Name = ZINC000257221706
REMARK                            x       y       z     vdW  Elec       q    Type
REMARK                         _______ _______ _______ _____ _____    ______ ____
ROOT
ATOM      1  C   LIG    1       -2.883  -2.333   0.017  0.00  0.00    +0.520 C 
ATOM      2  N   LIG    1       -3.215  -3.639   0.013  0.00  0.00    -0.630 N 
ATOM      3  C   LIG    1       -2.150  -4.698   0.004  0.00  0.00    +0.330 C 
ATOM      4  C   LIG    1       -2.232  -5.392   1.297  0.00  0.00    +0.240 C 
ATOM      5  N   LIG    1       -3.523  -6.011   1.579  0.00  0.00    -0.370 N 
ATOM      6  C   LIG    1       -4.243  -5.012   2.334  0.00  0.00    +0.290 C 
ATOM      7  C   LIG    1       -5.234  -4.269   1.408  0.00  0.00    +0.000 C 
ATOM      8  C   LIG    1       -3.344  -7.231   2.377  0.00  0.00    +0.350 C 
ATOM      9  H   LIG    1       -4.009  -6.221   0.720  0.00  0.00    +0.420 HD
ATOM     10  C   LIG    1       -4.596  -4.042   0.024  0.00  0.00    +0.300 C 
ATOM     11  O   LIG    1       -3.751  -1.486   0.030  0.00  0.00    -0.480 OA
ENDROOT
BRANCH   7  12
ATOM     12  C   LIG    1       -6.486  -5.094   1.252  0.00  0.00    +0.520 C 
ATOM     13  O   LIG    1       -6.582  -6.162   1.817  0.00  0.00    -0.540 OA
ATOM     14  N   LIG    1       -7.498  -4.644   0.484  0.00  0.00    -0.830 N 
ATOM     15  H   LIG    1       -8.303  -5.175   0.383  0.00  0.00    +0.420 HD
ATOM     16  H   LIG    1       -7.421  -3.789   0.032  0.00  0.00    +0.410 HD
ENDBRANCH   7  12
BRANCH   1  17
ATOM     17  C   LIG    1       -1.432  -1.925   0.005  0.00  0.00    +0.210 C 
BRANCH  17  18
ATOM     18  O   LIG    1       -1.339  -0.499   0.012  0.00  0.00    -0.360 OA
BRANCH  18  20
ATOM     19  C   LIG    1       -0.019   1.526   0.010  0.00  0.00    +0.060 C 
ATOM     20  C   LIG    1        0.002  -0.004   0.002  0.00  0.00    +0.170 C 
ENDBRANCH  18  20
ENDBRANCH  17  18
ENDBRANCH   1  17
TORSDOF 4
ENDMDL
MODEL       55
REMARK  Name = ZINC000257221705
REMARK                            x       y       z     vdW  Elec       q    Type
REMARK                         _______ _______ _______ _____ _____    ______ ____
ROOT
ATOM      1  C   LIG    1       -2.883  -2.333   0.017  0.00  0.00    +0.520 C 
ATOM      2  N   LIG    1       -3.215  -3.639   0.013  0.00  0.00    -0.630 N 
ATOM      3  C   LIG    1       -2.198  -4.654   0.004  0.00  0.00    +0.310 C 
ATOM      4  C   LIG    1       -1.732  -5.157  -1.380  0.00  0.00    +0.250 C 
ATOM      5  N   LIG    1       -2.889  -5.342  -2.296  0.00  0.00    -0.380 N 
ATOM      6  C   LIG    1       -4.010  -5.892  -1.578  0.00  0.00    +0.310 C 
ATOM      7  C   LIG    1       -4.909  -4.699  -1.280  0.00  0.00    -0.030 C 
ATOM      8  C   LIG    1       -2.511  -6.261  -3.378  0.00  0.00    +0.340 C 
ATOM      9  H   LIG    1       -3.150  -4.451  -2.690  0.00  0.00    +0.420 HD
ATOM     10  C   LIG    1       -4.659  -4.064   0.025  0.00  0.00    +0.340 C 
ATOM     11  O   LIG    1       -3.751  -1.486   0.030  0.00  0.00    -0.480 OA
ENDROOT
BRANCH   7  12
ATOM     12  C   LIG    1       -6.343  -5.160  -1.316  0.00  0.00    +0.530 C 
ATOM     13  O   LIG    1       -6.602  -6.320  -1.555  0.00  0.00    -0.530 OA
ATOM     14  N   LIG    1       -7.339  -4.282  -1.081  0.00  0.00    -0.840 N 
ATOM     15  H   LIG    1       -8.262  -4.578  -1.105  0.00  0.00    +0.420 HD
ATOM     16  H   LIG    1       -7.132  -3.354  -0.890  0.00  0.00    +0.410 HD
ENDBRANCH   7  12
BRANCH   1  17
ATOM     17  C   LIG    1       -1.432  -1.925   0.005  0.00  0.00    +0.210 C 
BRANCH  17  18
ATOM     18  O   LIG    1       -1.339  -0.499   0.012  0.00  0.00    -0.360 OA
BRANCH  18  20
ATOM     19  C   LIG    1       -0.019   1.526   0.010  0.00  0.00    +0.060 C 
ATOM     20  C   LIG    1        0.002  -0.004   0.002  0.00  0.00    +0.170 C 
ENDBRANCH  18  20
ENDBRANCH  17  18
ENDBRANCH   1  17
TORSDOF 4
ENDMDL
MODEL       56
REMARK  Name = ZINC000109833664
REMARK                            x       y       z     vdW  Elec       q    Type
REMARK                         _______ _______ _______ _____ _____    ______ ____
ROOT
ATOM      1  C   LIG    1       -4.868   0.561  -0.811  0.00  0.00    +0.500 C 
ATOM      2  O   LIG    1       -4.678   1.694  -1.198  0.00  0.00    -0.410 OA
ENDROOT
BRANCH   1   3
ATOM      3  C   LIG    1       -3.715  -0.278  -0.362  0.00  0.00    +0.490 C 
ATOM      4  O   LIG    1       -3.905  -1.411   0.025  0.00  0.00    -0.440 OA
BRANCH   3   5
ATOM      5  O   LIG    1       -2.468   0.226  -0.386  0.00  0.00    -0.300 OA
BRANCH   5   9
ATOM      6  C   LIG    1        0.002  -0.004   0.002  0.00  0.00    +0.110 C 
ATOM      7  C   LIG    1        0.232  -0.631   1.390  0.00  0.00    +0.260 C 
ATOM      8  O   LIG    1       -1.205  -0.643   1.498  0.00  0.00    -0.370 OA
ATOM      9  C   LIG    1       -1.397  -0.645   0.065  0.00  0.00    +0.370 C 
BRANCH   6  10
ATOM     10  N   LIG    1       -0.018   1.465   0.010  0.00  0.00    -0.820 NA
ATOM     11  H   LIG    1       -0.556   1.823  -0.764  0.00  0.00    +0.360 HD
ATOM     12  H   LIG    1        0.919   1.839   0.003  0.00  0.00    +0.360 HD
ENDBRANCH   6  10
ENDBRANCH   5   9
ENDBRANCH   3   5
ENDBRANCH   1   3
BRANCH   1  13
ATOM     13  O   LIG    1       -6.115   0.058  -0.787  0.00  0.00    -0.350 OA
BRANCH  13  14
ATOM     14  C   LIG    1       -7.186   0.929  -1.238  0.00  0.00    +0.390 C 
ATOM     15  O   LIG    1       -7.721   1.780  -0.204  0.00  0.00    -0.330 OA
ATOM     16  C   LIG    1       -8.716   0.815   0.192  0.00  0.00    +0.290 C 
ATOM     17  C   LIG    1       -8.573   0.260  -1.242  0.00  0.00    +0.180 C 
BRANCH  17  18
ATOM     18  N   LIG    1       -8.529  -1.207  -1.309  0.00  0.00    -0.630 N 
ATOM     19  H   LIG    1       -7.967  -1.561  -0.549  0.00  0.00    +0.440 HD
ATOM     20  H   LIG    1       -8.124  -1.492  -2.188  0.00  0.00    +0.440 HD
ATOM     21  H   LIG    1       -9.465  -1.576  -1.235  0.00  0.00    +0.440 HD
ENDBRANCH  17  18
ENDBRANCH  13  14
ENDBRANCH   1  13
TORSDOF 7
ENDMDL
MODEL       57
REMARK  Name = ZINC000109833661
REMARK                            x       y       z     vdW  Elec       q    Type
REMARK                         _______ _______ _______ _____ _____    ______ ____
ROOT
ATOM      1  C   LIG    1       -3.483  -2.552   2.466  0.00  0.00    +0.500 C 
ATOM      2  O   LIG    1       -2.770  -2.593   3.446  0.00  0.00    -0.410 OA
ENDROOT
BRANCH   1   3
ATOM      3  C   LIG    1       -3.009  -1.866   1.226  0.00  0.00    +0.490 C 
ATOM      4  O   LIG    1       -3.722  -1.825   0.246  0.00  0.00    -0.440 OA
BRANCH   3   5
ATOM      5  O   LIG    1       -1.792  -1.294   1.197  0.00  0.00    -0.300 OA
BRANCH   5   9
ATOM      6  C   LIG    1        0.002  -0.004   0.002  0.00  0.00    +0.190 C 
ATOM      7  C   LIG    1        0.206  -0.616  -1.397  0.00  0.00    +0.210 C 
ATOM      8  O   LIG    1       -0.829  -1.545  -1.017  0.00  0.00    -0.370 OA
ATOM      9  C   LIG    1       -1.398  -0.645  -0.041  0.00  0.00    +0.360 C 
BRANCH   6  10
ATOM     10  N   LIG    1       -0.018   1.465   0.010  0.00  0.00    -0.840 NA
ATOM     11  H   LIG    1       -0.556   1.823  -0.764  0.00  0.00    +0.350 HD
ATOM     12  H   LIG    1        0.919   1.839   0.003  0.00  0.00    +0.360 HD
ENDBRANCH   6  10
ENDBRANCH   5   9
ENDBRANCH   3   5
ENDBRANCH   1   3
BRANCH   1  13
ATOM     13  O   LIG    1       -4.700  -3.125   2.495  0.00  0.00    -0.350 OA
BRANCH  13  14
ATOM     14  C   LIG    1       -5.094  -3.773   3.733  0.00  0.00    +0.390 C 
ATOM     15  O   LIG    1       -4.663  -5.145   3.836  0.00  0.00    -0.330 OA
ATOM     16  C   LIG    1       -5.864  -5.657   3.224  0.00  0.00    +0.290 C 
ATOM     17  C   LIG    1       -6.523  -4.347   3.708  0.00  0.00    +0.180 C 
BRANCH  17  18
ATOM     18  N   LIG    1       -7.401  -3.720   2.711  0.00  0.00    -0.630 N 
ATOM     19  H   LIG    1       -6.976  -3.789   1.798  0.00  0.00    +0.440 HD
ATOM     20  H   LIG    1       -7.537  -2.748   2.946  0.00  0.00    +0.440 HD
ATOM     21  H   LIG    1       -8.293  -4.193   2.703  0.00  0.00    +0.440 HD
ENDBRANCH  17  18
ENDBRANCH  13  14
ENDBRANCH   1  13
TORSDOF 7
ENDMDL
MODEL       58
REMARK  Name = ZINC000109833661
REMARK                            x       y       z     vdW  Elec       q    Type
REMARK                         _______ _______ _______ _____ _____    ______ ____
ROOT
ATOM      1  C   LIG    1       -4.868   0.561  -0.811  0.00  0.00    +0.500 C 
ATOM      2  O   LIG    1       -4.678   1.694  -1.198  0.00  0.00    -0.420 OA
ENDROOT
BRANCH   1   3
ATOM      3  C   LIG    1       -3.715  -0.278  -0.362  0.00  0.00    +0.490 C 
ATOM      4  O   LIG    1       -3.905  -1.411   0.025  0.00  0.00    -0.430 OA
BRANCH   3   5
ATOM      5  O   LIG    1       -2.468   0.226  -0.386  0.00  0.00    -0.300 OA
BRANCH   5   9
ATOM      6  C   LIG    1        0.002  -0.004   0.002  0.00  0.00    +0.110 C 
ATOM      7  C   LIG    1        0.232  -0.631   1.390  0.00  0.00    +0.260 C 
ATOM      8  O   LIG    1       -1.205  -0.643   1.498  0.00  0.00    -0.370 OA
ATOM      9  C   LIG    1       -1.397  -0.645   0.065  0.00  0.00    +0.370 C 
BRANCH   6  10
ATOM     10  N   LIG    1       -0.018   1.465   0.010  0.00  0.00    -0.820 NA
ATOM     11  H   LIG    1       -0.556   1.823  -0.764  0.00  0.00    +0.360 HD
ATOM     12  H   LIG    1        0.919   1.839   0.003  0.00  0.00    +0.360 HD
ENDBRANCH   6  10
ENDBRANCH   5   9
ENDBRANCH   3   5
ENDBRANCH   1   3
BRANCH   1  13
ATOM     13  O   LIG    1       -6.115   0.058  -0.787  0.00  0.00    -0.310 OA
BRANCH  13  14
ATOM     14  C   LIG    1       -7.186   0.929  -1.238  0.00  0.00    +0.380 C 
ATOM     15  O   LIG    1       -7.721   1.780  -0.204  0.00  0.00    -0.340 OA
ATOM     16  C   LIG    1       -9.084   1.580  -0.628  0.00  0.00    +0.300 C 
ATOM     17  C   LIG    1       -8.573   0.260  -1.242  0.00  0.00    +0.160 C 
BRANCH  17  18
ATOM     18  N   LIG    1       -9.103  -0.013  -2.585  0.00  0.00    -0.630 N 
ATOM     19  H   LIG    1      -10.038  -0.384  -2.509  0.00  0.00    +0.450 HD
ATOM     20  H   LIG    1       -8.511  -0.686  -3.050  0.00  0.00    +0.440 HD
ATOM     21  H   LIG    1       -9.122   0.843  -3.119  0.00  0.00    +0.440 HD
ENDBRANCH  17  18
ENDBRANCH  13  14
ENDBRANCH   1  13
TORSDOF 7
ENDMDL
MODEL       59
REMARK  Name = ZINC000148959784
REMARK                            x       y       z     vdW  Elec       q    Type
REMARK                         _______ _______ _______ _____ _____    ______ ____
ROOT
ATOM      1  N   LIG    1        0.711  -0.489   1.189  0.00  0.00    -0.640 N 
ATOM      2  H   LIG    1        1.077   0.142   1.827  0.00  0.00    +0.430 HD
ATOM      3  C   LIG    1        0.857  -1.841   1.398  0.00  0.00    +0.480 C 
ATOM      4  N   LIG    1        1.454  -2.373   2.405  0.00  0.00    -0.610 N 
ATOM      5  C   LIG    1        1.579  -3.824   2.485  0.00  0.00    +0.270 C 
ATOM      6  C   LIG    1        0.827  -4.486   1.354  0.00  0.00    +0.280 C 
ATOM      7  O   LIG    1        1.416  -5.503   0.623  0.00  0.00    -0.300 OA
ATOM      8  C   LIG    1        2.816  -5.668   0.589  0.00  0.00    +0.160 C 
ATOM      9  C   LIG    1        3.419  -5.505   1.973  0.00  0.00    +0.140 C 
ATOM     10  C   LIG    1        3.045  -4.189   2.581  0.00  0.00    +0.200 C 
ATOM     11  H   LIG    1        1.819  -1.812   3.107  0.00  0.00    +0.440 HD
ATOM     12  S   LIG    1        0.244  -3.108   0.325  0.00  0.00    +0.040 S 
ENDROOT
BRANCH   1  14
ATOM     13  C   LIG    1       -0.019   1.526   0.010  0.00  0.00    +0.070 C 
ATOM     14  C   LIG    1        0.002  -0.004   0.002  0.00  0.00    +0.290 C 
ENDBRANCH   1  14
BRANCH   9  15
ATOM     15  O   LIG    1        4.842  -5.594   1.877  0.00  0.00    -0.550 OA
ATOM     16  H   LIG    1        5.160  -6.435   1.521  0.00  0.00    +0.400 HD
ENDBRANCH   9  15
BRANCH  10  17
ATOM     17  O   LIG    1        3.788  -3.160   1.926  0.00  0.00    -0.560 OA
ATOM     18  H   LIG    1        4.747  -3.258   2.003  0.00  0.00    +0.410 HD
ENDBRANCH  10  17
BRANCH   8  19
ATOM     19  C   LIG    1        3.144  -7.066   0.061  0.00  0.00    +0.220 C 
BRANCH  19  20
ATOM     20  O   LIG    1        2.714  -7.176  -1.298  0.00  0.00    -0.560 OA
ATOM     21  H   LIG    1        2.891  -8.038  -1.698  0.00  0.00    +0.390 HD
ENDBRANCH  19  20
ENDBRANCH   8  19
TORSDOF 5
ENDMDL
MODEL       60
REMARK  Name = ZINC000004879758
REMARK                            x       y       z     vdW  Elec       q    Type
REMARK                         _______ _______ _______ _____ _____    ______ ____
ROOT
ATOM      1  C   LIG    1       -1.293  -0.775   0.010  0.00  0.00    +0.260 C 
ENDROOT
BRANCH   1   5
ATOM      2  N   LIG    1       -0.016   1.344   0.009  0.00  0.00    -0.840 N 
ATOM      3  H   LIG    1       -0.863   1.817   0.016  0.00  0.00    +0.410 HD
ATOM      4  H   LIG    1        0.817   1.840   0.004  0.00  0.00    +0.410 HD
ATOM      5  C   LIG    1        0.002  -0.004   0.002  0.00  0.00    +0.510 C 
ATOM      6  O   LIG    1        1.060  -0.596  -0.011  0.00  0.00    -0.540 OA
ENDBRANCH   1   5
BRANCH   1   7
ATOM      7  N   LIG    1       -1.005  -2.212  -0.000  0.00  0.00    -0.680 N 
ATOM      8  H   LIG    1       -0.974  -2.706   0.834  0.00  0.00    +0.410 HD
ATOM      9  C   LIG    1       -0.785  -2.846  -1.169  0.00  0.00    +0.510 C 
ATOM     10  O   LIG    1       -0.824  -2.228  -2.211  0.00  0.00    -0.520 OA
BRANCH   9  11
ATOM     11  C   LIG    1       -0.489  -4.324  -1.179  0.00  0.00    +0.310 C 
BRANCH  11  12
ATOM     12  N   LIG    1       -0.288  -4.773  -2.563  0.00  0.00    -0.620 N 
ATOM     13  H   LIG    1        0.488  -4.272  -2.970  0.00  0.00    +0.440 HD
ATOM     14  H   LIG    1       -1.123  -4.593  -3.100  0.00  0.00    +0.440 HD
ATOM     15  H   LIG    1       -0.090  -5.763  -2.571  0.00  0.00    +0.450 HD
ENDBRANCH  11  12
ENDBRANCH   9  11
ENDBRANCH   1   7
BRANCH   1  16
ATOM     16  C   LIG    1       -2.088  -0.423   1.269  0.00  0.00    +0.160 C 
BRANCH  16  17
ATOM     17  C   LIG    1       -3.434  -1.099   1.218  0.00  0.00    -0.040 A 
ATOM     18  C   LIG    1       -4.540  -0.639   0.602  0.00  0.00    +0.170 A 
ATOM     19  N   LIG    1       -5.522  -1.533   0.791  0.00  0.00    -0.490 NA
ATOM     20  C   LIG    1       -5.067  -2.528   1.502  0.00  0.00    +0.410 A 
ATOM     21  N   LIG    1       -3.767  -2.300   1.784  0.00  0.00    -0.570 N 
ATOM     22  H   LIG    1       -3.179  -2.876   2.298  0.00  0.00    +0.420 HD
ENDBRANCH  16  17
ENDBRANCH   1  16
TORSDOF 6
ENDMDL
MODEL       61
REMARK  Name = ZINC000205680157
REMARK                            x       y       z     vdW  Elec       q    Type
REMARK                         _______ _______ _______ _____ _____    ______ ____
ROOT
ATOM      1  C   LIG    1        1.486  -2.507  -0.029  0.00  0.00    +0.510 C 
ATOM      2  N   LIG    1        1.228  -3.728  -0.539  0.00  0.00    -0.630 N 
ATOM      3  C   LIG    1        0.317  -4.838  -0.220  0.00  0.00    +0.330 C 
ATOM      4  C   LIG    1        1.336  -5.788  -0.865  0.00  0.00    -0.020 C 
ATOM      5  C   LIG    1        1.728  -4.533  -1.663  0.00  0.00    +0.320 C 
ATOM      6  O   LIG    1        2.326  -1.800  -0.544  0.00  0.00    -0.530 OA
ENDROOT
BRANCH   1  12
ATOM      7  C   LIG    1       -0.018   1.465   0.010  0.00  0.00    +0.340 C 
ATOM      8  N   LIG    1        0.002  -0.004   0.002  0.00  0.00    -0.390 N 
ATOM      9  C   LIG    1       -1.376  -0.513   0.013  0.00  0.00    +0.250 C 
ATOM     10  C   LIG    1       -1.353  -2.043   0.004  0.00  0.00    +0.260 C 
ATOM     11  O   LIG    1       -0.612  -2.510   1.135  0.00  0.00    -0.330 OA
ATOM     12  C   LIG    1        0.732  -2.022   1.182  0.00  0.00    +0.090 C 
ATOM     13  C   LIG    1        1.417  -2.533   2.450  0.00  0.00    +0.130 C 
ATOM     14  C   LIG    1        0.712  -0.491   1.193  0.00  0.00    +0.280 C 
ATOM     15  H   LIG    1        0.474  -0.330  -0.828  0.00  0.00    +0.430 HD
ENDBRANCH   1  12
BRANCH   4  16
ATOM     16  C   LIG    1        0.720  -6.880  -1.700  0.00  0.00    +0.530 C 
ATOM     17  O   LIG    1       -0.486  -6.950  -1.813  0.00  0.00    -0.530 OA
ATOM     18  N   LIG    1        1.508  -7.780  -2.320  0.00  0.00    -0.850 N 
ATOM     19  H   LIG    1        1.111  -8.484  -2.858  0.00  0.00    +0.410 HD
ATOM     20  H   LIG    1        2.472  -7.725  -2.229  0.00  0.00    +0.410 HD
ENDBRANCH   4  16
TORSDOF 2
ENDMDL
MODEL       62
REMARK  Name = ZINC000205680157
REMARK                            x       y       z     vdW  Elec       q    Type
REMARK                         _______ _______ _______ _____ _____    ______ ____
ROOT
ATOM      1  C   LIG    1        1.512  -2.524   2.369  0.00  0.00    +0.570 C 
ATOM      2  N   LIG    1        2.097  -3.737   2.327  0.00  0.00    -0.630 N 
ATOM      3  C   LIG    1        2.209  -4.825   1.343  0.00  0.00    +0.330 C 
ATOM      4  C   LIG    1        2.370  -5.799   2.519  0.00  0.00    -0.030 C 
ATOM      5  C   LIG    1        2.911  -4.553   3.241  0.00  0.00    +0.320 C 
ATOM      6  O   LIG    1        1.612  -1.837   3.364  0.00  0.00    -0.520 OA
ENDROOT
BRANCH   1  12
ATOM      7  C   LIG    1       -0.018   1.465   0.010  0.00  0.00    +0.340 C 
ATOM      8  N   LIG    1        0.002  -0.004   0.002  0.00  0.00    -0.390 N 
ATOM      9  C   LIG    1        0.690  -0.478  -1.207  0.00  0.00    +0.240 C 
ATOM     10  C   LIG    1        0.709  -2.009  -1.213  0.00  0.00    +0.270 C 
ATOM     11  O   LIG    1        1.353  -2.477  -0.024  0.00  0.00    -0.340 OA
ATOM     12  C   LIG    1        0.733  -2.022   1.181  0.00  0.00    +0.090 C 
ATOM     13  C   LIG    1       -0.701  -2.551   1.250  0.00  0.00    +0.080 C 
ATOM     14  C   LIG    1        0.713  -0.491   1.192  0.00  0.00    +0.290 C 
ATOM     15  H   LIG    1       -0.945  -0.353   0.009  0.00  0.00    +0.420 HD
ENDBRANCH   1  12
BRANCH   4  16
ATOM     16  C   LIG    1        3.401  -6.875   2.294  0.00  0.00    +0.530 C 
ATOM     17  O   LIG    1        4.018  -6.915   1.250  0.00  0.00    -0.530 OA
ATOM     18  N   LIG    1        3.637  -7.793   3.252  0.00  0.00    -0.850 N 
ATOM     19  H   LIG    1        4.300  -8.486   3.107  0.00  0.00    +0.410 HD
ATOM     20  H   LIG    1        3.143  -7.761   4.086  0.00  0.00    +0.410 HD
ENDBRANCH   4  16
TORSDOF 2
ENDMDL
MODEL       63
REMARK  Name = ZINC000061707755
REMARK                            x       y       z     vdW  Elec       q    Type
REMARK                         _______ _______ _______ _____ _____    ______ ____
ROOT
ATOM      1  C   LIG    1       -2.484  -4.345  -1.134  0.00  0.00    +0.300 C 
ENDROOT
BRANCH   1   2
ATOM      2  N   LIG    1       -2.521  -5.811  -1.041  0.00  0.00    -0.380 N 
ATOM      3  C   LIG    1       -1.922  -6.424  -2.255  0.00  0.00    +0.280 C 
ATOM      4  C   LIG    1       -2.511  -7.850  -2.301  0.00  0.00    +0.050 C 
ATOM      5  C   LIG    1       -3.828  -7.766  -1.503  0.00  0.00    +0.190 C 
ATOM      6  C   LIG    1       -3.925  -6.296  -1.039  0.00  0.00    +0.300 C 
ATOM      7  H   LIG    1       -2.038  -6.124  -0.213  0.00  0.00    +0.440 HD
BRANCH   5   8
ATOM      8  O   LIG    1       -4.937  -8.100  -2.340  0.00  0.00    -0.550 OA
ATOM      9  H   LIG    1       -4.906  -8.999  -2.695  0.00  0.00    +0.410 HD
ENDBRANCH   5   8
ENDBRANCH   1   2
BRANCH   1  12
ATOM     10  N   LIG    1       -0.776  -2.556  -1.119  0.00  0.00    -0.700 N 
ATOM     11  H   LIG    1       -1.495  -1.912  -1.217  0.00  0.00    +0.410 HD
ATOM     12  C   LIG    1       -1.055  -3.873  -1.054  0.00  0.00    +0.500 C 
ATOM     13  O   LIG    1       -0.156  -4.678  -0.932  0.00  0.00    -0.530 OA
BRANCH  10  14
ATOM     14  C   LIG    1        0.613  -2.097  -1.041  0.00  0.00    +0.310 C 
BRANCH  14  15
ATOM     15  C   LIG    1        0.652  -0.570  -1.138  0.00  0.00    +0.180 C 
BRANCH  15  17
ATOM     16  C   LIG    1       -0.017   1.425   0.010  0.00  0.00    +0.220 C 
ATOM     17  O   LIG    1        0.002  -0.004   0.002  0.00  0.00    -0.390 OA
ENDBRANCH  15  17
ENDBRANCH  14  15
ENDBRANCH  10  14
ENDBRANCH   1  12
TORSDOF 6
ENDMDL
MODEL       64
REMARK  Name = ZINC000061707755
REMARK                            x       y       z     vdW  Elec       q    Type
REMARK                         _______ _______ _______ _____ _____    ______ ____
ROOT
ATOM      1  C   LIG    1       -2.484  -4.345  -1.134  0.00  0.00    +0.290 C 
ENDROOT
BRANCH   1   2
ATOM      2  N   LIG    1       -2.521  -5.811  -1.041  0.00  0.00    -0.380 N 
ATOM      3  C   LIG    1       -2.103  -6.249   0.315  0.00  0.00    +0.280 C 
ATOM      4  C   LIG    1       -2.717  -7.667   0.434  0.00  0.00    +0.050 C 
ATOM      5  C   LIG    1       -4.075  -7.517  -0.288  0.00  0.00    +0.190 C 
ATOM      6  C   LIG    1       -3.907  -6.298  -1.215  0.00  0.00    +0.290 C 
ATOM      7  H   LIG    1       -1.918  -6.220  -1.740  0.00  0.00    +0.440 HD
BRANCH   5   8
ATOM      8  O   LIG    1       -4.360  -8.689  -1.055  0.00  0.00    -0.550 OA
ATOM      9  H   LIG    1       -4.434  -9.496  -0.528  0.00  0.00    +0.410 HD
ENDBRANCH   5   8
ENDBRANCH   1   2
BRANCH   1  12
ATOM     10  N   LIG    1       -0.776  -2.556  -1.119  0.00  0.00    -0.700 N 
ATOM     11  H   LIG    1       -1.495  -1.912  -1.217  0.00  0.00    +0.410 HD
ATOM     12  C   LIG    1       -1.055  -3.873  -1.054  0.00  0.00    +0.500 C 
ATOM     13  O   LIG    1       -0.156  -4.678  -0.932  0.00  0.00    -0.530 OA
BRANCH  10  14
ATOM     14  C   LIG    1        0.613  -2.097  -1.041  0.00  0.00    +0.310 C 
BRANCH  14  15
ATOM     15  C   LIG    1        0.652  -0.570  -1.138  0.00  0.00    +0.180 C 
BRANCH  15  17
ATOM     16  C   LIG    1       -0.017   1.425   0.010  0.00  0.00    +0.220 C 
ATOM     17  O   LIG    1        0.002  -0.004   0.002  0.00  0.00    -0.400 OA
ENDBRANCH  15  17
ENDBRANCH  14  15
ENDBRANCH  10  14
ENDBRANCH   1  12
TORSDOF 6
ENDMDL
MODEL       65
REMARK  Name = ZINC000061707756
REMARK                            x       y       z     vdW  Elec       q    Type
REMARK                         _______ _______ _______ _____ _____    ______ ____
ROOT
ATOM      1  C   LIG    1       -2.484  -4.345  -1.134  0.00  0.00    +0.290 C 
ENDROOT
BRANCH   1   2
ATOM      2  N   LIG    1       -2.521  -5.811  -1.041  0.00  0.00    -0.370 N 
ATOM      3  C   LIG    1       -1.877  -6.402  -2.234  0.00  0.00    +0.280 C 
ATOM      4  C   LIG    1       -2.704  -7.676  -2.540  0.00  0.00    +0.050 C 
ATOM      5  C   LIG    1       -4.142  -7.207  -2.194  0.00  0.00    +0.190 C 
ATOM      6  C   LIG    1       -3.921  -6.269  -0.991  0.00  0.00    +0.280 C 
ATOM      7  H   LIG    1       -2.035  -6.112  -0.210  0.00  0.00    +0.440 HD
BRANCH   5   8
ATOM      8  O   LIG    1       -4.962  -8.319  -1.830  0.00  0.00    -0.550 OA
ATOM      9  H   LIG    1       -5.069  -8.975  -2.533  0.00  0.00    +0.410 HD
ENDBRANCH   5   8
ENDBRANCH   1   2
BRANCH   1  12
ATOM     10  N   LIG    1       -0.776  -2.556  -1.119  0.00  0.00    -0.700 N 
ATOM     11  H   LIG    1       -1.495  -1.912  -1.217  0.00  0.00    +0.410 HD
ATOM     12  C   LIG    1       -1.055  -3.873  -1.054  0.00  0.00    +0.500 C 
ATOM     13  O   LIG    1       -0.156  -4.678  -0.932  0.00  0.00    -0.530 OA
BRANCH  10  14
ATOM     14  C   LIG    1        0.613  -2.097  -1.041  0.00  0.00    +0.310 C 
BRANCH  14  15
ATOM     15  C   LIG    1        0.652  -0.570  -1.138  0.00  0.00    +0.180 C 
BRANCH  15  17
ATOM     16  C   LIG    1       -0.017   1.425   0.010  0.00  0.00    +0.220 C 
ATOM     17  O   LIG    1        0.002  -0.004   0.002  0.00  0.00    -0.390 OA
ENDBRANCH  15  17
ENDBRANCH  14  15
ENDBRANCH  10  14
ENDBRANCH   1  12
TORSDOF 6
ENDMDL
MODEL       66
REMARK  Name = ZINC000061707756
REMARK                            x       y       z     vdW  Elec       q    Type
REMARK                         _______ _______ _______ _____ _____    ______ ____
ROOT
ATOM      1  C   LIG    1       -2.484  -4.345  -1.134  0.00  0.00    +0.290 C 
ENDROOT
BRANCH   1   2
ATOM      2  N   LIG    1       -2.521  -5.811  -1.041  0.00  0.00    -0.380 N 
ATOM      3  C   LIG    1       -2.103  -6.249   0.315  0.00  0.00    +0.280 C 
ATOM      4  C   LIG    1       -2.717  -7.667   0.434  0.00  0.00    +0.050 C 
ATOM      5  C   LIG    1       -4.075  -7.517  -0.288  0.00  0.00    +0.190 C 
ATOM      6  C   LIG    1       -3.907  -6.298  -1.215  0.00  0.00    +0.290 C 
ATOM      7  H   LIG    1       -1.918  -6.220  -1.740  0.00  0.00    +0.430 HD
BRANCH   5   8
ATOM      8  O   LIG    1       -5.118  -7.283   0.660  0.00  0.00    -0.560 OA
ATOM      9  H   LIG    1       -5.240  -8.001   1.296  0.00  0.00    +0.400 HD
ENDBRANCH   5   8
ENDBRANCH   1   2
BRANCH   1  12
ATOM     10  N   LIG    1       -0.776  -2.556  -1.119  0.00  0.00    -0.700 N 
ATOM     11  H   LIG    1       -1.495  -1.912  -1.217  0.00  0.00    +0.410 HD
ATOM     12  C   LIG    1       -1.055  -3.873  -1.054  0.00  0.00    +0.500 C 
ATOM     13  O   LIG    1       -0.156  -4.678  -0.932  0.00  0.00    -0.530 OA
BRANCH  10  14
ATOM     14  C   LIG    1        0.613  -2.097  -1.041  0.00  0.00    +0.310 C 
BRANCH  14  15
ATOM     15  C   LIG    1        0.652  -0.570  -1.138  0.00  0.00    +0.180 C 
BRANCH  15  17
ATOM     16  C   LIG    1       -0.017   1.425   0.010  0.00  0.00    +0.220 C 
ATOM     17  O   LIG    1        0.002  -0.004   0.002  0.00  0.00    -0.400 OA
ENDBRANCH  15  17
ENDBRANCH  14  15
ENDBRANCH  10  14
ENDBRANCH   1  12
TORSDOF 6
ENDMDL
MODEL       67
REMARK  Name = ZINC000216592723
REMARK                            x       y       z     vdW  Elec       q    Type
REMARK                         _______ _______ _______ _____ _____    ______ ____
ROOT
ATOM      1  O   LIG    1        0.022  -0.005   0.071  0.00  0.00    -0.530 OA
ATOM      2  C   LIG    1        0.007   1.208   0.083  0.00  0.00    +0.640 C 
ATOM      3  N   LIG    1        1.166   1.896   0.056  0.00  0.00    -0.630 N 
ATOM      4  C   LIG    1        2.454   1.191   0.005  0.00  0.00    +0.290 C 
ATOM      5  C   LIG    1        3.244   1.699  -1.208  0.00  0.00    +0.290 C 
ATOM      6  N   LIG    1        3.241   3.169  -1.187  0.00  0.00    -0.590 N 
ATOM      7  C   LIG    1        1.953   3.874  -1.136  0.00  0.00    +0.270 C 
ATOM      8  C   LIG    1        4.399   3.857  -1.215  0.00  0.00    +0.510 C 
ATOM      9  O   LIG    1        5.457   3.267  -1.160  0.00  0.00    -0.520 OA
ATOM     10  C   LIG    1        1.163   3.366   0.071  0.00  0.00    +0.290 C 
ENDROOT
BRANCH   8  11
ATOM     11  C   LIG    1        4.380   5.361  -1.315  0.00  0.00    +0.140 C 
ATOM     12  C   LIG    1        4.047   5.773  -2.750  0.00  0.00    +0.290 C 
ATOM     13  O   LIG    1        4.085   7.199  -2.852  0.00  0.00    -0.350 OA
ATOM     14  C   LIG    1        5.344   7.768  -2.482  0.00  0.00    +0.270 C 
ATOM     15  C   LIG    1        5.679   7.359  -1.046  0.00  0.00    +0.250 C 
ATOM     16  N   LIG    1        5.699   5.893  -0.948  0.00  0.00    -0.490 N 
ATOM     17  H   LIG    1        6.398   5.524  -1.575  0.00  0.00    +0.440 HD
ATOM     18  H   LIG    1        5.921   5.623  -0.001  0.00  0.00    +0.440 HD
ENDBRANCH   8  11
TORSDOF 1
ENDMDL
MODEL       68
REMARK  Name = ZINC000216592776
REMARK                            x       y       z     vdW  Elec       q    Type
REMARK                         _______ _______ _______ _____ _____    ______ ____
ROOT
ATOM      1  O   LIG    1        0.002  -0.007  -0.009  0.00  0.00    -0.530 OA
ATOM      2  C   LIG    1       -0.015   1.205   0.000  0.00  0.00    +0.640 C 
ATOM      3  N   LIG    1        1.143   1.895  -0.005  0.00  0.00    -0.630 N 
ATOM      4  C   LIG    1        2.433   1.191  -0.028  0.00  0.00    +0.290 C 
ATOM      5  C   LIG    1        3.246   1.698  -1.226  0.00  0.00    +0.290 C 
ATOM      6  N   LIG    1        3.241   3.167  -1.209  0.00  0.00    -0.590 N 
ATOM      7  C   LIG    1        1.952   3.871  -1.186  0.00  0.00    +0.270 C 
ATOM      8  C   LIG    1        4.399   3.857  -1.215  0.00  0.00    +0.500 C 
ATOM      9  O   LIG    1        5.457   3.268  -1.140  0.00  0.00    -0.520 OA
ATOM     10  C   LIG    1        1.138   3.365   0.006  0.00  0.00    +0.290 C 
ENDROOT
BRANCH   8  11
ATOM     11  C   LIG    1        4.380   5.361  -1.315  0.00  0.00    +0.140 C 
ATOM     12  C   LIG    1        4.204   5.963   0.082  0.00  0.00    +0.280 C 
ATOM     13  O   LIG    1        4.242   7.390  -0.012  0.00  0.00    -0.350 OA
ATOM     14  C   LIG    1        5.449   7.895  -0.590  0.00  0.00    +0.270 C 
ATOM     15  C   LIG    1        5.627   7.296  -1.988  0.00  0.00    +0.250 C 
ATOM     16  N   LIG    1        5.647   5.830  -1.892  0.00  0.00    -0.490 N 
ATOM     17  H   LIG    1        5.765   5.434  -2.812  0.00  0.00    +0.440 HD
ATOM     18  H   LIG    1        6.413   5.542  -1.301  0.00  0.00    +0.440 HD
ENDBRANCH   8  11
TORSDOF 1
ENDMDL
MODEL       69
REMARK  Name = ZINC000205691384
REMARK                            x       y       z     vdW  Elec       q    Type
REMARK                         _______ _______ _______ _____ _____    ______ ____
ROOT
ATOM      1  C   LIG    1        0.606  -2.171  -1.026  0.00  0.00    +0.000 C 
ATOM      2  C   LIG    1       -0.779  -2.681  -1.013  0.00  0.00    +0.190 C 
ATOM      3  N   LIG    1       -0.885  -4.139  -0.966  0.00  0.00    -0.540 NA
ATOM      4  C   LIG    1       -0.866  -4.695  -2.303  0.00  0.00    +0.190 C 
ATOM      5  C   LIG    1        0.574  -5.094  -2.678  0.00  0.00    +0.280 C 
ATOM      6  N   LIG    1        1.555  -4.096  -2.203  0.00  0.00    -0.570 N 
ATOM      7  C   LIG    1        2.706  -4.535  -1.656  0.00  0.00    +0.490 C 
ATOM      8  O   LIG    1        3.530  -3.739  -1.258  0.00  0.00    -0.530 OA
ATOM      9  C   LIG    1       -2.092  -4.556  -0.240  0.00  0.00    +0.210 C 
ATOM     10  C   LIG    1        1.333  -2.670  -2.300  0.00  0.00    +0.330 C 
ENDROOT
BRANCH   1  14
ATOM     11  C   LIG    1       -0.018   1.461   0.010  0.00  0.00    +0.280 C 
ATOM     12  N   LIG    1        0.002  -0.004   0.002  0.00  0.00    -0.730 N 
ATOM     13  H   LIG    1       -0.404  -0.499   0.731  0.00  0.00    +0.400 HD
ATOM     14  C   LIG    1        0.585  -0.664  -1.018  0.00  0.00    +0.520 C 
ATOM     15  O   LIG    1        1.093  -0.046  -1.929  0.00  0.00    -0.530 OA
ENDBRANCH   1  14
BRANCH   7  16
ATOM     16  C   LIG    1        2.970  -6.014  -1.539  0.00  0.00    +0.290 C 
BRANCH  16  17
ATOM     17  N   LIG    1        4.281  -6.230  -0.914  0.00  0.00    -0.500 N 
ATOM     18  C   LIG    1        4.538  -7.672  -0.801  0.00  0.00    +0.340 C 
ATOM     19  H   LIG    1        4.289  -5.814   0.005  0.00  0.00    +0.440 HD
ATOM     20  H   LIG    1        4.999  -5.804  -1.482  0.00  0.00    +0.440 HD
ENDBRANCH  16  17
ENDBRANCH   7  16
TORSDOF 3
ENDMDL
MODEL       70
REMARK  Name = ZINC000205691408
REMARK                            x       y       z     vdW  Elec       q    Type
REMARK                         _______ _______ _______ _____ _____    ______ ____
ROOT
ATOM      1  C   LIG    1        0.606  -2.171  -1.026  0.00  0.00    +0.000 C 
ATOM      2  C   LIG    1        1.317  -2.659   0.171  0.00  0.00    +0.190 C 
ATOM      3  N   LIG    1        1.355  -4.116   0.299  0.00  0.00    -0.540 NA
ATOM      4  C   LIG    1        2.498  -4.660  -0.403  0.00  0.00    +0.190 C 
ATOM      5  C   LIG    1        2.083  -5.079  -1.826  0.00  0.00    +0.280 C 
ATOM      6  N   LIG    1        1.154  -4.101  -2.430  0.00  0.00    -0.570 N 
ATOM      7  C   LIG    1        0.098  -4.562  -3.129  0.00  0.00    +0.490 C 
ATOM      8  O   LIG    1       -0.681  -3.783  -3.636  0.00  0.00    -0.530 OA
ATOM      9  C   LIG    1        1.363  -4.520   1.711  0.00  0.00    +0.210 C 
ATOM     10  C   LIG    1        1.329  -2.670  -2.303  0.00  0.00    +0.330 C 
ENDROOT
BRANCH   1  14
ATOM     11  C   LIG    1       -0.018   1.461   0.010  0.00  0.00    +0.280 C 
ATOM     12  N   LIG    1        0.002  -0.004   0.002  0.00  0.00    -0.730 N 
ATOM     13  H   LIG    1       -0.404  -0.499   0.731  0.00  0.00    +0.400 HD
ATOM     14  C   LIG    1        0.585  -0.664  -1.018  0.00  0.00    +0.520 C 
ATOM     15  O   LIG    1        1.093  -0.046  -1.929  0.00  0.00    -0.530 OA
ENDBRANCH   1  14
BRANCH   7  16
ATOM     16  C   LIG    1       -0.115  -6.046  -3.280  0.00  0.00    +0.290 C 
BRANCH  16  17
ATOM     17  N   LIG    1       -1.324  -6.288  -4.079  0.00  0.00    -0.500 N 
ATOM     18  C   LIG    1       -1.532  -7.735  -4.227  0.00  0.00    +0.340 C 
ATOM     19  H   LIG    1       -1.215  -5.869  -4.990  0.00  0.00    +0.440 HD
ATOM     20  H   LIG    1       -2.121  -5.880  -3.614  0.00  0.00    +0.440 HD
ENDBRANCH  16  17
ENDBRANCH   7  16
TORSDOF 3
ENDMDL
MODEL       71
REMARK  Name = ZINC000205694857
REMARK                            x       y       z     vdW  Elec       q    Type
REMARK                         _______ _______ _______ _____ _____    ______ ____
ROOT
ATOM      1  C   LIG    1       -1.135  -2.201   0.001  0.00  0.00    +0.010 C 
ATOM      2  C   LIG    1       -0.411  -2.702   1.224  0.00  0.00    +0.210 C 
ATOM      3  N   LIG    1        0.317  -3.968   0.979  0.00  0.00    -0.520 NA
ATOM      4  C   LIG    1       -0.441  -4.938   0.157  0.00  0.00    +0.250 C 
ATOM      5  C   LIG    1       -1.898  -4.978   0.542  0.00  0.00    +0.230 C 
ATOM      6  N   LIG    1       -2.643  -4.081  -0.364  0.00  0.00    -0.370 N 
ATOM      7  C   LIG    1       -4.051  -4.500  -0.390  0.00  0.00    +0.330 C 
ATOM      8  H   LIG    1       -2.262  -4.170  -1.294  0.00  0.00    +0.420 HD
ATOM      9  C   LIG    1       -2.583  -2.737   0.017  0.00  0.00    +0.260 C 
ENDROOT
BRANCH   1  12
ATOM     10  C   LIG    1       -0.018   1.461   0.010  0.00  0.00    +0.310 C 
ATOM     11  N   LIG    1        0.002  -0.004   0.002  0.00  0.00    -0.610 N 
ATOM     12  C   LIG    1       -1.156  -0.694   0.009  0.00  0.00    +0.520 C 
ATOM     13  O   LIG    1       -2.214  -0.102   0.023  0.00  0.00    -0.530 OA
ATOM     14  C   LIG    1        1.281  -0.719  -0.014  0.00  0.00    +0.300 C 
ENDBRANCH   1  12
BRANCH   3  15
ATOM     15  C   LIG    1        0.754  -4.577   2.242  0.00  0.00    +0.220 C 
BRANCH  15  16
ATOM     16  C   LIG    1        1.693  -5.719   1.950  0.00  0.00    +0.520 C 
ATOM     17  O   LIG    1        1.971  -5.998   0.803  0.00  0.00    -0.530 OA
ATOM     18  N   LIG    1        2.225  -6.431   2.964  0.00  0.00    -0.850 N 
ATOM     19  H   LIG    1        2.829  -7.166   2.776  0.00  0.00    +0.410 HD
ATOM     20  H   LIG    1        2.003  -6.207   3.882  0.00  0.00    +0.400 HD
ENDBRANCH  15  16
ENDBRANCH   3  15
TORSDOF 3
ENDMDL
MODEL       72
REMARK  Name = ZINC000032012035
REMARK                            x       y       z     vdW  Elec       q    Type
REMARK                         _______ _______ _______ _____ _____    ______ ____
ROOT
ATOM      1  N   LIG    1       -2.504  -4.516   0.002  0.00  0.00    -1.010 NA
ATOM      2  C   LIG    1       -2.374  -5.252  -1.265  0.00  0.00    +0.340 C 
ATOM      3  C   LIG    1       -1.085  -6.078  -1.217  0.00  0.00    +0.270 C 
ATOM      4  N   LIG    1       -1.094  -6.929  -0.020  0.00  0.00    -0.500 N 
ATOM      5  C   LIG    1       -1.073  -6.093   1.187  0.00  0.00    +0.270 C 
ATOM      6  H   LIG    1       -0.280  -7.526  -0.027  0.00  0.00    +0.440 HD
ATOM      7  H   LIG    1       -1.927  -7.498  -0.020  0.00  0.00    +0.430 HD
ATOM      8  C   LIG    1       -2.356  -5.267   1.258  0.00  0.00    +0.340 C 
ENDROOT
BRANCH   1   9
ATOM      9  S   LIG    1       -2.801  -2.887   0.013  0.00  0.00    +2.610 S 
ATOM     10  O   LIG    1       -3.471  -2.644  -1.216  0.00  0.00    -0.930 OA
ATOM     11  O   LIG    1       -3.447  -2.657   1.258  0.00  0.00    -0.930 OA
BRANCH   9  12
ATOM     12  C   LIG    1       -1.154  -2.126   0.002  0.00  0.00    -0.350 C 
BRANCH  12  13
ATOM     13  C   LIG    1       -1.295  -0.603   0.011  0.00  0.00    +0.210 C 
BRANCH  13  15
ATOM     14  C   LIG    1       -0.017   1.425   0.010  0.00  0.00    +0.220 C 
ATOM     15  O   LIG    1        0.002  -0.004   0.002  0.00  0.00    -0.380 OA
ENDBRANCH  13  15
ENDBRANCH  12  13
ENDBRANCH   9  12
ENDBRANCH   1   9
TORSDOF 4
ENDMDL
MODEL       73
REMARK  Name = ZINC000096084264
REMARK                            x       y       z     vdW  Elec       q    Type
REMARK                         _______ _______ _______ _____ _____    ______ ____
ROOT
ATOM      1  C   LIG    1        0.024  -4.452  -4.106  0.00  0.00    +0.050 A 
ATOM      2  C   LIG    1       -1.055  -4.665  -4.877  0.00  0.00    -0.080 A 
ATOM      3  C   LIG    1       -2.515  -4.581  -4.523  0.00  0.00    +0.410 C 
ATOM      4  N   LIG    1       -3.288  -4.510  -5.776  0.00  0.00    -0.510 N 
ATOM      5  C   LIG    1       -2.874  -5.592  -6.679  0.00  0.00    +0.300 C 
ATOM      6  C   LIG    1       -1.477  -5.299  -7.240  0.00  0.00    +0.370 C 
ATOM      7  H   LIG    1       -3.122  -3.620  -6.222  0.00  0.00    +0.440 HD
ATOM      8  H   LIG    1       -4.271  -4.603  -5.569  0.00  0.00    +0.450 HD
ATOM      9  N   LIG    1       -0.591  -4.987  -6.112  0.00  0.00    -0.300 N 
ATOM     10  N   LIG    1        0.688  -4.960  -6.077  0.00  0.00    -0.020 NA
ATOM     11  N   LIG    1        1.092  -4.640  -4.895  0.00  0.00    -0.230 NA
ENDROOT
BRANCH   1  12
ATOM     12  C   LIG    1        0.032  -4.071  -2.648  0.00  0.00    +0.300 C 
BRANCH  12  13
ATOM     13  O   LIG    1        0.014  -2.647  -2.527  0.00  0.00    -0.360 OA
BRANCH  13  14
ATOM     14  C   LIG    1        0.021  -2.178  -1.177  0.00  0.00    +0.230 C 
BRANCH  14  17
ATOM     15  C   LIG    1       -0.018   1.461   0.010  0.00  0.00    +0.300 C 
ATOM     16  N   LIG    1        0.002  -0.004   0.002  0.00  0.00    -0.620 N 
ATOM     17  C   LIG    1        0.000  -0.672  -1.169  0.00  0.00    +0.510 C 
ATOM     18  O   LIG    1       -0.018  -0.060  -2.216  0.00  0.00    -0.520 OA
ATOM     19  C   LIG    1        0.024  -0.743   1.267  0.00  0.00    +0.290 C 
ENDBRANCH  14  17
ENDBRANCH  13  14
ENDBRANCH  12  13
ENDBRANCH   1  12
TORSDOF 4
ENDMDL
MODEL       74
REMARK  Name = ZINC000071614022
REMARK                            x       y       z     vdW  Elec       q    Type
REMARK                         _______ _______ _______ _____ _____    ______ ____
ROOT
ATOM      1  C   LIG    1        2.360  -0.507   1.129  0.00  0.00    +0.100 C 
ENDROOT
BRANCH   1   2
ATOM      2  C   LIG    1        2.733  -1.747   1.900  0.00  0.00    -0.060 A 
ATOM      3  C   LIG    1        2.753  -1.884   3.240  0.00  0.00    +0.240 A 
ATOM      4  N   LIG    1        3.139  -3.137   3.523  0.00  0.00    -0.480 NA
ATOM      5  C   LIG    1        3.359  -3.781   2.410  0.00  0.00    +0.450 A 
ATOM      6  N   LIG    1        3.112  -2.952   1.373  0.00  0.00    -0.570 N 
ATOM      7  H   LIG    1        3.194  -3.168   0.431  0.00  0.00    +0.420 HD
ENDBRANCH   1   2
BRANCH   1   8
ATOM      8  C   LIG    1        0.863  -0.451   0.962  0.00  0.00    +0.340 C 
ATOM      9  O   LIG    1        0.185   0.120   1.782  0.00  0.00    -0.410 OA
BRANCH   8  11
ATOM     10  C   LIG    1        0.296  -0.174  -1.436  0.00  0.00    +0.130 C 
ATOM     11  C   LIG    1        0.213  -1.109  -0.227  0.00  0.00    +0.150 C 
BRANCH  11  12
ATOM     12  N   LIG    1       -1.197  -1.389   0.078  0.00  0.00    -0.630 N 
ATOM     13  H   LIG    1       -1.674  -0.525   0.287  0.00  0.00    +0.440 HD
ATOM     14  H   LIG    1       -1.252  -2.006   0.875  0.00  0.00    +0.440 HD
ATOM     15  H   LIG    1       -1.632  -1.829  -0.719  0.00  0.00    +0.450 HD
ENDBRANCH  11  12
ENDBRANCH   8  11
ENDBRANCH   1   8
BRANCH   1  16
ATOM     16  CA  LIG    1        2.834   0.731   1.893  0.00  0.00    +0.110 C 
BRANCH  16  17
ATOM     17  N   LIG    1        2.372   1.941   1.200  0.00  0.00    -0.620 N 
ATOM     18  H1  LIG    1        2.668   1.911   0.237  0.00  0.00    +0.430 HD
ATOM     19  H2  LIG    1        2.765   2.755   1.648  0.00  0.00    +0.450 HD
ATOM     20  H3  LIG    1        1.365   1.987   1.241  0.00  0.00    +0.410 HD
ENDBRANCH  16  17
BRANCH  16  21
ATOM     21  C   LIG    1        4.340   0.734   1.959  0.00  0.00    +0.490 C 
ATOM     22  OXT LIG    1        4.922  -0.085   2.650  0.00  0.00    -0.600 OA
ATOM     23  O   LIG    1        4.976   1.556   1.321  0.00  0.00    -0.660 OA
ENDBRANCH  16  21
ENDBRANCH   1  16
TORSDOF 7
ENDMDL
MODEL       75
REMARK  Name = ZINC000514290030
REMARK                            x       y       z     vdW  Elec       q    Type
REMARK                         _______ _______ _______ _____ _____    ______ ____
ROOT
ATOM      1  C   LIG    1       -0.018   1.503   0.010  0.00  0.00    +0.120 C 
ATOM      2  C   LIG    1        0.002  -0.004   0.002  0.00  0.00    +0.520 C 
ATOM      3  N   LIG    1       -1.156  -0.694   0.009  0.00  0.00    -0.640 N 
ATOM      4  C   LIG    1       -2.449   0.021   0.019  0.00  0.00    +0.330 C 
ATOM      5  C   LIG    1       -3.275  -0.583   1.147  0.00  0.00    +0.170 C 
ATOM      6  C   LIG    1       -4.702  -0.035   1.248  0.00  0.00    +0.060 C 
ATOM      7  C   LIG    1       -5.542  -1.254   1.708  0.00  0.00    +0.200 C 
ATOM      8  C   LIG    1       -4.534  -2.434   1.768  0.00  0.00    +0.300 C 
ATOM      9  N   LIG    1       -3.461  -2.028   0.842  0.00  0.00    -0.370 N 
ATOM     10  C   LIG    1       -2.190  -2.707   1.009  0.00  0.00    +0.000 C 
ATOM     11  C   LIG    1       -1.682  -2.776   2.454  0.00  0.00    +0.230 C 
ATOM     12  N   LIG    1       -2.371  -4.085   2.524  0.00  0.00    -0.490 NA
ATOM     13  C   LIG    1       -1.539  -5.082   3.210  0.00  0.00    +0.200 C 
ATOM     14  C   LIG    1       -2.279  -4.237   1.054  0.00  0.00    +0.260 C 
ATOM     15  H   LIG    1       -3.778  -2.127  -0.111  0.00  0.00    +0.430 HD
ATOM     16  C   LIG    1       -1.143  -2.164   0.001  0.00  0.00    +0.340 C 
ATOM     17  O   LIG    1        1.060  -0.596  -0.011  0.00  0.00    -0.510 OA
ENDROOT
BRANCH   7  18
ATOM     18  O   LIG    1       -6.577  -1.530   0.762  0.00  0.00    -0.560 OA
ATOM     19  H   LIG    1       -7.210  -0.807   0.650  0.00  0.00    +0.400 HD
ENDBRANCH   7  18
TORSDOF 1
ENDMDL
MODEL       76
REMARK  Name = ZINC000514290033
REMARK                            x       y       z     vdW  Elec       q    Type
REMARK                         _______ _______ _______ _____ _____    ______ ____
ROOT
ATOM      1  C   LIG    1       -0.018   1.503   0.010  0.00  0.00    +0.120 C 
ATOM      2  C   LIG    1        0.002  -0.004   0.002  0.00  0.00    +0.520 C 
ATOM      3  N   LIG    1       -1.156  -0.694   0.009  0.00  0.00    -0.630 N 
ATOM      4  C   LIG    1       -2.413   0.035   0.019  0.00  0.00    +0.320 C 
ATOM      5  C   LIG    1       -3.421  -0.571  -0.937  0.00  0.00    +0.160 C 
ATOM      6  C   LIG    1       -4.839  -0.099  -0.544  0.00  0.00    +0.070 C 
ATOM      7  C   LIG    1       -5.483  -1.310   0.160  0.00  0.00    +0.200 C 
ATOM      8  C   LIG    1       -4.418  -2.423   0.121  0.00  0.00    +0.280 C 
ATOM      9  N   LIG    1       -3.477  -2.019  -0.920  0.00  0.00    -0.350 N 
ATOM     10  C   LIG    1       -2.230  -2.735  -0.815  0.00  0.00    +0.000 C 
ATOM     11  C   LIG    1       -2.426  -4.235  -0.495  0.00  0.00    +0.230 C 
ATOM     12  N   LIG    1       -1.382  -4.492  -1.511  0.00  0.00    -0.460 NA
ATOM     13  C   LIG    1       -1.740  -5.640  -2.354  0.00  0.00    +0.200 C 
ATOM     14  C   LIG    1       -1.703  -3.217  -2.187  0.00  0.00    +0.210 C 
ATOM     15  H   LIG    1       -3.896  -2.293  -1.796  0.00  0.00    +0.420 HD
ATOM     16  C   LIG    1       -1.114  -2.146   0.001  0.00  0.00    +0.360 C 
ATOM     17  O   LIG    1        1.060  -0.596  -0.011  0.00  0.00    -0.510 OA
ENDROOT
BRANCH   7  18
ATOM     18  O   LIG    1       -6.657  -1.723  -0.542  0.00  0.00    -0.560 OA
ATOM     19  H   LIG    1       -7.349  -1.048  -0.583  0.00  0.00    +0.410 HD
ENDBRANCH   7  18
TORSDOF 1
ENDMDL
MODEL       77
REMARK  Name = ZINC000169726408
REMARK                            x       y       z     vdW  Elec       q    Type
REMARK                         _______ _______ _______ _____ _____    ______ ____
ROOT
ATOM      1  C   LIG    1        0.679  -2.115   1.088  0.00  0.00    +0.230 C 
ENDROOT
BRANCH   1   2
ATOM      2  N   LIG    1        1.766  -2.526   1.987  0.00  0.00    -0.620 N 
ATOM      3  H   LIG    1        1.806  -3.534   2.027  0.00  0.00    +0.450 HD
ATOM      4  H   LIG    1        1.595  -2.160   2.911  0.00  0.00    +0.450 HD
ATOM      5  H   LIG    1        2.643  -2.168   1.639  0.00  0.00    +0.450 HD
ENDBRANCH   1   2
BRANCH   1   6
ATOM      6  C   LIG    1        0.618  -0.611   1.029  0.00  0.00    +0.460 C 
ATOM      7  O   LIG    1        1.124   0.049   1.905  0.00  0.00    -0.470 OA
BRANCH   6   9
ATOM      8  C   LIG    1       -0.018   1.448   0.010  0.00  0.00    +0.310 C 
ATOM      9  O   LIG    1        0.002  -0.004   0.002  0.00  0.00    -0.330 OA
ENDBRANCH   6   9
ENDBRANCH   1   6
BRANCH   1  10
ATOM     10  C   LIG    1       -0.651  -2.659   1.615  0.00  0.00    +0.410 C 
BRANCH  10  11
ATOM     11  N   LIG    1       -0.636  -4.123   1.561  0.00  0.00    -0.340 N 
ATOM     12  C   LIG    1       -0.875  -4.957   2.599  0.00  0.00    +0.190 A 
ATOM     13  C   LIG    1       -0.760  -6.213   2.108  0.00  0.00    -0.010 A 
ATOM     14  N   LIG    1       -0.459  -6.087   0.810  0.00  0.00    -0.230 NA
ATOM     15  N   LIG    1       -0.399  -4.836   0.516  0.00  0.00    -0.080 NA
BRANCH  13  16
ATOM     16  C   LIG    1       -0.935  -7.500   2.872  0.00  0.00    +0.320 C 
BRANCH  16  17
ATOM     17  O   LIG    1       -1.251  -7.205   4.234  0.00  0.00    -0.580 OA
ATOM     18  H   LIG    1       -1.378  -7.989   4.787  0.00  0.00    +0.400 HD
ENDBRANCH  16  17
ENDBRANCH  13  16
ENDBRANCH  10  11
ENDBRANCH   1  10
TORSDOF 7
ENDMDL
MODEL       78
REMARK  Name = ZINC000000216970
REMARK                            x       y       z     vdW  Elec       q    Type
REMARK                         _______ _______ _______ _____ _____    ______ ____
ROOT
ATOM      1  C   LIG    1        2.122  -3.566  -0.039  0.00  0.00    -0.020 A 
ATOM      2  C   LIG    1        3.279  -3.391  -0.719  0.00  0.00    +0.340 A 
ATOM      3  N   LIG    1        4.222  -4.391  -0.721  0.00  0.00    -0.630 N 
ATOM      4  H   LIG    1        5.051  -4.268  -1.208  0.00  0.00    +0.440 HD
ATOM      5  C   LIG    1        4.004  -5.539  -0.055  0.00  0.00    +0.690 A 
ATOM      6  N   LIG    1        2.862  -5.739   0.628  0.00  0.00    -0.650 N 
ATOM      7  H   LIG    1        2.724  -6.574   1.102  0.00  0.00    +0.440 HD
ATOM      8  O   LIG    1        4.852  -6.411  -0.071  0.00  0.00    -0.520 OA
ATOM      9  C   LIG    1        1.913  -4.783   0.664  0.00  0.00    +0.540 A 
ATOM     10  O   LIG    1        0.880  -4.964   1.283  0.00  0.00    -0.500 OA
ENDROOT
BRANCH   1  15
ATOM     11  C   LIG    1       -0.031   1.456  -0.232  0.00  0.00    +0.310 C 
ATOM     12  N   LIG    1       -0.004  -0.009  -0.116  0.00  0.00    -0.380 N 
ATOM     13  C   LIG    1        0.808  -0.391   1.046  0.00  0.00    +0.250 C 
ATOM     14  C   LIG    1        0.743  -1.910   1.236  0.00  0.00    +0.330 C 
ATOM     15  N   LIG    1        1.144  -2.555  -0.024  0.00  0.00    -0.640 N 
ATOM     16  C   LIG    1        0.493  -2.113  -1.266  0.00  0.00    +0.310 C 
ATOM     17  C   LIG    1        0.572  -0.584  -1.337  0.00  0.00    +0.250 C 
ATOM     18  H   LIG    1       -0.945  -0.352   0.005  0.00  0.00    +0.430 HD
ENDBRANCH   1  15
TORSDOF 1
ENDMDL
MODEL       79
REMARK  Name = ZINC000169726584
REMARK                            x       y       z     vdW  Elec       q    Type
REMARK                         _______ _______ _______ _____ _____    ______ ____
ROOT
ATOM      1  C   LIG    1       -0.651  -2.659   1.615  0.00  0.00    +0.290 C 
ATOM      2  C   LIG    1       -1.783  -2.231   0.679  0.00  0.00    +0.120 C 
ENDROOT
BRANCH   1   3
ATOM      3  N   LIG    1       -0.592  -4.122   1.673  0.00  0.00    -0.330 N 
ATOM      4  C   LIG    1       -0.848  -4.966   0.647  0.00  0.00    +0.200 A 
ATOM      5  C   LIG    1       -0.677  -6.217   1.137  0.00  0.00    -0.010 A 
ATOM      6  N   LIG    1       -0.330  -6.077   2.422  0.00  0.00    -0.220 NA
ATOM      7  N   LIG    1       -0.283  -4.824   2.707  0.00  0.00    -0.100 NA
BRANCH   5   8
ATOM      8  C   LIG    1       -0.844  -7.511   0.384  0.00  0.00    +0.320 C 
BRANCH   8   9
ATOM      9  O   LIG    1       -1.221  -7.231  -0.966  0.00  0.00    -0.580 OA
ATOM     10  H   LIG    1       -1.346  -8.020  -1.511  0.00  0.00    +0.400 HD
ENDBRANCH   8   9
ENDBRANCH   5   8
ENDBRANCH   1   3
BRANCH   1  11
ATOM     11  C   LIG    1        0.679  -2.115   1.088  0.00  0.00    +0.210 C 
BRANCH  11  12
ATOM     12  N   LIG    1        1.766  -2.526   1.987  0.00  0.00    -0.620 N 
ATOM     13  H   LIG    1        1.595  -2.160   2.911  0.00  0.00    +0.450 HD
ATOM     14  H   LIG    1        2.643  -2.168   1.639  0.00  0.00    +0.450 HD
ATOM     15  H   LIG    1        1.806  -3.534   2.027  0.00  0.00    +0.450 HD
ENDBRANCH  11  12
BRANCH  11  16
ATOM     16  C   LIG    1        0.618  -0.611   1.029  0.00  0.00    +0.460 C 
ATOM     17  O   LIG    1        1.124   0.049   1.905  0.00  0.00    -0.470 OA
BRANCH  16  19
ATOM     18  C   LIG    1       -0.018   1.448   0.010  0.00  0.00    +0.310 C 
ATOM     19  O   LIG    1        0.002  -0.004   0.002  0.00  0.00    -0.330 OA
ENDBRANCH  16  19
ENDBRANCH  11  16
ENDBRANCH   1  11
TORSDOF 7
ENDMDL
MODEL       80
REMARK  Name = ZINC000169726585
REMARK                            x       y       z     vdW  Elec       q    Type
REMARK                         _______ _______ _______ _____ _____    ______ ____
ROOT
ATOM      1  C   LIG    1        1.796  -2.618   0.171  0.00  0.00    +0.290 C 
ATOM      2  C   LIG    1        1.513  -2.175  -1.266  0.00  0.00    +0.120 C 
ENDROOT
BRANCH   1   3
ATOM      3  N   LIG    1        1.854  -4.080   0.229  0.00  0.00    -0.330 N 
ATOM      4  C   LIG    1        1.109  -4.934  -0.510  0.00  0.00    +0.200 A 
ATOM      5  C   LIG    1        1.483  -6.180  -0.139  0.00  0.00    -0.010 A 
ATOM      6  N   LIG    1        2.427  -6.031   0.797  0.00  0.00    -0.220 NA
ATOM      7  N   LIG    1        2.628  -4.774   0.988  0.00  0.00    -0.100 NA
BRANCH   5   8
ATOM      8  C   LIG    1        0.943  -7.481  -0.675  0.00  0.00    +0.320 C 
BRANCH   8   9
ATOM      9  O   LIG    1       -0.053  -7.212  -1.664  0.00  0.00    -0.580 OA
ATOM     10  H   LIG    1       -0.445  -8.006  -2.053  0.00  0.00    +0.400 HD
ENDBRANCH   8   9
ENDBRANCH   5   8
ENDBRANCH   1   3
BRANCH   1  11
ATOM     11  C   LIG    1        0.679  -2.115   1.088  0.00  0.00    +0.210 C 
BRANCH  11  12
ATOM     12  N   LIG    1        0.950  -2.540   2.468  0.00  0.00    -0.620 N 
ATOM     13  H   LIG    1        1.832  -2.156   2.771  0.00  0.00    +0.450 HD
ATOM     14  H   LIG    1        0.990  -3.548   2.508  0.00  0.00    +0.450 HD
ATOM     15  H   LIG    1        0.213  -2.209   3.073  0.00  0.00    +0.450 HD
ENDBRANCH  11  12
BRANCH  11  16
ATOM     16  C   LIG    1        0.618  -0.611   1.029  0.00  0.00    +0.460 C 
ATOM     17  O   LIG    1        1.124   0.049   1.905  0.00  0.00    -0.470 OA
BRANCH  16  19
ATOM     18  C   LIG    1       -0.018   1.448   0.010  0.00  0.00    +0.310 C 
ATOM     19  O   LIG    1        0.002  -0.004   0.002  0.00  0.00    -0.330 OA
ENDBRANCH  16  19
ENDBRANCH  11  16
ENDBRANCH   1  11
TORSDOF 7
ENDMDL
MODEL       81
REMARK  Name = ZINC000169726586
REMARK                            x       y       z     vdW  Elec       q    Type
REMARK                         _______ _______ _______ _____ _____    ______ ____
ROOT
ATOM      1  C   LIG    1        1.796  -2.618   0.171  0.00  0.00    +0.310 C 
ATOM      2  C   LIG    1        3.147  -2.137   0.703  0.00  0.00    +0.100 C 
ENDROOT
BRANCH   1   3
ATOM      3  N   LIG    1        1.777  -4.082   0.136  0.00  0.00    -0.320 N 
ATOM      4  C   LIG    1        2.374  -4.904   1.031  0.00  0.00    +0.130 A 
ATOM      5  C   LIG    1        2.106  -6.166   0.621  0.00  0.00    +0.010 A 
ATOM      6  N   LIG    1        1.368  -6.056  -0.490  0.00  0.00    -0.230 NA
ATOM      7  N   LIG    1        1.187  -4.808  -0.747  0.00  0.00    -0.050 NA
BRANCH   5   8
ATOM      8  C   LIG    1        2.551  -7.443   1.285  0.00  0.00    +0.310 C 
BRANCH   8   9
ATOM      9  O   LIG    1        3.321  -7.132   2.448  0.00  0.00    -0.580 OA
ATOM     10  H   LIG    1        3.641  -7.909   2.926  0.00  0.00    +0.400 HD
ENDBRANCH   8   9
ENDBRANCH   5   8
ENDBRANCH   1   3
BRANCH   1  11
ATOM     11  C   LIG    1        0.679  -2.115   1.088  0.00  0.00    +0.210 C 
BRANCH  11  12
ATOM     12  N   LIG    1        0.950  -2.540   2.468  0.00  0.00    -0.630 N 
ATOM     13  H   LIG    1        1.832  -2.156   2.771  0.00  0.00    +0.440 HD
ATOM     14  H   LIG    1        0.990  -3.548   2.508  0.00  0.00    +0.450 HD
ATOM     15  H   LIG    1        0.213  -2.209   3.073  0.00  0.00    +0.450 HD
ENDBRANCH  11  12
BRANCH  11  16
ATOM     16  C   LIG    1        0.618  -0.611   1.029  0.00  0.00    +0.460 C 
ATOM     17  O   LIG    1        1.124   0.049   1.905  0.00  0.00    -0.470 OA
BRANCH  16  19
ATOM     18  C   LIG    1       -0.018   1.448   0.010  0.00  0.00    +0.310 C 
ATOM     19  O   LIG    1        0.002  -0.004   0.002  0.00  0.00    -0.330 OA
ENDBRANCH  16  19
ENDBRANCH  11  16
ENDBRANCH   1  11
TORSDOF 7
ENDMDL
MODEL       82
REMARK  Name = ZINC000169726407
REMARK                            x       y       z     vdW  Elec       q    Type
REMARK                         _______ _______ _______ _____ _____    ______ ____
ROOT
ATOM      1  C   LIG    1        0.679  -2.115   1.088  0.00  0.00    +0.220 C 
ENDROOT
BRANCH   1   2
ATOM      2  N   LIG    1        0.950  -2.540   2.468  0.00  0.00    -0.620 N 
ATOM      3  H   LIG    1        0.213  -2.209   3.073  0.00  0.00    +0.450 HD
ATOM      4  H   LIG    1        1.832  -2.156   2.771  0.00  0.00    +0.440 HD
ATOM      5  H   LIG    1        0.990  -3.548   2.508  0.00  0.00    +0.450 HD
ENDBRANCH   1   2
BRANCH   1   6
ATOM      6  C   LIG    1        0.618  -0.611   1.029  0.00  0.00    +0.460 C 
ATOM      7  O   LIG    1        1.124   0.049   1.905  0.00  0.00    -0.470 OA
BRANCH   6   9
ATOM      8  C   LIG    1       -0.018   1.448   0.010  0.00  0.00    +0.310 C 
ATOM      9  O   LIG    1        0.002  -0.004   0.002  0.00  0.00    -0.330 OA
ENDBRANCH   6   9
ENDBRANCH   1   6
BRANCH   1  10
ATOM     10  C   LIG    1        1.796  -2.618   0.171  0.00  0.00    +0.420 C 
BRANCH  10  11
ATOM     11  N   LIG    1        1.777  -4.082   0.136  0.00  0.00    -0.330 N 
ATOM     12  C   LIG    1        1.699  -4.848  -0.977  0.00  0.00    +0.230 A 
ATOM     13  C   LIG    1        1.712  -6.133  -0.552  0.00  0.00    -0.010 A 
ATOM     14  N   LIG    1        1.796  -6.091   0.783  0.00  0.00    -0.210 NA
ATOM     15  N   LIG    1        1.839  -4.862   1.159  0.00  0.00    -0.140 NA
BRANCH  13  16
ATOM     16  C   LIG    1        1.645  -7.368  -1.413  0.00  0.00    +0.320 C 
BRANCH  16  17
ATOM     17  O   LIG    1        1.563  -6.987  -2.787  0.00  0.00    -0.570 OA
ATOM     18  H   LIG    1        1.517  -7.733  -3.400  0.00  0.00    +0.400 HD
ENDBRANCH  16  17
ENDBRANCH  13  16
ENDBRANCH  10  11
ENDBRANCH   1  10
TORSDOF 7
ENDMDL
MODEL       83
REMARK  Name = ZINC000001688107
REMARK                            x       y       z     vdW  Elec       q    Type
REMARK                         _______ _______ _______ _____ _____    ______ ____
ROOT
ATOM      1  C   LIG    1        0.002  -0.004   0.002  0.00  0.00    +0.690 A 
ATOM      2  N   LIG    1       -1.140  -0.684   0.004  0.00  0.00    -0.620 NA
ATOM      3  C   LIG    1       -1.122  -2.014  -0.004  0.00  0.00    +0.680 A 
ATOM      4  N   LIG    1        0.038  -2.663  -0.014  0.00  0.00    -0.640 N 
ATOM      5  C   LIG    1        1.180  -1.982  -0.016  0.00  0.00    +0.700 A 
ATOM      6  H   LIG    1        0.051  -3.632  -0.020  0.00  0.00    +0.440 HD
ATOM      7  N   LIG    1        1.162  -0.653  -0.013  0.00  0.00    -0.620 NA
ENDROOT
BRANCH   1   8
ATOM      8  N   LIG    1       -0.017   1.376   0.010  0.00  0.00    -0.760 N 
ATOM      9  H   LIG    1       -0.863   1.849   0.016  0.00  0.00    +0.440 HD
ATOM     10  H   LIG    1        0.817   1.872   0.004  0.00  0.00    +0.440 HD
ENDBRANCH   1   8
BRANCH   5  11
ATOM     11  N   LIG    1        2.385  -2.656  -0.026  0.00  0.00    -0.780 N 
ATOM     12  H   LIG    1        3.218  -2.160  -0.028  0.00  0.00    +0.450 HD
ATOM     13  H   LIG    1        2.398  -3.626  -0.033  0.00  0.00    +0.430 HD
ENDBRANCH   5  11
BRANCH   3  14
ATOM     14  N   LIG    1       -2.308  -2.720  -0.002  0.00  0.00    -0.530 N 
BRANCH  14  15
ATOM     15  C   LIG    1       -2.288  -4.185  -0.011  0.00  0.00    +0.320 C 
BRANCH  15  16
ATOM     16  C   LIG    1       -2.274  -4.703   1.429  0.00  0.00    +0.170 C 
BRANCH  16  17
ATOM     17  O   LIG    1       -3.497  -4.345   2.076  0.00  0.00    -0.560 OA
ATOM     18  H   LIG    1       -3.557  -4.642   2.994  0.00  0.00    +0.390 HD
ENDBRANCH  16  17
ENDBRANCH  15  16
ENDBRANCH  14  15
BRANCH  14  19
ATOM     19  C   LIG    1       -3.586  -2.005   0.008  0.00  0.00    +0.360 C 
BRANCH  19  20
ATOM     20  C   LIG    1       -4.038  -1.747  -1.431  0.00  0.00    +0.180 C 
BRANCH  20  21
ATOM     21  O   LIG    1       -4.308  -2.994  -2.075  0.00  0.00    -0.580 OA
ATOM     22  H   LIG    1       -4.600  -2.907  -2.993  0.00  0.00    +0.390 HD
ENDBRANCH  20  21
ENDBRANCH  19  20
ENDBRANCH  14  19
ENDBRANCH   3  14
TORSDOF 9
ENDMDL
MODEL       84
REMARK  Name = ZINC000137233994
REMARK                            x       y       z     vdW  Elec       q    Type
REMARK                         _______ _______ _______ _____ _____    ______ ____
ROOT
ATOM      1  C   LIG    1       -2.369  -2.831  -0.002  0.00  0.00    +0.440 C 
ATOM      2  C   LIG    1       -2.495  -3.612  -1.312  0.00  0.00    +0.250 C 
ATOM      3  N   LIG    1       -3.723  -4.418  -1.283  0.00  0.00    -0.500 N 
ATOM      4  C   LIG    1       -3.665  -5.358  -0.155  0.00  0.00    +0.270 C 
ATOM      5  C   LIG    1       -3.537  -4.573   1.153  0.00  0.00    +0.180 C 
ATOM      6  H   LIG    1       -3.808  -4.933  -2.147  0.00  0.00    +0.450 HD
ATOM      7  H   LIG    1       -4.522  -3.811  -1.174  0.00  0.00    +0.430 HD
ATOM      8  O   LIG    1       -2.370  -3.748   1.096  0.00  0.00    -0.340 OA
ENDROOT
BRANCH   1  12
ATOM      9  C   LIG    1       -0.018   1.503   0.010  0.00  0.00    +0.150 C 
ATOM     10  C   LIG    1        0.002  -0.004   0.002  0.00  0.00    -0.210 A 
ATOM     11  C   LIG    1       -1.153  -0.704   0.004  0.00  0.00    +0.320 A 
ATOM     12  N   LIG    1       -1.116  -2.072  -0.004  0.00  0.00    -0.530 N 
ATOM     13  C   LIG    1        0.060  -2.726  -0.013  0.00  0.00    +0.700 A 
ATOM     14  N   LIG    1        1.226  -2.053  -0.016  0.00  0.00    -0.660 N 
ATOM     15  H   LIG    1        2.064  -2.540  -0.023  0.00  0.00    +0.440 HD
ATOM     16  O   LIG    1        0.069  -3.942  -0.020  0.00  0.00    -0.530 OA
ATOM     17  C   LIG    1        1.232  -0.705  -0.013  0.00  0.00    +0.550 A 
ATOM     18  O   LIG    1        2.287  -0.095  -0.016  0.00  0.00    -0.480 OA
ENDBRANCH   1  12
BRANCH   5  19
ATOM     19  C   LIG    1       -3.416  -5.550   2.325  0.00  0.00    +0.240 C 
BRANCH  19  20
ATOM     20  O   LIG    1       -3.413  -4.821   3.554  0.00  0.00    -0.560 OA
ATOM     21  H   LIG    1       -3.340  -5.378   4.341  0.00  0.00    +0.400 HD
ENDBRANCH  19  20
ENDBRANCH   5  19
TORSDOF 3
ENDMDL
MODEL       85
REMARK  Name = ZINC000094986254
REMARK                            x       y       z     vdW  Elec       q    Type
REMARK                         _______ _______ _______ _____ _____    ______ ____
ROOT
ATOM      1  C   LIG    1       -4.807   0.613  -1.074  0.00  0.00    +0.500 C 
ATOM      2  O   LIG    1       -4.570   1.708  -1.538  0.00  0.00    -0.410 OA
ENDROOT
BRANCH   1   3
ATOM      3  C   LIG    1       -3.694  -0.229  -0.541  0.00  0.00    +0.500 C 
ATOM      4  O   LIG    1       -3.930  -1.324  -0.077  0.00  0.00    -0.440 OA
BRANCH   3   5
ATOM      5  O   LIG    1       -2.428   0.227  -0.576  0.00  0.00    -0.310 OA
BRANCH   5   9
ATOM      6  C   LIG    1        0.002  -0.004   0.002  0.00  0.00    +0.200 C 
ATOM      7  C   LIG    1        0.206  -0.616  -1.397  0.00  0.00    +0.190 C 
ATOM      8  O   LIG    1       -0.829  -1.545  -1.017  0.00  0.00    -0.360 OA
ATOM      9  C   LIG    1       -1.398  -0.645  -0.041  0.00  0.00    +0.370 C 
BRANCH   6  10
ATOM     10  N   LIG    1       -0.018   1.465   0.010  0.00  0.00    -0.830 NA
ATOM     11  H   LIG    1       -0.556   1.823  -0.764  0.00  0.00    +0.360 HD
ATOM     12  H   LIG    1        0.919   1.839   0.003  0.00  0.00    +0.360 HD
ENDBRANCH   6  10
ENDBRANCH   5   9
ENDBRANCH   3   5
ENDBRANCH   1   3
BRANCH   1  13
ATOM     13  O   LIG    1       -6.072   0.156  -1.039  0.00  0.00    -0.350 OA
BRANCH  13  14
ATOM     14  C   LIG    1       -7.102   1.028  -1.574  0.00  0.00    +0.390 C 
ATOM     15  O   LIG    1       -7.381   0.812  -2.972  0.00  0.00    -0.330 OA
ATOM     16  C   LIG    1       -8.400  -0.172  -2.704  0.00  0.00    +0.290 C 
ATOM     17  C   LIG    1       -8.536   0.521  -1.330  0.00  0.00    +0.180 C 
BRANCH  17  18
ATOM     18  N   LIG    1       -8.655  -0.414  -0.203  0.00  0.00    -0.630 N 
ATOM     19  H   LIG    1       -9.603  -0.757  -0.150  0.00  0.00    +0.440 HD
ATOM     20  H   LIG    1       -8.421   0.063   0.655  0.00  0.00    +0.440 HD
ATOM     21  H   LIG    1       -8.024  -1.188  -0.341  0.00  0.00    +0.440 HD
ENDBRANCH  17  18
ENDBRANCH  13  14
ENDBRANCH   1  13
TORSDOF 7
ENDMDL
MODEL       86
REMARK  Name = ZINC000094986252
REMARK                            x       y       z     vdW  Elec       q    Type
REMARK                         _______ _______ _______ _____ _____    ______ ____
ROOT
ATOM      1  C   LIG    1       -4.807   0.613  -1.074  0.00  0.00    +0.500 C 
ATOM      2  O   LIG    1       -4.570   1.708  -1.538  0.00  0.00    -0.420 OA
ENDROOT
BRANCH   1   3
ATOM      3  C   LIG    1       -3.694  -0.229  -0.541  0.00  0.00    +0.490 C 
ATOM      4  O   LIG    1       -3.930  -1.324  -0.077  0.00  0.00    -0.430 OA
BRANCH   3   5
ATOM      5  O   LIG    1       -2.428   0.227  -0.576  0.00  0.00    -0.310 OA
BRANCH   5   9
ATOM      6  C   LIG    1        0.002  -0.004   0.002  0.00  0.00    +0.200 C 
ATOM      7  C   LIG    1        0.206  -0.616  -1.397  0.00  0.00    +0.190 C 
ATOM      8  O   LIG    1       -0.829  -1.545  -1.017  0.00  0.00    -0.360 OA
ATOM      9  C   LIG    1       -1.398  -0.645  -0.041  0.00  0.00    +0.370 C 
BRANCH   6  10
ATOM     10  N   LIG    1       -0.018   1.465   0.010  0.00  0.00    -0.830 NA
ATOM     11  H   LIG    1       -0.556   1.823  -0.764  0.00  0.00    +0.350 HD
ATOM     12  H   LIG    1        0.919   1.839   0.003  0.00  0.00    +0.360 HD
ENDBRANCH   6  10
ENDBRANCH   5   9
ENDBRANCH   3   5
ENDBRANCH   1   3
BRANCH   1  13
ATOM     13  O   LIG    1       -6.072   0.156  -1.039  0.00  0.00    -0.310 OA
BRANCH  13  14
ATOM     14  C   LIG    1       -7.102   1.028  -1.574  0.00  0.00    +0.380 C 
ATOM     15  O   LIG    1       -7.624   1.971  -0.616  0.00  0.00    -0.340 OA
ATOM     16  C   LIG    1       -8.986   1.788  -1.052  0.00  0.00    +0.310 C 
ATOM     17  C   LIG    1       -8.513   0.409  -1.558  0.00  0.00    +0.160 C 
BRANCH  17  18
ATOM     18  N   LIG    1       -9.027   0.057  -2.888  0.00  0.00    -0.630 N 
ATOM     19  H   LIG    1       -9.977  -0.275  -2.804  0.00  0.00    +0.450 HD
ATOM     20  H   LIG    1       -8.452  -0.668  -3.290  0.00  0.00    +0.440 HD
ATOM     21  H   LIG    1       -9.007   0.871  -3.483  0.00  0.00    +0.440 HD
ENDBRANCH  17  18
ENDBRANCH  13  14
ENDBRANCH   1  13
TORSDOF 7
ENDMDL
MODEL       87
REMARK  Name = ZINC000094986252
REMARK                            x       y       z     vdW  Elec       q    Type
REMARK                         _______ _______ _______ _____ _____    ______ ____
ROOT
ATOM      1  C   LIG    1       -3.483  -2.552   2.466  0.00  0.00    +0.500 C 
ATOM      2  O   LIG    1       -2.770  -2.593   3.446  0.00  0.00    -0.410 OA
ENDROOT
BRANCH   1   3
ATOM      3  C   LIG    1       -3.009  -1.866   1.226  0.00  0.00    +0.490 C 
ATOM      4  O   LIG    1       -3.722  -1.825   0.246  0.00  0.00    -0.440 OA
BRANCH   3   5
ATOM      5  O   LIG    1       -1.792  -1.294   1.197  0.00  0.00    -0.300 OA
BRANCH   5   9
ATOM      6  C   LIG    1        0.002  -0.004   0.002  0.00  0.00    +0.190 C 
ATOM      7  C   LIG    1        0.206  -0.616  -1.397  0.00  0.00    +0.210 C 
ATOM      8  O   LIG    1       -0.829  -1.545  -1.017  0.00  0.00    -0.370 OA
ATOM      9  C   LIG    1       -1.398  -0.645  -0.041  0.00  0.00    +0.360 C 
BRANCH   6  10
ATOM     10  N   LIG    1       -0.018   1.465   0.010  0.00  0.00    -0.840 NA
ATOM     11  H   LIG    1       -0.556   1.823  -0.764  0.00  0.00    +0.350 HD
ATOM     12  H   LIG    1        0.919   1.839   0.003  0.00  0.00    +0.360 HD
ENDBRANCH   6  10
ENDBRANCH   5   9
ENDBRANCH   3   5
ENDBRANCH   1   3
BRANCH   1  13
ATOM     13  O   LIG    1       -4.700  -3.125   2.495  0.00  0.00    -0.350 OA
BRANCH  13  14
ATOM     14  C   LIG    1       -5.094  -3.773   3.733  0.00  0.00    +0.390 C 
ATOM     15  O   LIG    1       -5.808  -2.911   4.641  0.00  0.00    -0.330 OA
ATOM     16  C   LIG    1       -7.095  -3.255   4.090  0.00  0.00    +0.290 C 
ATOM     17  C   LIG    1       -6.413  -4.563   3.631  0.00  0.00    +0.180 C 
BRANCH  17  18
ATOM     18  N   LIG    1       -6.763  -4.965   2.262  0.00  0.00    -0.630 N 
ATOM     19  H   LIG    1       -7.668  -5.411   2.264  0.00  0.00    +0.440 HD
ATOM     20  H   LIG    1       -6.071  -5.611   1.913  0.00  0.00    +0.440 HD
ATOM     21  H   LIG    1       -6.791  -4.149   1.668  0.00  0.00    +0.440 HD
ENDBRANCH  17  18
ENDBRANCH  13  14
ENDBRANCH   1  13
TORSDOF 7
ENDMDL
MODEL       88
REMARK  Name = ZINC000094986251
REMARK                            x       y       z     vdW  Elec       q    Type
REMARK                         _______ _______ _______ _____ _____    ______ ____
ROOT
ATOM      1  C   LIG    1       -4.807   0.613  -1.074  0.00  0.00    +0.500 C 
ATOM      2  O   LIG    1       -4.570   1.708  -1.538  0.00  0.00    -0.410 OA
ENDROOT
BRANCH   1   3
ATOM      3  C   LIG    1       -3.694  -0.229  -0.541  0.00  0.00    +0.500 C 
ATOM      4  O   LIG    1       -3.930  -1.324  -0.077  0.00  0.00    -0.440 OA
BRANCH   3   5
ATOM      5  O   LIG    1       -2.428   0.227  -0.576  0.00  0.00    -0.310 OA
BRANCH   5   9
ATOM      6  C   LIG    1        0.002  -0.004   0.002  0.00  0.00    +0.200 C 
ATOM      7  C   LIG    1        0.206  -0.616  -1.397  0.00  0.00    +0.190 C 
ATOM      8  O   LIG    1       -0.829  -1.545  -1.017  0.00  0.00    -0.360 OA
ATOM      9  C   LIG    1       -1.398  -0.645  -0.041  0.00  0.00    +0.370 C 
BRANCH   6  10
ATOM     10  N   LIG    1       -0.018   1.465   0.010  0.00  0.00    -0.830 NA
ATOM     11  H   LIG    1       -0.556   1.823  -0.764  0.00  0.00    +0.360 HD
ATOM     12  H   LIG    1        0.919   1.839   0.003  0.00  0.00    +0.360 HD
ENDBRANCH   6  10
ENDBRANCH   5   9
ENDBRANCH   3   5
ENDBRANCH   1   3
BRANCH   1  13
ATOM     13  O   LIG    1       -6.072   0.156  -1.039  0.00  0.00    -0.350 OA
BRANCH  13  14
ATOM     14  C   LIG    1       -7.102   1.028  -1.574  0.00  0.00    +0.390 C 
ATOM     15  O   LIG    1       -7.624   1.971  -0.616  0.00  0.00    -0.330 OA
ATOM     16  C   LIG    1       -8.661   1.073  -0.171  0.00  0.00    +0.290 C 
ATOM     17  C   LIG    1       -8.513   0.409  -1.558  0.00  0.00    +0.180 C 
BRANCH  17  18
ATOM     18  N   LIG    1       -8.520  -1.059  -1.516  0.00  0.00    -0.630 N 
ATOM     19  H   LIG    1       -7.985  -1.376  -0.721  0.00  0.00    +0.440 HD
ATOM     20  H   LIG    1       -8.110  -1.422  -2.364  0.00  0.00    +0.440 HD
ATOM     21  H   LIG    1       -9.470  -1.389  -1.435  0.00  0.00    +0.440 HD
ENDBRANCH  17  18
ENDBRANCH  13  14
ENDBRANCH   1  13
TORSDOF 7
ENDMDL
MODEL       89
REMARK  Name = ZINC000094986251
REMARK                            x       y       z     vdW  Elec       q    Type
REMARK                         _______ _______ _______ _____ _____    ______ ____
ROOT
ATOM      1  C   LIG    1       -4.868   0.561  -0.811  0.00  0.00    +0.500 C 
ATOM      2  O   LIG    1       -4.678   1.694  -1.198  0.00  0.00    -0.410 OA
ENDROOT
BRANCH   1   3
ATOM      3  C   LIG    1       -3.715  -0.278  -0.362  0.00  0.00    +0.490 C 
ATOM      4  O   LIG    1       -3.905  -1.411   0.025  0.00  0.00    -0.440 OA
BRANCH   3   5
ATOM      5  O   LIG    1       -2.468   0.226  -0.386  0.00  0.00    -0.300 OA
BRANCH   5   9
ATOM      6  C   LIG    1        0.002  -0.004   0.002  0.00  0.00    +0.110 C 
ATOM      7  C   LIG    1        0.232  -0.631   1.390  0.00  0.00    +0.260 C 
ATOM      8  O   LIG    1       -1.205  -0.643   1.498  0.00  0.00    -0.370 OA
ATOM      9  C   LIG    1       -1.397  -0.645   0.065  0.00  0.00    +0.370 C 
BRANCH   6  10
ATOM     10  N   LIG    1       -0.018   1.465   0.010  0.00  0.00    -0.820 NA
ATOM     11  H   LIG    1       -0.556   1.823  -0.764  0.00  0.00    +0.360 HD
ATOM     12  H   LIG    1        0.919   1.839   0.003  0.00  0.00    +0.360 HD
ENDBRANCH   6  10
ENDBRANCH   5   9
ENDBRANCH   3   5
ENDBRANCH   1   3
BRANCH   1  13
ATOM     13  O   LIG    1       -6.115   0.058  -0.787  0.00  0.00    -0.350 OA
BRANCH  13  14
ATOM     14  C   LIG    1       -7.186   0.929  -1.238  0.00  0.00    +0.390 C 
ATOM     15  O   LIG    1       -7.486   0.805  -2.643  0.00  0.00    -0.330 OA
ATOM     16  C   LIG    1       -8.464  -0.232  -2.430  0.00  0.00    +0.290 C 
ATOM     17  C   LIG    1       -8.596   0.354  -1.007  0.00  0.00    +0.180 C 
BRANCH  17  18
ATOM     18  N   LIG    1       -8.660  -0.664   0.050  0.00  0.00    -0.630 N 
ATOM     19  H   LIG    1       -9.594  -1.044   0.095  0.00  0.00    +0.440 HD
ATOM     20  H   LIG    1       -8.425  -0.244   0.937  0.00  0.00    +0.440 HD
ATOM     21  H   LIG    1       -8.005  -1.404  -0.155  0.00  0.00    +0.440 HD
ENDBRANCH  17  18
ENDBRANCH  13  14
ENDBRANCH   1  13
TORSDOF 7
ENDMDL
MODEL       90
REMARK  Name = ZINC000094986253
REMARK                            x       y       z     vdW  Elec       q    Type
REMARK                         _______ _______ _______ _____ _____    ______ ____
ROOT
ATOM      1  C   LIG    1       -4.807   0.613  -1.074  0.00  0.00    +0.500 C 
ATOM      2  O   LIG    1       -4.570   1.708  -1.538  0.00  0.00    -0.420 OA
ENDROOT
BRANCH   1   3
ATOM      3  C   LIG    1       -3.694  -0.229  -0.541  0.00  0.00    +0.490 C 
ATOM      4  O   LIG    1       -3.930  -1.324  -0.077  0.00  0.00    -0.430 OA
BRANCH   3   5
ATOM      5  O   LIG    1       -2.428   0.227  -0.576  0.00  0.00    -0.310 OA
BRANCH   5   9
ATOM      6  C   LIG    1        0.002  -0.004   0.002  0.00  0.00    +0.200 C 
ATOM      7  C   LIG    1        0.206  -0.616  -1.397  0.00  0.00    +0.190 C 
ATOM      8  O   LIG    1       -0.829  -1.545  -1.017  0.00  0.00    -0.360 OA
ATOM      9  C   LIG    1       -1.398  -0.645  -0.041  0.00  0.00    +0.370 C 
BRANCH   6  10
ATOM     10  N   LIG    1       -0.018   1.465   0.010  0.00  0.00    -0.830 NA
ATOM     11  H   LIG    1       -0.556   1.823  -0.764  0.00  0.00    +0.350 HD
ATOM     12  H   LIG    1        0.919   1.839   0.003  0.00  0.00    +0.360 HD
ENDBRANCH   6  10
ENDBRANCH   5   9
ENDBRANCH   3   5
ENDBRANCH   1   3
BRANCH   1  13
ATOM     13  O   LIG    1       -6.072   0.156  -1.039  0.00  0.00    -0.310 OA
BRANCH  13  14
ATOM     14  C   LIG    1       -7.102   1.028  -1.574  0.00  0.00    +0.380 C 
ATOM     15  O   LIG    1       -7.381   0.812  -2.972  0.00  0.00    -0.340 OA
ATOM     16  C   LIG    1       -8.807   0.932  -2.793  0.00  0.00    +0.310 C 
ATOM     17  C   LIG    1       -8.536   0.521  -1.330  0.00  0.00    +0.150 C 
BRANCH  17  18
ATOM     18  N   LIG    1       -9.290   1.308  -0.344  0.00  0.00    -0.630 N 
ATOM     19  H   LIG    1       -9.302   2.277  -0.625  0.00  0.00    +0.440 HD
ATOM     20  H   LIG    1       -8.850   1.225   0.559  0.00  0.00    +0.440 HD
ATOM     21  H   LIG    1      -10.236   0.961  -0.291  0.00  0.00    +0.450 HD
ENDBRANCH  17  18
ENDBRANCH  13  14
ENDBRANCH   1  13
TORSDOF 7
ENDMDL
MODEL       91
REMARK  Name = ZINC000094986253
REMARK                            x       y       z     vdW  Elec       q    Type
REMARK                         _______ _______ _______ _____ _____    ______ ____
ROOT
ATOM      1  C   LIG    1       -3.570  -2.429  -2.458  0.00  0.00    +0.500 C 
ATOM      2  O   LIG    1       -2.844  -2.536  -3.423  0.00  0.00    -0.410 OA
ENDROOT
BRANCH   1   3
ATOM      3  C   LIG    1       -3.070  -1.762  -1.218  0.00  0.00    +0.500 C 
ATOM      4  O   LIG    1       -3.796  -1.654  -0.253  0.00  0.00    -0.440 OA
BRANCH   3   5
ATOM      5  O   LIG    1       -1.815  -1.281  -1.172  0.00  0.00    -0.310 OA
BRANCH   5   9
ATOM      6  C   LIG    1        0.002  -0.004   0.002  0.00  0.00    +0.140 C 
ATOM      7  C   LIG    1        0.232  -0.631   1.390  0.00  0.00    +0.270 C 
ATOM      8  O   LIG    1       -0.810  -1.556   1.020  0.00  0.00    -0.370 OA
ATOM      9  C   LIG    1       -1.397  -0.645   0.065  0.00  0.00    +0.370 C 
BRANCH   6  10
ATOM     10  N   LIG    1       -0.018   1.465   0.010  0.00  0.00    -0.840 NA
ATOM     11  H   LIG    1       -0.556   1.823  -0.764  0.00  0.00    +0.350 HD
ATOM     12  H   LIG    1        0.919   1.839   0.003  0.00  0.00    +0.360 HD
ENDBRANCH   6  10
ENDBRANCH   5   9
ENDBRANCH   3   5
ENDBRANCH   1   3
BRANCH   1  13
ATOM     13  O   LIG    1       -4.826  -2.910  -2.504  0.00  0.00    -0.350 OA
BRANCH  13  14
ATOM     14  C   LIG    1       -5.243  -3.545  -3.741  0.00  0.00    +0.390 C 
ATOM     15  O   LIG    1       -5.017  -4.968  -3.772  0.00  0.00    -0.330 OA
ATOM     16  C   LIG    1       -6.312  -5.272  -3.217  0.00  0.00    +0.290 C 
ATOM     17  C   LIG    1       -6.741  -3.901  -3.784  0.00  0.00    +0.180 C 
BRANCH  17  18
ATOM     18  N   LIG    1       -7.569  -3.110  -2.864  0.00  0.00    -0.630 N 
ATOM     19  H   LIG    1       -8.520  -3.446  -2.894  0.00  0.00    +0.440 HD
ATOM     20  H   LIG    1       -7.546  -2.140  -3.139  0.00  0.00    +0.440 HD
ATOM     21  H   LIG    1       -7.210  -3.202  -1.925  0.00  0.00    +0.440 HD
ENDBRANCH  17  18
ENDBRANCH  13  14
ENDBRANCH   1  13
TORSDOF 7
ENDMDL
MODEL       92
REMARK  Name = ZINC000205680170
REMARK                            x       y       z     vdW  Elec       q    Type
REMARK                         _______ _______ _______ _____ _____    ______ ____
ROOT
ATOM      1  C   LIG    1       -0.679  -2.544   1.249  0.00  0.00    +0.510 C 
ATOM      2  N   LIG    1       -0.971  -3.765   0.759  0.00  0.00    -0.630 N 
ATOM      3  C   LIG    1       -0.221  -4.852   0.111  0.00  0.00    +0.330 C 
ATOM      4  C   LIG    1       -1.526  -5.265  -0.583  0.00  0.00    -0.030 C 
ATOM      5  C   LIG    1       -2.176  -4.599   0.641  0.00  0.00    +0.320 C 
ATOM      6  O   LIG    1       -1.554  -1.866   1.746  0.00  0.00    -0.530 OA
ENDROOT
BRANCH   1  12
ATOM      7  C   LIG    1       -0.018   1.465   0.010  0.00  0.00    +0.340 C 
ATOM      8  N   LIG    1        0.002  -0.004   0.002  0.00  0.00    -0.390 N 
ATOM      9  C   LIG    1        0.690  -0.478  -1.207  0.00  0.00    +0.240 C 
ATOM     10  C   LIG    1        0.709  -2.009  -1.213  0.00  0.00    +0.250 C 
ATOM     11  O   LIG    1        1.353  -2.477  -0.024  0.00  0.00    -0.340 OA
ATOM     12  C   LIG    1        0.733  -2.022   1.181  0.00  0.00    +0.090 C 
ATOM     13  C   LIG    1        1.524  -2.531   2.387  0.00  0.00    +0.140 C 
ATOM     14  C   LIG    1        0.713  -0.491   1.192  0.00  0.00    +0.280 C 
ATOM     15  H   LIG    1       -0.945  -0.353   0.009  0.00  0.00    +0.430 HD
ENDBRANCH   1  12
BRANCH   4  16
ATOM     16  C   LIG    1       -1.741  -6.755  -0.659  0.00  0.00    +0.530 C 
ATOM     17  O   LIG    1       -0.916  -7.511  -0.192  0.00  0.00    -0.530 OA
ATOM     18  N   LIG    1       -2.851  -7.247  -1.245  0.00  0.00    -0.850 N 
ATOM     19  H   LIG    1       -2.989  -8.206  -1.294  0.00  0.00    +0.410 HD
ATOM     20  H   LIG    1       -3.511  -6.642  -1.619  0.00  0.00    +0.400 HD
ENDBRANCH   4  16
TORSDOF 2
ENDMDL
MODEL       93
REMARK  Name = ZINC000205680170
REMARK                            x       y       z     vdW  Elec       q    Type
REMARK                         _______ _______ _______ _____ _____    ______ ____
ROOT
ATOM      1  C   LIG    1       -0.679  -2.544   1.249  0.00  0.00    +0.510 C 
ATOM      2  N   LIG    1       -0.971  -3.765   0.759  0.00  0.00    -0.630 N 
ATOM      3  C   LIG    1       -0.221  -4.852   0.111  0.00  0.00    +0.330 C 
ATOM      4  C   LIG    1       -1.526  -5.265  -0.583  0.00  0.00    -0.030 C 
ATOM      5  C   LIG    1       -2.176  -4.599   0.641  0.00  0.00    +0.320 C 
ATOM      6  O   LIG    1       -1.554  -1.866   1.746  0.00  0.00    -0.530 OA
ENDROOT
BRANCH   1  12
ATOM      7  C   LIG    1       -0.018   1.465   0.010  0.00  0.00    +0.340 C 
ATOM      8  N   LIG    1        0.002  -0.004   0.002  0.00  0.00    -0.390 N 
ATOM      9  C   LIG    1        0.690  -0.478  -1.207  0.00  0.00    +0.240 C 
ATOM     10  C   LIG    1        0.709  -2.009  -1.213  0.00  0.00    +0.250 C 
ATOM     11  O   LIG    1        1.353  -2.477  -0.024  0.00  0.00    -0.340 OA
ATOM     12  C   LIG    1        0.733  -2.022   1.181  0.00  0.00    +0.090 C 
ATOM     13  C   LIG    1        1.524  -2.531   2.387  0.00  0.00    +0.140 C 
ATOM     14  C   LIG    1        0.713  -0.491   1.192  0.00  0.00    +0.280 C 
ATOM     15  H   LIG    1       -0.945  -0.353   0.009  0.00  0.00    +0.430 HD
ENDBRANCH   1  12
BRANCH   4  16
ATOM     16  C   LIG    1       -1.741  -6.755  -0.659  0.00  0.00    +0.530 C 
ATOM     17  O   LIG    1       -0.916  -7.511  -0.192  0.00  0.00    -0.530 OA
ATOM     18  N   LIG    1       -2.851  -7.247  -1.245  0.00  0.00    -0.850 N 
ATOM     19  H   LIG    1       -2.989  -8.206  -1.294  0.00  0.00    +0.410 HD
ATOM     20  H   LIG    1       -3.511  -6.642  -1.619  0.00  0.00    +0.400 HD
ENDBRANCH   4  16
TORSDOF 2
ENDMDL
MODEL       94
REMARK  Name = ZINC000169726583
REMARK                            x       y       z     vdW  Elec       q    Type
REMARK                         _______ _______ _______ _____ _____    ______ ____
ROOT
ATOM      1  C   LIG    1       -0.651  -2.659   1.615  0.00  0.00    +0.310 C 
ATOM      2  C   LIG    1       -0.910  -2.103   3.017  0.00  0.00    +0.100 C 
ENDROOT
BRANCH   1   3
ATOM      3  N   LIG    1       -0.592  -4.122   1.673  0.00  0.00    -0.320 N 
ATOM      4  C   LIG    1       -0.094  -4.855   2.695  0.00  0.00    +0.130 A 
ATOM      5  C   LIG    1       -0.237  -6.152   2.333  0.00  0.00    +0.010 A 
ATOM      6  N   LIG    1       -0.808  -6.148   1.124  0.00  0.00    -0.230 NA
ATOM      7  N   LIG    1       -1.011  -4.930   0.763  0.00  0.00    -0.050 NA
BRANCH   5   8
ATOM      8  C   LIG    1        0.167  -7.361   3.136  0.00  0.00    +0.310 C 
BRANCH   8   9
ATOM      9  O   LIG    1        0.743  -6.941   4.375  0.00  0.00    -0.580 OA
ATOM     10  H   LIG    1        1.027  -7.669   4.944  0.00  0.00    +0.400 HD
ENDBRANCH   8   9
ENDBRANCH   5   8
ENDBRANCH   1   3
BRANCH   1  11
ATOM     11  C   LIG    1        0.679  -2.115   1.088  0.00  0.00    +0.210 C 
BRANCH  11  12
ATOM     12  N   LIG    1        1.766  -2.526   1.987  0.00  0.00    -0.630 N 
ATOM     13  H   LIG    1        1.595  -2.160   2.911  0.00  0.00    +0.440 HD
ATOM     14  H   LIG    1        2.643  -2.168   1.639  0.00  0.00    +0.450 HD
ATOM     15  H   LIG    1        1.806  -3.534   2.027  0.00  0.00    +0.450 HD
ENDBRANCH  11  12
BRANCH  11  16
ATOM     16  C   LIG    1        0.618  -0.611   1.029  0.00  0.00    +0.460 C 
ATOM     17  O   LIG    1        1.124   0.049   1.905  0.00  0.00    -0.470 OA
BRANCH  16  19
ATOM     18  C   LIG    1       -0.018   1.448   0.010  0.00  0.00    +0.310 C 
ATOM     19  O   LIG    1        0.002  -0.004   0.002  0.00  0.00    -0.330 OA
ENDBRANCH  16  19
ENDBRANCH  11  16
ENDBRANCH   1  11
TORSDOF 7
ENDMDL
MODEL       95
REMARK  Name = ZINC000225503647
REMARK                            x       y       z     vdW  Elec       q    Type
REMARK                         _______ _______ _______ _____ _____    ______ ____
ROOT
ATOM      1  C   LIG    1        1.412   0.252   4.381  0.00  0.00    +0.190 C 
ATOM      2  C   LIG    1        2.857   0.530   4.846  0.00  0.00    +0.090 C 
ATOM      3  C   LIG    1        2.882   0.046   6.317  0.00  0.00    +0.030 C 
ATOM      4  C   LIG    1        1.996  -1.224   6.275  0.00  0.00    +0.160 C 
ATOM      5  C   LIG    1        0.864  -0.862   5.290  0.00  0.00    +0.130 C 
ENDROOT
BRANCH   1   6
ATOM      6  N   LIG    1        1.410  -0.193   2.982  0.00  0.00    -0.500 N 
ATOM      7  H   LIG    1        1.877   0.495   2.409  0.00  0.00    +0.430 HD
ATOM      8  H   LIG    1        1.894  -1.075   2.909  0.00  0.00    +0.430 HD
BRANCH   6   9
ATOM      9  C   LIG    1        0.025  -0.354   2.521  0.00  0.00    +0.410 C 
BRANCH   9  15
ATOM     10  C   LIG    1       -0.018   1.461   0.010  0.00  0.00    +0.340 C 
ATOM     11  N   LIG    1        0.002  -0.004   0.002  0.00  0.00    -0.450 N 
ATOM     12  C   LIG    1        0.009  -0.810  -1.104  0.00  0.00    +0.190 A 
ATOM     13  C   LIG    1        0.029  -2.081  -0.660  0.00  0.00    +0.180 A 
ATOM     14  N   LIG    1        0.034  -2.052   0.681  0.00  0.00    -0.450 NA
ATOM     15  C   LIG    1        0.023  -0.811   1.085  0.00  0.00    +0.110 A 
ENDBRANCH   9  15
ENDBRANCH   6   9
ENDBRANCH   1   6
BRANCH   4  16
ATOM     16  O   LIG    1        1.464  -1.506   7.570  0.00  0.00    -0.530 OA
ATOM     17  H   LIG    1        0.900  -2.291   7.602  0.00  0.00    +0.380 HD
ENDBRANCH   4  16
BRANCH   5  18
ATOM     18  O   LIG    1       -0.279  -0.394   6.008  0.00  0.00    -0.540 OA
ATOM     19  H   LIG    1       -0.657  -1.045   6.614  0.00  0.00    +0.400 HD
ENDBRANCH   5  18
BRANCH   3  20
ATOM     20  C   LIG    1        4.309  -0.298   6.750  0.00  0.00    +0.190 C 
BRANCH  20  21
ATOM     21  O   LIG    1        4.318  -0.629   8.140  0.00  0.00    -0.560 OA
ATOM     22  H   LIG    1        5.192  -0.858   8.484  0.00  0.00    +0.390 HD
ENDBRANCH  20  21
ENDBRANCH   3  20
TORSDOF 7
ENDMDL
MODEL       96
REMARK  Name = ZINC000257211999
REMARK                            x       y       z     vdW  Elec       q    Type
REMARK                         _______ _______ _______ _____ _____    ______ ____
ROOT
ATOM      1  C   LIG    1       -0.018   1.461   0.010  0.00  0.00    +0.310 C 
ATOM      2  N   LIG    1        0.002  -0.004   0.002  0.00  0.00    -0.610 N 
ATOM      3  C   LIG    1        0.006  -0.698  -1.159  0.00  0.00    +0.490 C 
ATOM      4  C   LIG    1       -0.097  -2.192  -1.247  0.00  0.00    +0.320 C 
ATOM      5  O   LIG    1       -0.103  -2.818   0.049  0.00  0.00    -0.340 OA
ATOM      6  C   LIG    1       -0.830  -2.039   0.972  0.00  0.00    +0.150 C 
ATOM      7  C   LIG    1       -1.040  -2.565   2.384  0.00  0.00    +0.300 C 
ATOM      8  N   LIG    1       -1.023  -1.369   3.268  0.00  0.00    -0.390 N 
ATOM      9  C   LIG    1       -0.731  -0.172   2.430  0.00  0.00    +0.290 C 
ATOM     10  H   LIG    1       -0.307  -1.476   3.971  0.00  0.00    +0.440 HD
ATOM     11  O   LIG    1        0.099  -0.073  -2.194  0.00  0.00    -0.500 OA
ATOM     12  C   LIG    1        0.024  -0.760   1.236  0.00  0.00    +0.200 C 
ENDROOT
BRANCH   8  13
ATOM     13  C   LIG    1       -2.333  -1.212   3.914  0.00  0.00    +0.300 C 
BRANCH  13  14
ATOM     14  C   LIG    1       -2.573  -2.381   4.872  0.00  0.00    +0.060 C 
BRANCH  14  15
ATOM     15  C   LIG    1       -3.917  -2.220   5.535  0.00  0.00    +0.520 C 
ATOM     16  O   LIG    1       -4.615  -1.264   5.266  0.00  0.00    -0.530 OA
ATOM     17  N   LIG    1       -4.344  -3.137   6.425  0.00  0.00    -0.840 N 
ATOM     18  H   LIG    1       -5.209  -3.033   6.851  0.00  0.00    +0.420 HD
ATOM     19  H   LIG    1       -3.786  -3.901   6.640  0.00  0.00    +0.410 HD
ENDBRANCH  14  15
ENDBRANCH  13  14
ENDBRANCH   8  13
TORSDOF 3
ENDMDL
MODEL       97
REMARK  Name = ZINC000020101592
REMARK                            x       y       z     vdW  Elec       q    Type
REMARK                         _______ _______ _______ _____ _____    ______ ____
ROOT
ATOM      1  N   LIG    1        0.637  -0.589   3.635  0.00  0.00    -0.430 N 
ATOM      2  C   LIG    1        0.416  -1.749   4.281  0.00  0.00    +0.470 A 
ATOM      3  N   LIG    1        1.241  -1.841   5.295  0.00  0.00    -0.440 NA
ATOM      4  C   LIG    1        2.012  -0.762   5.340  0.00  0.00    +0.120 A 
ATOM      5  C   LIG    1        3.123  -0.306   6.256  0.00  0.00    +0.290 C 
ATOM      6  C   LIG    1        3.765   1.032   5.957  0.00  0.00    +0.500 C 
ATOM      7  O   LIG    1        4.660   1.452   6.659  0.00  0.00    -0.460 OA
ATOM      8  N   LIG    1        3.335   1.747   4.902  0.00  0.00    -0.660 N 
ATOM      9  H   LIG    1        3.755   2.602   4.716  0.00  0.00    +0.430 HD
ATOM     10  C   LIG    1        2.350   1.325   4.096  0.00  0.00    +0.620 C 
ATOM     11  O   LIG    1        2.017   2.029   3.162  0.00  0.00    -0.520 OA
ATOM     12  C   LIG    1        1.662   0.053   4.298  0.00  0.00    -0.120 A 
ENDROOT
BRANCH   5  13
ATOM     13  N   LIG    1        2.580  -0.250   7.620  0.00  0.00    -0.800 NA
ATOM     14  H   LIG    1        1.846   0.438   7.689  0.00  0.00    +0.350 HD
ATOM     15  H   LIG    1        3.310  -0.069   8.293  0.00  0.00    +0.370 HD
ENDBRANCH   5  13
BRANCH   1  16
ATOM     16  C   LIG    1       -0.071  -0.103   2.448  0.00  0.00    +0.330 C 
BRANCH  16  17
ATOM     17  C   LIG    1        0.713  -0.491   1.192  0.00  0.00    +0.250 C 
BRANCH  17  19
ATOM     18  C   LIG    1       -0.018   1.465   0.010  0.00  0.00    +0.330 C 
ATOM     19  N   LIG    1        0.002  -0.004   0.002  0.00  0.00    -0.380 N 
ATOM     20  C   LIG    1        0.690  -0.478  -1.207  0.00  0.00    +0.330 C 
ATOM     21  H   LIG    1       -0.945  -0.353   0.009  0.00  0.00    +0.430 HD
ENDBRANCH  17  19
ENDBRANCH  16  17
ENDBRANCH   1  16
TORSDOF 4
ENDMDL
MODEL       98
REMARK  Name = ZINC000020101590
REMARK                            x       y       z     vdW  Elec       q    Type
REMARK                         _______ _______ _______ _____ _____    ______ ____
ROOT
ATOM      1  N   LIG    1        0.637  -0.589   3.635  0.00  0.00    -0.430 N 
ATOM      2  C   LIG    1        0.416  -1.749   4.281  0.00  0.00    +0.470 A 
ATOM      3  N   LIG    1        1.241  -1.841   5.295  0.00  0.00    -0.440 NA
ATOM      4  C   LIG    1        2.012  -0.762   5.340  0.00  0.00    +0.120 A 
ATOM      5  C   LIG    1        3.123  -0.306   6.256  0.00  0.00    +0.290 C 
ATOM      6  C   LIG    1        3.765   1.032   5.957  0.00  0.00    +0.500 C 
ATOM      7  O   LIG    1        4.660   1.452   6.659  0.00  0.00    -0.460 OA
ATOM      8  N   LIG    1        3.335   1.747   4.902  0.00  0.00    -0.660 N 
ATOM      9  H   LIG    1        3.755   2.602   4.716  0.00  0.00    +0.430 HD
ATOM     10  C   LIG    1        2.350   1.325   4.096  0.00  0.00    +0.620 C 
ATOM     11  O   LIG    1        2.017   2.029   3.162  0.00  0.00    -0.520 OA
ATOM     12  C   LIG    1        1.662   0.053   4.298  0.00  0.00    -0.120 A 
ENDROOT
BRANCH   5  13
ATOM     13  N   LIG    1        2.580  -0.250   7.620  0.00  0.00    -0.800 NA
ATOM     14  H   LIG    1        1.846   0.438   7.689  0.00  0.00    +0.350 HD
ATOM     15  H   LIG    1        3.310  -0.069   8.293  0.00  0.00    +0.370 HD
ENDBRANCH   5  13
BRANCH   1  16
ATOM     16  C   LIG    1       -0.071  -0.103   2.448  0.00  0.00    +0.330 C 
BRANCH  16  17
ATOM     17  C   LIG    1        0.713  -0.491   1.192  0.00  0.00    +0.250 C 
BRANCH  17  19
ATOM     18  C   LIG    1       -0.018   1.465   0.010  0.00  0.00    +0.330 C 
ATOM     19  N   LIG    1        0.002  -0.004   0.002  0.00  0.00    -0.380 N 
ATOM     20  C   LIG    1        0.690  -0.478  -1.207  0.00  0.00    +0.330 C 
ATOM     21  H   LIG    1       -0.945  -0.353   0.009  0.00  0.00    +0.430 HD
ENDBRANCH  17  19
ENDBRANCH  16  17
ENDBRANCH   1  16
TORSDOF 4
ENDMDL
MODEL       99
REMARK  Name = ZINC000257235233
REMARK                            x       y       z     vdW  Elec       q    Type
REMARK                         _______ _______ _______ _____ _____    ______ ____
ROOT
ATOM      1  C   LIG    1       -0.484  -2.940  -1.422  0.00  0.00    +0.290 C 
ATOM      2  C   LIG    1       -0.750  -3.471  -2.842  0.00  0.00    +0.270 C 
ATOM      3  N   LIG    1       -0.884  -4.940  -2.738  0.00  0.00    -0.390 N 
ATOM      4  C   LIG    1       -0.122  -5.332  -1.525  0.00  0.00    +0.290 C 
ATOM      5  C   LIG    1       -0.314  -5.587  -3.928  0.00  0.00    +0.340 C 
ATOM      6  H   LIG    1       -1.855  -5.195  -2.636  0.00  0.00    +0.430 HD
ATOM      7  C   LIG    1       -0.446  -4.195  -0.520  0.00  0.00    +0.000 C 
ENDROOT
BRANCH   7   8
ATOM      8  C   LIG    1        0.639  -4.078   0.520  0.00  0.00    +0.520 C 
ATOM      9  N   LIG    1        0.901  -5.115   1.340  0.00  0.00    -0.720 N 
ATOM     10  H   LIG    1        0.393  -5.937   1.260  0.00  0.00    +0.400 HD
ATOM     11  C   LIG    1        1.956  -5.001   2.350  0.00  0.00    +0.310 C 
ATOM     12  O   LIG    1        1.275  -3.050   0.619  0.00  0.00    -0.510 OA
ENDBRANCH   7   8
BRANCH   1  13
ATOM     13  N   LIG    1        0.802  -2.240  -1.373  0.00  0.00    -1.090 NA
ATOM     14  H   LIG    1        1.625  -2.744  -1.273  0.00  0.00    +0.430 HD
BRANCH  13  15
ATOM     15  S   LIG    1        0.851  -0.589  -1.490  0.00  0.00    +2.610 S 
ATOM     16  O   LIG    1        2.236  -0.275  -1.432  0.00  0.00    -0.940 OA
ATOM     17  O   LIG    1        0.082  -0.297  -2.649  0.00  0.00    -0.960 OA
BRANCH  15  19
ATOM     18  C   LIG    1       -0.019   1.526   0.010  0.00  0.00    +0.090 C 
ATOM     19  C   LIG    1        0.002  -0.004   0.002  0.00  0.00    -0.360 C 
ENDBRANCH  15  19
ENDBRANCH  13  15
ENDBRANCH   1  13
TORSDOF 4
ENDMDL
MODEL      100
REMARK  Name = ZINC000257254795
REMARK                            x       y       z     vdW  Elec       q    Type
REMARK                         _______ _______ _______ _____ _____    ______ ____
ROOT
ATOM      1  C   LIG    1       -1.312  -2.034  -0.243  0.00  0.00    +0.520 C 
ATOM      2  N   LIG    1       -2.453  -2.750  -0.279  0.00  0.00    -0.630 N 
ATOM      3  C   LIG    1       -3.781  -2.081  -0.072  0.00  0.00    +0.330 C 
ATOM      4  C   LIG    1       -4.502  -2.167  -1.351  0.00  0.00    +0.240 C 
ATOM      5  N   LIG    1       -4.717  -3.524  -1.843  0.00  0.00    -0.370 N 
ATOM      6  C   LIG    1       -3.599  -3.769  -2.723  0.00  0.00    +0.290 C 
ATOM      7  C   LIG    1       -2.532  -4.616  -1.991  0.00  0.00    +0.000 C 
ATOM      8  C   LIG    1       -5.984  -3.607  -2.581  0.00  0.00    +0.350 C 
ATOM      9  H   LIG    1       -4.713  -4.181  -1.077  0.00  0.00    +0.420 HD
ATOM     10  C   LIG    1       -2.418  -4.168  -0.521  0.00  0.00    +0.300 C 
ATOM     11  O   LIG    1       -0.245  -2.583  -0.416  0.00  0.00    -0.480 OA
ENDROOT
BRANCH   7  12
ATOM     12  C   LIG    1       -2.927  -6.070  -2.041  0.00  0.00    +0.520 C 
ATOM     13  O   LIG    1       -3.951  -6.401  -2.600  0.00  0.00    -0.540 OA
ATOM     14  N   LIG    1       -2.142  -7.001  -1.464  0.00  0.00    -0.840 N 
ATOM     15  H   LIG    1       -2.396  -7.937  -1.496  0.00  0.00    +0.420 HD
ATOM     16  H   LIG    1       -1.323  -6.736  -1.018  0.00  0.00    +0.410 HD
ENDBRANCH   7  12
BRANCH   1  17
ATOM     17  C   LIG    1       -1.362  -0.549   0.012  0.00  0.00    +0.210 C 
BRANCH  17  19
ATOM     18  C   LIG    1       -0.018   1.465   0.010  0.00  0.00    +0.200 C 
ATOM     19  N   LIG    1        0.002  -0.004   0.002  0.00  0.00    -0.530 NA
ATOM     20  C   LIG    1        0.786  -0.526   1.129  0.00  0.00    +0.200 C 
ENDBRANCH  17  19
ENDBRANCH   1  17
TORSDOF 3
ENDMDL
MODEL      101
REMARK  Name = ZINC000257261277
REMARK                            x       y       z     vdW  Elec       q    Type
REMARK                         _______ _______ _______ _____ _____    ______ ____
ROOT
ATOM      1  N   LIG    1       -3.547  -1.902  -1.230  0.00  0.00    -0.390 N 
ATOM      2  C   LIG    1       -2.998  -2.662  -2.382  0.00  0.00    +0.240 C 
ATOM      3  C   LIG    1       -4.105  -2.523  -3.457  0.00  0.00    +0.180 C 
ATOM      4  C   LIG    1       -5.406  -2.600  -2.626  0.00  0.00    +0.270 C 
ATOM      5  C   LIG    1       -4.993  -2.209  -1.194  0.00  0.00    +0.280 C 
ATOM      6  H   LIG    1       -3.404  -0.912  -1.366  0.00  0.00    +0.440 HD
ENDROOT
BRANCH   4   7
ATOM      7  N   LIG    1       -6.399  -1.656  -3.145  0.00  0.00    -0.740 N 
ATOM      8  H   LIG    1       -6.467  -0.766  -2.765  0.00  0.00    +0.410 HD
ATOM      9  C   LIG    1       -7.217  -2.024  -4.151  0.00  0.00    +0.520 C 
ATOM     10  O   LIG    1       -7.132  -3.137  -4.625  0.00  0.00    -0.480 OA
BRANCH   9  11
ATOM     11  C   LIG    1       -8.238  -1.052  -4.685  0.00  0.00    +0.210 C 
BRANCH  11  12
ATOM     12  O   LIG    1       -8.978  -1.671  -5.739  0.00  0.00    -0.370 OA
ATOM     13  C   LIG    1       -9.978  -0.831  -6.318  0.00  0.00    +0.230 C 
ENDBRANCH  11  12
ENDBRANCH   9  11
ENDBRANCH   4   7
BRANCH   3  14
ATOM     14  O   LIG    1       -4.037  -3.599  -4.396  0.00  0.00    -0.520 OA
ATOM     15  H   LIG    1       -3.205  -3.638  -4.888  0.00  0.00    +0.400 HD
ENDBRANCH   3  14
BRANCH   1  16
ATOM     16  C   LIG    1       -2.905  -2.339   0.017  0.00  0.00    +0.290 C 
BRANCH  16  17
ATOM     17  C   LIG    1       -1.432  -1.925   0.005  0.00  0.00    +0.200 C 
BRANCH  17  18
ATOM     18  O   LIG    1       -1.339  -0.499   0.012  0.00  0.00    -0.400 OA
BRANCH  18  20
ATOM     19  C   LIG    1       -0.019   1.526   0.010  0.00  0.00    +0.050 C 
ATOM     20  C   LIG    1        0.002  -0.004   0.002  0.00  0.00    +0.180 C 
ENDBRANCH  18  20
ENDBRANCH  17  18
ENDBRANCH  16  17
ENDBRANCH   1  16
TORSDOF 8
ENDMDL
MODEL      102
REMARK  Name = ZINC000257258384
REMARK                            x       y       z     vdW  Elec       q    Type
REMARK                         _______ _______ _______ _____ _____    ______ ____
ROOT
ATOM      1  C   LIG    1        0.060  -2.139  -1.150  0.00  0.00    +0.230 C 
ATOM      2  C   LIG    1       -1.346  -2.633  -0.936  0.00  0.00    +0.050 C 
ATOM      3  C   LIG    1       -1.416  -3.993  -0.217  0.00  0.00    +0.260 C 
ATOM      4  N   LIG    1       -0.420  -4.971  -0.705  0.00  0.00    -0.380 N 
ATOM      5  C   LIG    1       -0.297  -4.944  -2.142  0.00  0.00    +0.270 C 
ATOM      6  C   LIG    1        0.898  -4.045  -2.497  0.00  0.00    +0.040 C 
ATOM      7  H   LIG    1        0.477  -4.758  -0.294  0.00  0.00    +0.420 HD
ATOM      8  C   LIG    1        0.560  -2.628  -2.533  0.00  0.00    +0.170 C 
ENDROOT
BRANCH   1  11
ATOM      9  C   LIG    1        0.194   1.474   0.108  0.00  0.00    +0.100 C 
ATOM     10  C   LIG    1        0.176  -0.033   0.069  0.00  0.00    +0.520 C 
ATOM     11  N   LIG    1        0.077  -0.675  -1.112  0.00  0.00    -0.720 N 
ATOM     12  H   LIG    1        0.017  -0.167  -1.937  0.00  0.00    +0.410 HD
ATOM     13  O   LIG    1        0.251  -0.667   1.100  0.00  0.00    -0.550 OA
ENDBRANCH   1  11
BRANCH   8  14
ATOM     14  O   LIG    1        1.718  -1.879  -2.908  0.00  0.00    -0.550 OA
ATOM     15  H   LIG    1        2.073  -2.113  -3.776  0.00  0.00    +0.390 HD
ENDBRANCH   8  14
BRANCH   4  16
ATOM     16  C   LIG    1       -0.829  -6.318  -0.286  0.00  0.00    +0.280 C 
BRANCH  16  17
ATOM     17  C   LIG    1       -0.769  -6.419   1.240  0.00  0.00    +0.060 C 
BRANCH  17  18
ATOM     18  C   LIG    1       -1.065  -7.835   1.662  0.00  0.00    +0.520 C 
ATOM     19  O   LIG    1       -1.302  -8.680   0.825  0.00  0.00    -0.540 OA
ATOM     20  N   LIG    1       -1.068  -8.162   2.969  0.00  0.00    -0.840 N 
ATOM     21  H   LIG    1       -1.259  -9.073   3.241  0.00  0.00    +0.420 HD
ATOM     22  H   LIG    1       -0.879  -7.485   3.639  0.00  0.00    +0.410 HD
ENDBRANCH  17  18
ENDBRANCH  16  17
ENDBRANCH   4  16
TORSDOF 5
ENDMDL
MODEL      103
REMARK  Name = ZINC000257254794
REMARK                            x       y       z     vdW  Elec       q    Type
REMARK                         _______ _______ _______ _____ _____    ______ ____
ROOT
ATOM      1  C   LIG    1       -1.312  -2.034  -0.243  0.00  0.00    +0.520 C 
ATOM      2  N   LIG    1       -2.453  -2.750  -0.279  0.00  0.00    -0.630 N 
ATOM      3  C   LIG    1       -3.725  -2.113  -0.081  0.00  0.00    +0.300 C 
ATOM      4  C   LIG    1       -4.253  -2.051   1.369  0.00  0.00    +0.250 C 
ATOM      5  N   LIG    1       -4.019  -3.340   2.074  0.00  0.00    -0.380 N 
ATOM      6  C   LIG    1       -4.250  -4.447   1.182  0.00  0.00    +0.310 C 
ATOM      7  C   LIG    1       -2.863  -4.872   0.718  0.00  0.00    -0.030 C 
ATOM      8  C   LIG    1       -4.935  -3.442   3.218  0.00  0.00    +0.330 C 
ATOM      9  H   LIG    1       -3.066  -3.371   2.406  0.00  0.00    +0.420 HD
ATOM     10  C   LIG    1       -2.420  -4.233  -0.532  0.00  0.00    +0.330 C 
ATOM     11  O   LIG    1       -0.245  -2.583  -0.416  0.00  0.00    -0.480 OA
ENDROOT
BRANCH   7  12
ATOM     12  C   LIG    1       -2.864  -6.365   0.513  0.00  0.00    +0.530 C 
ATOM     13  O   LIG    1       -3.873  -7.005   0.720  0.00  0.00    -0.530 OA
ATOM     14  N   LIG    1       -1.743  -6.989   0.100  0.00  0.00    -0.840 N 
ATOM     15  H   LIG    1       -1.744  -7.950  -0.032  0.00  0.00    +0.420 HD
ATOM     16  H   LIG    1       -0.936  -6.477  -0.066  0.00  0.00    +0.410 HD
ENDBRANCH   7  12
BRANCH   1  17
ATOM     17  C   LIG    1       -1.362  -0.549   0.012  0.00  0.00    +0.200 C 
BRANCH  17  19
ATOM     18  C   LIG    1       -0.018   1.465   0.010  0.00  0.00    +0.200 C 
ATOM     19  N   LIG    1        0.002  -0.004   0.002  0.00  0.00    -0.530 NA
ATOM     20  C   LIG    1        0.786  -0.526   1.129  0.00  0.00    +0.200 C 
ENDBRANCH  17  19
ENDBRANCH   1  17
TORSDOF 3
ENDMDL
MODEL      104
REMARK  Name = ZINC000020464999
REMARK                            x       y       z     vdW  Elec       q    Type
REMARK                         _______ _______ _______ _____ _____    ______ ____
ROOT
ATOM      1  C   LIG    1       -0.091   0.885   2.430  0.00  0.00    +0.150 C 
ATOM      2  O   LIG    1        1.254   1.399   2.321  0.00  0.00    -0.360 OA
ATOM      3  C   LIG    1        1.789   1.353   3.661  0.00  0.00    +0.140 C 
ATOM      4  C   LIG    1        0.624   1.808   4.568  0.00  0.00    +0.130 C 
ATOM      5  C   LIG    1       -0.643   1.491   3.740  0.00  0.00    +0.180 C 
ENDROOT
BRANCH   5   6
ATOM      6  N   LIG    1       -1.397   2.720   3.462  0.00  0.00    -0.510 NA
ATOM      7  C   LIG    1       -1.898   3.333   4.719  0.00  0.00    +0.200 C 
ATOM      8  C   LIG    1       -2.172   4.803   4.312  0.00  0.00    +0.020 C 
ATOM      9  C   LIG    1       -1.012   5.114   3.339  0.00  0.00    +0.020 C 
ATOM     10  C   LIG    1       -0.532   3.741   2.832  0.00  0.00    +0.180 C 
ENDBRANCH   5   6
BRANCH   4  11
ATOM     11  O   LIG    1        0.716   3.209   4.835  0.00  0.00    -0.530 OA
ATOM     12  H   LIG    1        1.522   3.468   5.302  0.00  0.00    +0.380 HD
ENDBRANCH   4  11
BRANCH   1  13
ATOM     13  C   LIG    1       -0.934   1.339   1.237  0.00  0.00    +0.300 C 
BRANCH  13  14
ATOM     14  N   LIG    1       -0.504   0.619   0.031  0.00  0.00    -0.640 N 
ATOM     15  H   LIG    1       -1.060   0.918  -0.756  0.00  0.00    +0.440 HD
ATOM     16  H   LIG    1        0.469   0.816  -0.150  0.00  0.00    +0.440 HD
ATOM     17  H   LIG    1       -0.626  -0.373   0.171  0.00  0.00    +0.430 HD
ENDBRANCH  13  14
ENDBRANCH   1  13
BRANCH   3  18
ATOM     18  C   LIG    1        2.976   2.309   3.794  0.00  0.00    +0.210 C 
BRANCH  18  19
ATOM     19  O   LIG    1        4.056   1.844   2.982  0.00  0.00    -0.570 OA
ATOM     20  H   LIG    1        4.844   2.404   3.017  0.00  0.00    +0.390 HD
ENDBRANCH  18  19
ENDBRANCH   3  18
TORSDOF 6
ENDMDL
MODEL      105
REMARK  Name = ZINC000106604057
REMARK                            x       y       z     vdW  Elec       q    Type
REMARK                         _______ _______ _______ _____ _____    ______ ____
ROOT
ATOM      1  N   LIG    1        0.711  -0.489   1.189  0.00  0.00    -0.620 N 
ATOM      2  H   LIG    1        1.077   0.142   1.827  0.00  0.00    +0.430 HD
ATOM      3  C   LIG    1        0.857  -1.841   1.398  0.00  0.00    +0.460 C 
ATOM      4  N   LIG    1        1.464  -2.392   2.421  0.00  0.00    -0.610 N 
ATOM      5  C   LIG    1        1.499  -3.805   2.456  0.00  0.00    +0.180 C 
ATOM      6  C   LIG    1        0.372  -4.420   1.599  0.00  0.00    +0.230 C 
ATOM      7  O   LIG    1        0.881  -5.660   1.118  0.00  0.00    -0.300 OA
ATOM      8  C   LIG    1        1.125  -6.577   2.197  0.00  0.00    +0.190 C 
ATOM      9  C   LIG    1        2.149  -6.037   3.192  0.00  0.00    +0.160 C 
ATOM     10  C   LIG    1        1.731  -4.639   3.677  0.00  0.00    +0.230 C 
ATOM     11  H   LIG    1        1.869  -1.856   3.120  0.00  0.00    +0.440 HD
ATOM     12  S   LIG    1        0.246  -3.125   0.327  0.00  0.00    +0.120 S 
ENDROOT
BRANCH   1  14
ATOM     13  C   LIG    1       -0.019   1.526   0.010  0.00  0.00    +0.090 C 
ATOM     14  C   LIG    1        0.002  -0.004   0.002  0.00  0.00    +0.300 C 
ENDBRANCH   1  14
BRANCH   9  15
ATOM     15  O   LIG    1        2.229  -6.920   4.312  0.00  0.00    -0.550 OA
ATOM     16  H   LIG    1        2.497  -7.821   4.085  0.00  0.00    +0.400 HD
ENDBRANCH   9  15
BRANCH  10  17
ATOM     17  O   LIG    1        0.535  -4.728   4.455  0.00  0.00    -0.550 OA
ATOM     18  H   LIG    1        0.618  -5.285   5.241  0.00  0.00    +0.410 HD
ENDBRANCH  10  17
BRANCH   8  19
ATOM     19  C   LIG    1       -0.191  -6.839   2.933  0.00  0.00    +0.180 C 
BRANCH  19  20
ATOM     20  O   LIG    1       -1.101  -7.509   2.058  0.00  0.00    -0.570 OA
ATOM     21  H   LIG    1       -1.958  -7.707   2.460  0.00  0.00    +0.390 HD
ENDBRANCH  19  20
ENDBRANCH   8  19
TORSDOF 5
ENDMDL
MODEL      106
REMARK  Name = ZINC000409429299
REMARK                            x       y       z     vdW  Elec       q    Type
REMARK                         _______ _______ _______ _____ _____    ______ ____
ROOT
ATOM      1  N   LIG    1       -1.456   4.971   2.491  0.00  0.00    -0.530 NA
ATOM      2  C   LIG    1       -2.327   5.493   1.424  0.00  0.00    +0.180 C 
ATOM      3  C   LIG    1       -2.050   6.984   1.279  0.00  0.00    +0.070 C 
ATOM      4  C   LIG    1       -2.280   7.744   2.572  0.00  0.00    +0.020 C 
ATOM      5  C   LIG    1       -1.282   8.894   2.625  0.00  0.00    +0.530 C 
ATOM      6  N   LIG    1       -0.446   8.695   3.653  0.00  0.00    -0.680 N 
ATOM      7  H   LIG    1        0.299   9.285   3.847  0.00  0.00    +0.420 HD
ATOM      8  C   LIG    1       -0.726   7.609   4.391  0.00  0.00    +0.540 C 
ATOM      9  O   LIG    1       -0.082   7.207   5.337  0.00  0.00    -0.470 OA
ATOM     10  O   LIG    1       -1.250   9.835   1.862  0.00  0.00    -0.470 OA
ATOM     11  C   LIG    1       -1.991   6.972   3.843  0.00  0.00    +0.000 C 
ATOM     12  C   LIG    1       -1.918   5.482   3.782  0.00  0.00    +0.230 C 
ENDROOT
BRANCH   1  13
ATOM     13  C   LIG    1       -1.436   3.502   2.483  0.00  0.00    +0.190 C 
BRANCH  13  14
ATOM     14  C   LIG    1       -0.720   3.008   1.225  0.00  0.00    +0.040 C 
BRANCH  14  15
ATOM     15  C   LIG    1       -0.699   1.479   1.216  0.00  0.00    +0.260 C 
BRANCH  15  16
ATOM     16  N   LIG    1       -0.012   1.005   0.008  0.00  0.00    -0.640 N 
ATOM     17  H   LIG    1       -0.500   1.339  -0.810  0.00  0.00    +0.440 HD
ATOM     18  H   LIG    1        0.935   1.354   0.000  0.00  0.00    +0.440 HD
ATOM     19  H   LIG    1        0.002  -0.004   0.002  0.00  0.00    +0.440 HD
ENDBRANCH  15  16
ENDBRANCH  14  15
ENDBRANCH  13  14
ENDBRANCH   1  13
TORSDOF 4
ENDMDL
MODEL      107
REMARK  Name = ZINC000409429301
REMARK                            x       y       z     vdW  Elec       q    Type
REMARK                         _______ _______ _______ _____ _____    ______ ____
ROOT
ATOM      1  N   LIG    1       -1.456   4.971   2.491  0.00  0.00    -0.550 NA
ATOM      2  C   LIG    1       -2.190   5.491   1.339  0.00  0.00    +0.180 C 
ATOM      3  C   LIG    1       -2.222   7.033   1.315  0.00  0.00    +0.080 C 
ATOM      4  C   LIG    1       -2.824   7.456   2.638  0.00  0.00    -0.020 C 
ATOM      5  C   LIG    1       -2.940   8.908   2.973  0.00  0.00    +0.550 C 
ATOM      6  N   LIG    1       -2.752   8.998   4.318  0.00  0.00    -0.700 N 
ATOM      7  H   LIG    1       -2.952   9.796   4.832  0.00  0.00    +0.420 HD
ATOM      8  C   LIG    1       -2.255   7.858   4.871  0.00  0.00    +0.550 C 
ATOM      9  O   LIG    1       -2.196   7.584   6.051  0.00  0.00    -0.460 OA
ATOM     10  O   LIG    1       -3.159   9.819   2.204  0.00  0.00    -0.460 OA
ATOM     11  C   LIG    1       -1.811   6.991   3.729  0.00  0.00    +0.000 C 
ATOM     12  C   LIG    1       -1.923   5.487   3.797  0.00  0.00    +0.240 C 
ENDROOT
BRANCH   1  13
ATOM     13  C   LIG    1       -1.436   3.502   2.483  0.00  0.00    +0.200 C 
BRANCH  13  14
ATOM     14  C   LIG    1       -0.720   3.008   1.225  0.00  0.00    +0.040 C 
BRANCH  14  15
ATOM     15  C   LIG    1       -0.699   1.479   1.216  0.00  0.00    +0.260 C 
BRANCH  15  16
ATOM     16  N   LIG    1       -0.012   1.005   0.008  0.00  0.00    -0.640 N 
ATOM     17  H   LIG    1       -0.500   1.339  -0.810  0.00  0.00    +0.440 HD
ATOM     18  H   LIG    1        0.935   1.354   0.000  0.00  0.00    +0.440 HD
ATOM     19  H   LIG    1        0.002  -0.004   0.002  0.00  0.00    +0.440 HD
ENDBRANCH  15  16
ENDBRANCH  14  15
ENDBRANCH  13  14
ENDBRANCH   1  13
TORSDOF 4
ENDMDL
MODEL      108
REMARK  Name = ZINC000409429296
REMARK                            x       y       z     vdW  Elec       q    Type
REMARK                         _______ _______ _______ _____ _____    ______ ____
ROOT
ATOM      1  N   LIG    1       -1.456   4.971   2.491  0.00  0.00    -0.550 NA
ATOM      2  C   LIG    1       -0.169   5.515   2.061  0.00  0.00    +0.180 C 
ATOM      3  C   LIG    1       -0.153   7.055   2.054  0.00  0.00    +0.080 C 
ATOM      4  C   LIG    1       -0.557   7.493   3.442  0.00  0.00    -0.020 C 
ATOM      5  C   LIG    1       -0.730   8.945   3.751  0.00  0.00    +0.550 C 
ATOM      6  N   LIG    1       -1.734   9.013   4.668  0.00  0.00    -0.700 N 
ATOM      7  H   LIG    1       -1.935   9.813   5.179  0.00  0.00    +0.420 HD
ATOM      8  C   LIG    1       -2.427   7.849   4.799  0.00  0.00    +0.550 C 
ATOM      9  O   LIG    1       -3.213   7.561   5.676  0.00  0.00    -0.460 OA
ATOM     10  O   LIG    1       -0.105   9.871   3.281  0.00  0.00    -0.460 OA
ATOM     11  C   LIG    1       -2.018   6.989   3.643  0.00  0.00    +0.010 C 
ATOM     12  C   LIG    1       -1.924   5.488   3.799  0.00  0.00    +0.240 C 
ENDROOT
BRANCH   1  13
ATOM     13  C   LIG    1       -1.436   3.502   2.483  0.00  0.00    +0.200 C 
BRANCH  13  14
ATOM     14  C   LIG    1       -0.720   3.008   1.225  0.00  0.00    +0.030 C 
BRANCH  14  15
ATOM     15  C   LIG    1       -0.699   1.479   1.216  0.00  0.00    +0.260 C 
BRANCH  15  16
ATOM     16  N   LIG    1       -0.012   1.005   0.008  0.00  0.00    -0.640 N 
ATOM     17  H   LIG    1       -0.500   1.339  -0.810  0.00  0.00    +0.440 HD
ATOM     18  H   LIG    1        0.935   1.354   0.000  0.00  0.00    +0.440 HD
ATOM     19  H   LIG    1        0.002  -0.004   0.002  0.00  0.00    +0.440 HD
ENDBRANCH  15  16
ENDBRANCH  14  15
ENDBRANCH  13  14
ENDBRANCH   1  13
TORSDOF 4
ENDMDL
MODEL      109
REMARK  Name = ZINC000409429300
REMARK                            x       y       z     vdW  Elec       q    Type
REMARK                         _______ _______ _______ _____ _____    ______ ____
ROOT
ATOM      1  N   LIG    1       -1.456   4.971   2.491  0.00  0.00    -0.530 NA
ATOM      2  C   LIG    1       -2.318   5.493   1.417  0.00  0.00    +0.180 C 
ATOM      3  C   LIG    1       -2.025   6.984   1.276  0.00  0.00    +0.080 C 
ATOM      4  C   LIG    1       -2.172   7.729   2.568  0.00  0.00    +0.000 C 
ATOM      5  C   LIG    1       -3.537   8.340   2.758  0.00  0.00    +0.530 C 
ATOM      6  N   LIG    1       -3.909   8.147   4.034  0.00  0.00    -0.680 N 
ATOM      7  H   LIG    1       -4.740   8.492   4.397  0.00  0.00    +0.420 HD
ATOM      8  C   LIG    1       -3.036   7.438   4.763  0.00  0.00    +0.530 C 
ATOM      9  O   LIG    1       -3.142   7.190   5.944  0.00  0.00    -0.470 OA
ATOM     10  O   LIG    1       -4.186   8.907   1.906  0.00  0.00    -0.470 OA
ATOM     11  C   LIG    1       -1.907   6.989   3.863  0.00  0.00    +0.020 C 
ATOM     12  C   LIG    1       -1.917   5.481   3.780  0.00  0.00    +0.210 C 
ENDROOT
BRANCH   1  13
ATOM     13  C   LIG    1       -1.436   3.502   2.483  0.00  0.00    +0.190 C 
BRANCH  13  14
ATOM     14  C   LIG    1       -0.720   3.008   1.225  0.00  0.00    +0.040 C 
BRANCH  14  15
ATOM     15  C   LIG    1       -0.699   1.479   1.216  0.00  0.00    +0.260 C 
BRANCH  15  16
ATOM     16  N   LIG    1       -0.012   1.005   0.008  0.00  0.00    -0.640 N 
ATOM     17  H   LIG    1       -0.500   1.339  -0.810  0.00  0.00    +0.440 HD
ATOM     18  H   LIG    1        0.935   1.354   0.000  0.00  0.00    +0.440 HD
ATOM     19  H   LIG    1        0.002  -0.004   0.002  0.00  0.00    +0.440 HD
ENDBRANCH  15  16
ENDBRANCH  14  15
ENDBRANCH  13  14
ENDBRANCH   1  13
TORSDOF 4
ENDMDL
MODEL      110
REMARK  Name = ZINC000400559770
REMARK                            x       y       z     vdW  Elec       q    Type
REMARK                         _______ _______ _______ _____ _____    ______ ____
ROOT
ATOM      1  C   LIG    1       -0.018   1.461   0.010  0.00  0.00    +0.360 C 
ATOM      2  N   LIG    1        0.002  -0.004   0.002  0.00  0.00    -0.520 N 
ATOM      3  C   LIG    1       -1.178  -0.687   0.004  0.00  0.00    +0.440 A 
ATOM      4  C   LIG    1       -1.164  -2.052  -0.004  0.00  0.00    -0.230 A 
ATOM      5  C   LIG    1        0.137  -2.735  -0.013  0.00  0.00    +0.570 A 
ATOM      6  N   LIG    1        1.260  -1.988  -0.015  0.00  0.00    -0.650 N 
ATOM      7  H   LIG    1        2.128  -2.420  -0.021  0.00  0.00    +0.440 HD
ATOM      8  O   LIG    1        0.200  -3.951  -0.021  0.00  0.00    -0.480 OA
ATOM      9  C   LIG    1        1.182  -0.645  -0.013  0.00  0.00    +0.690 A 
ATOM     10  O   LIG    1        2.208   0.006  -0.014  0.00  0.00    -0.510 OA
ENDROOT
BRANCH   4  11
ATOM     11  C   LIG    1       -2.428  -2.825  -0.002  0.00  0.00    +0.270 A 
ATOM     12  N   LIG    1       -3.640  -2.332   0.000  0.00  0.00    -0.350 NA
ATOM     13  O   LIG    1       -4.455  -3.230   0.000  0.00  0.00    +0.110 OA
ATOM     14  C   LIG    1       -3.833  -4.413  -0.002  0.00  0.00    +0.080 A 
ATOM     15  N   LIG    1       -2.546  -4.172  -0.009  0.00  0.00    -0.400 NA
BRANCH  14  16
ATOM     16  C   LIG    1       -4.490  -5.769  -0.004  0.00  0.00    +0.470 C 
BRANCH  16  17
ATOM     17  N   LIG    1       -4.702  -6.213   1.381  0.00  0.00    -0.630 N 
ATOM     18  H   LIG    1       -5.296  -5.552   1.858  0.00  0.00    +0.440 HD
ATOM     19  H   LIG    1       -3.813  -6.270   1.855  0.00  0.00    +0.440 HD
ATOM     20  H   LIG    1       -5.141  -7.121   1.379  0.00  0.00    +0.450 HD
ENDBRANCH  16  17
ENDBRANCH  14  16
ENDBRANCH   4  11
TORSDOF 3
ENDMDL
MODEL      111
REMARK  Name = ZINC000409424818
REMARK                            x       y       z     vdW  Elec       q    Type
REMARK                         _______ _______ _______ _____ _____    ______ ____
ROOT
ATOM      1  C   LIG    1       -0.018   1.461   0.010  0.00  0.00    +0.320 C 
ATOM      2  N   LIG    1        0.002  -0.004   0.002  0.00  0.00    -0.580 N 
ATOM      3  C   LIG    1        0.007  -0.722  -1.127  0.00  0.00    +0.530 C 
ATOM      4  C   LIG    1        0.028  -2.195  -0.786  0.00  0.00    +0.030 C 
ATOM      5  C   LIG    1        1.387  -2.793  -1.207  0.00  0.00    +0.220 C 
ATOM      6  N   LIG    1        1.812  -3.616  -0.046  0.00  0.00    -0.500 NA
ATOM      7  C   LIG    1        1.424  -2.806   1.137  0.00  0.00    +0.210 C 
ATOM      8  C   LIG    1        0.035  -2.203   0.766  0.00  0.00    +0.030 C 
ATOM      9  O   LIG    1       -0.004  -0.262  -2.249  0.00  0.00    -0.460 OA
ATOM     10  C   LIG    1        0.023  -0.734   1.123  0.00  0.00    +0.530 C 
ATOM     11  O   LIG    1        0.039  -0.286   2.250  0.00  0.00    -0.470 OA
ENDROOT
BRANCH   6  12
ATOM     12  C   LIG    1        3.262  -3.851  -0.070  0.00  0.00    +0.180 C 
BRANCH  12  13
ATOM     13  C   LIG    1        3.627  -4.897   0.986  0.00  0.00    +0.040 C 
BRANCH  13  14
ATOM     14  C   LIG    1        5.137  -5.142   0.960  0.00  0.00    +0.260 C 
BRANCH  14  15
ATOM     15  N   LIG    1        5.487  -6.146   1.974  0.00  0.00    -0.640 N 
ATOM     16  H   LIG    1        5.003  -7.008   1.774  0.00  0.00    +0.440 HD
ATOM     17  H   LIG    1        5.216  -5.811   2.886  0.00  0.00    +0.440 HD
ATOM     18  H   LIG    1        6.483  -6.307   1.957  0.00  0.00    +0.440 HD
ENDBRANCH  14  15
ENDBRANCH  13  14
ENDBRANCH  12  13
ENDBRANCH   6  12
TORSDOF 4
ENDMDL
MODEL      112
REMARK  Name = ZINC000409425257
REMARK                            x       y       z     vdW  Elec       q    Type
REMARK                         _______ _______ _______ _____ _____    ______ ____
ROOT
ATOM      1  C   LIG    1       -0.762   1.491  -0.389  0.00  0.00    +0.330 C 
ATOM      2  N   LIG    1       -0.582   0.038  -0.320  0.00  0.00    -0.570 N 
ATOM      3  C   LIG    1       -0.555  -0.744  -1.411  0.00  0.00    +0.530 C 
ATOM      4  C   LIG    1       -0.284  -2.159  -0.969  0.00  0.00    +0.010 C 
ATOM      5  C   LIG    1       -1.112  -3.182  -1.672  0.00  0.00    +0.110 C 
ATOM      6  C   LIG    1       -2.340  -3.639  -0.916  0.00  0.00    +0.270 C 
ATOM      7  N   LIG    1       -2.037  -3.929   0.475  0.00  0.00    -0.360 N 
ATOM      8  C   LIG    1       -1.525  -2.777   1.182  0.00  0.00    +0.280 C 
ATOM      9  H   LIG    1       -2.878  -4.245   0.933  0.00  0.00    +0.440 HD
ATOM     10  C   LIG    1       -0.345  -2.115   0.544  0.00  0.00    +0.020 C 
ATOM     11  O   LIG    1       -0.719  -0.376  -2.554  0.00  0.00    -0.450 OA
ATOM     12  C   LIG    1       -0.424  -0.621   0.836  0.00  0.00    +0.530 C 
ATOM     13  O   LIG    1       -0.343  -0.111   1.933  0.00  0.00    -0.450 OA
ENDROOT
BRANCH   7  14
ATOM     14  C   LIG    1       -1.035  -5.001   0.529  0.00  0.00    +0.260 C 
BRANCH  14  15
ATOM     15  C   LIG    1       -0.824  -5.429   1.983  0.00  0.00    +0.210 C 
BRANCH  15  16
ATOM     16  O   LIG    1       -2.040  -5.973   2.501  0.00  0.00    -0.580 OA
ATOM     17  H   LIG    1       -1.980  -6.266   3.420  0.00  0.00    +0.410 HD
ENDBRANCH  15  16
ENDBRANCH  14  15
ENDBRANCH   7  14
TORSDOF 3
ENDMDL
MODEL      113
REMARK  Name = ZINC000409425256
REMARK                            x       y       z     vdW  Elec       q    Type
REMARK                         _______ _______ _______ _____ _____    ______ ____
ROOT
ATOM      1  C   LIG    1       -0.289   1.078  -0.360  0.00  0.00    +0.340 C 
ATOM      2  N   LIG    1       -0.120  -0.375  -0.290  0.00  0.00    -0.570 N 
ATOM      3  C   LIG    1        0.034  -1.142  -1.378  0.00  0.00    +0.520 C 
ATOM      4  C   LIG    1        0.258  -2.584  -0.937  0.00  0.00    +0.030 C 
ATOM      5  C   LIG    1        1.650  -2.996  -1.361  0.00  0.00    +0.080 C 
ATOM      6  C   LIG    1        2.355  -3.913  -0.391  0.00  0.00    +0.270 C 
ATOM      7  N   LIG    1        2.317  -3.406   0.970  0.00  0.00    -0.370 N 
ATOM      8  C   LIG    1        0.962  -3.256   1.458  0.00  0.00    +0.300 C 
ATOM      9  H   LIG    1        2.813  -4.045   1.572  0.00  0.00    +0.440 HD
ATOM     10  C   LIG    1        0.017  -2.521   0.558  0.00  0.00    +0.010 C 
ATOM     11  O   LIG    1       -0.000  -0.753  -2.526  0.00  0.00    -0.440 OA
ATOM     12  C   LIG    1       -0.101  -1.051   0.871  0.00  0.00    +0.520 C 
ATOM     13  O   LIG    1       -0.160  -0.563   1.979  0.00  0.00    -0.450 OA
ENDROOT
BRANCH   7  14
ATOM     14  C   LIG    1        2.984  -2.098   1.011  0.00  0.00    +0.260 C 
BRANCH  14  15
ATOM     15  C   LIG    1        3.097  -1.628   2.462  0.00  0.00    +0.220 C 
BRANCH  15  16
ATOM     16  O   LIG    1        3.928  -2.532   3.193  0.00  0.00    -0.580 OA
ATOM     17  H   LIG    1        4.044  -2.295   4.123  0.00  0.00    +0.410 HD
ENDBRANCH  15  16
ENDBRANCH  14  15
ENDBRANCH   7  14
TORSDOF 3
ENDMDL
MODEL      114
REMARK  Name = ZINC000409425254
REMARK                            x       y       z     vdW  Elec       q    Type
REMARK                         _______ _______ _______ _____ _____    ______ ____
ROOT
ATOM      1  C   LIG    1       -0.590   1.292  -0.482  0.00  0.00    +0.340 C 
ATOM      2  N   LIG    1       -0.477  -0.165  -0.383  0.00  0.00    -0.590 N 
ATOM      3  C   LIG    1       -0.517  -0.994  -1.462  0.00  0.00    +0.540 C 
ATOM      4  C   LIG    1       -0.051  -2.327  -0.972  0.00  0.00    -0.010 C 
ATOM      5  C   LIG    1       -0.623  -3.594  -1.570  0.00  0.00    +0.110 C 
ATOM      6  C   LIG    1       -0.009  -4.755  -0.760  0.00  0.00    +0.260 C 
ATOM      7  N   LIG    1       -0.289  -4.646   0.670  0.00  0.00    -0.380 N 
ATOM      8  C   LIG    1        0.141  -3.355   1.249  0.00  0.00    +0.310 C 
ATOM      9  H   LIG    1       -1.282  -4.751   0.815  0.00  0.00    +0.430 HD
ATOM     10  C   LIG    1       -0.567  -2.265   0.498  0.00  0.00    -0.030 C 
ATOM     11  O   LIG    1       -0.860  -0.709  -2.589  0.00  0.00    -0.440 OA
ATOM     12  C   LIG    1       -0.315  -0.823   0.798  0.00  0.00    +0.560 C 
ATOM     13  O   LIG    1       -0.042  -0.338   1.875  0.00  0.00    -0.440 OA
ENDROOT
BRANCH   7  14
ATOM     14  C   LIG    1        0.407  -5.732   1.372  0.00  0.00    +0.290 C 
BRANCH  14  15
ATOM     15  C   LIG    1        0.003  -5.727   2.848  0.00  0.00    +0.210 C 
BRANCH  15  16
ATOM     16  O   LIG    1       -1.396  -5.997   2.959  0.00  0.00    -0.580 OA
ATOM     17  H   LIG    1       -1.724  -6.009   3.869  0.00  0.00    +0.410 HD
ENDBRANCH  15  16
ENDBRANCH  14  15
ENDBRANCH   7  14
TORSDOF 3
ENDMDL
MODEL      115
REMARK  Name = ZINC000409425259
REMARK                            x       y       z     vdW  Elec       q    Type
REMARK                         _______ _______ _______ _____ _____    ______ ____
ROOT
ATOM      1  C   LIG    1        0.262   1.218  -0.599  0.00  0.00    +0.330 C 
ATOM      2  N   LIG    1        0.216  -0.239  -0.456  0.00  0.00    -0.590 N 
ATOM      3  C   LIG    1       -0.945  -0.947  -0.386  0.00  0.00    +0.550 C 
ATOM      4  C   LIG    1       -0.561  -2.316   0.070  0.00  0.00    -0.040 C 
ATOM      5  C   LIG    1       -1.327  -3.526  -0.402  0.00  0.00    +0.320 C 
ATOM      6  N   LIG    1       -0.669  -4.706   0.200  0.00  0.00    -0.380 N 
ATOM      7  C   LIG    1        0.740  -4.826  -0.167  0.00  0.00    +0.270 C 
ATOM      8  C   LIG    1        1.546  -3.554   0.171  0.00  0.00    +0.110 C 
ATOM      9  H   LIG    1       -1.155  -5.537  -0.102  0.00  0.00    +0.440 HD
ATOM     10  C   LIG    1        0.859  -2.425  -0.567  0.00  0.00    +0.000 C 
ATOM     11  O   LIG    1       -2.061  -0.548  -0.642  0.00  0.00    -0.440 OA
ATOM     12  C   LIG    1        1.329  -1.019  -0.386  0.00  0.00    +0.540 C 
ATOM     13  O   LIG    1        2.470  -0.648  -0.207  0.00  0.00    -0.440 OA
ENDROOT
BRANCH   6  14
ATOM     14  C   LIG    1       -0.767  -4.607   1.662  0.00  0.00    +0.270 C 
BRANCH  14  15
ATOM     15  C   LIG    1       -2.237  -4.678   2.081  0.00  0.00    +0.210 C 
BRANCH  15  16
ATOM     16  O   LIG    1       -2.773  -5.953   1.723  0.00  0.00    -0.580 OA
ATOM     17  H   LIG    1       -3.704  -6.069   1.959  0.00  0.00    +0.410 HD
ENDBRANCH  15  16
ENDBRANCH  14  15
ENDBRANCH   6  14
TORSDOF 3
ENDMDL
MODEL      116
REMARK  Name = ZINC000000895539
REMARK                            x       y       z     vdW  Elec       q    Type
REMARK                         _______ _______ _______ _____ _____    ______ ____
ROOT
ATOM      1  C   LIG    1       -1.136  -2.159   0.001  0.00  0.00    +0.230 C 
ATOM      2  C   LIG    1       -1.020  -2.661  -1.440  0.00  0.00    +0.340 C 
ATOM      3  O   LIG    1       -1.059  -4.089  -1.450  0.00  0.00    -0.360 OA
ATOM      4  C   LIG    1       -2.269  -4.644  -0.930  0.00  0.00    +0.170 C 
ATOM      5  C   LIG    1       -2.435  -4.221   0.532  0.00  0.00    +0.140 C 
ATOM      6  C   LIG    1       -2.433  -2.692   0.618  0.00  0.00    +0.210 C 
ENDROOT
BRANCH   1   9
ATOM      7  C   LIG    1       -0.018   1.503   0.010  0.00  0.00    +0.130 C 
ATOM      8  C   LIG    1        0.002  -0.004   0.002  0.00  0.00    +0.510 C 
ATOM      9  N   LIG    1       -1.156  -0.694   0.009  0.00  0.00    -0.720 N 
ATOM     10  H   LIG    1       -2.002  -0.220   0.020  0.00  0.00    +0.420 HD
ATOM     11  O   LIG    1        1.060  -0.596  -0.011  0.00  0.00    -0.550 OA
ENDBRANCH   1   9
BRANCH   2  12
ATOM     12  N   LIG    1        0.250  -2.201  -2.019  0.00  0.00    -0.620 N 
ATOM     13  H   LIG    1        0.277  -1.192  -2.011  0.00  0.00    +0.440 HD
ATOM     14  H   LIG    1        0.326  -2.532  -2.969  0.00  0.00    +0.440 HD
ATOM     15  H   LIG    1        1.018  -2.563  -1.474  0.00  0.00    +0.450 HD
ENDBRANCH   2  12
BRANCH   5  16
ATOM     16  O   LIG    1       -3.672  -4.727   1.038  0.00  0.00    -0.550 OA
ATOM     17  H   LIG    1       -3.744  -5.691   1.010  0.00  0.00    +0.400 HD
ENDBRANCH   5  16
BRANCH   6  18
ATOM     18  O   LIG    1       -2.516  -2.290   1.987  0.00  0.00    -0.540 OA
ATOM     19  H   LIG    1       -3.312  -2.599   2.440  0.00  0.00    +0.410 HD
ENDBRANCH   6  18
BRANCH   4  20
ATOM     20  C   LIG    1       -2.210  -6.170  -1.017  0.00  0.00    +0.230 C 
BRANCH  20  21
ATOM     21  O   LIG    1       -2.171  -6.568  -2.389  0.00  0.00    -0.570 OA
ATOM     22  H   LIG    1       -2.133  -7.525  -2.520  0.00  0.00    +0.400 HD
ENDBRANCH  20  21
ENDBRANCH   4  20
TORSDOF 6
ENDMDL
MODEL      117
REMARK  Name = ZINC000000897171
REMARK                            x       y       z     vdW  Elec       q    Type
REMARK                         _______ _______ _______ _____ _____    ______ ____
ROOT
ATOM      1  N   LIG    1       -2.163  -0.024  -1.319  0.00  0.00    -0.370 N 
ATOM      2  C   LIG    1       -1.430  -0.585  -2.461  0.00  0.00    +0.280 C 
ATOM      3  C   LIG    1       -2.170  -0.255  -3.759  0.00  0.00    +0.150 C 
ATOM      4  C   LIG    1       -3.576  -0.859  -3.706  0.00  0.00    +0.120 C 
ATOM      5  C   LIG    1       -4.305  -0.324  -2.470  0.00  0.00    +0.210 C 
ATOM      6  C   LIG    1       -3.485  -0.653  -1.220  0.00  0.00    +0.200 C 
ATOM      7  H   LIG    1       -2.273   0.971  -1.448  0.00  0.00    +0.440 HD
ENDROOT
BRANCH   5   8
ATOM      8  O   LIG    1       -5.592  -0.937  -2.373  0.00  0.00    -0.540 OA
ATOM      9  H   LIG    1       -6.165  -0.773  -3.134  0.00  0.00    +0.410 HD
ENDBRANCH   5   8
BRANCH   4  10
ATOM     10  O   LIG    1       -4.298  -0.494  -4.884  0.00  0.00    -0.550 OA
ATOM     11  H   LIG    1       -3.888  -0.797  -5.706  0.00  0.00    +0.400 HD
ENDBRANCH   4  10
BRANCH   3  12
ATOM     12  O   LIG    1       -1.455  -0.803  -4.868  0.00  0.00    -0.540 OA
ATOM     13  H   LIG    1       -1.868  -0.632  -5.725  0.00  0.00    +0.400 HD
ENDBRANCH   3  12
BRANCH   1  14
ATOM     14  C   LIG    1       -1.409  -0.276  -0.084  0.00  0.00    +0.290 C 
BRANCH  14  15
ATOM     15  C   LIG    1       -0.084   0.487  -0.130  0.00  0.00    +0.220 C 
BRANCH  15  16
ATOM     16  O   LIG    1       -0.343   1.893  -0.134  0.00  0.00    -0.580 OA
ATOM     17  H   LIG    1        0.453   2.440  -0.163  0.00  0.00    +0.410 HD
ENDBRANCH  15  16
ENDBRANCH  14  15
ENDBRANCH   1  14
BRANCH   6  18
ATOM     18  C   LIG    1       -4.208  -0.120   0.018  0.00  0.00    +0.240 C 
BRANCH  18  19
ATOM     19  O   LIG    1       -4.431   1.284  -0.128  0.00  0.00    -0.580 OA
ATOM     20  H   LIG    1       -4.887   1.690   0.622  0.00  0.00    +0.410 HD
ENDBRANCH  18  19
ENDBRANCH   6  18
TORSDOF 8
ENDMDL
MODEL      118
REMARK  Name = ZINC000409443591
REMARK                            x       y       z     vdW  Elec       q    Type
REMARK                         _______ _______ _______ _____ _____    ______ ____
ROOT
ATOM      1  C   LIG    1       -0.018   1.461   0.010  0.00  0.00    +0.380 C 
ATOM      2  N   LIG    1        0.002  -0.004   0.002  0.00  0.00    -0.520 N 
ATOM      3  C   LIG    1       -1.176  -0.685   0.004  0.00  0.00    +0.470 A 
ATOM      4  C   LIG    1       -1.162  -2.055  -0.004  0.00  0.00    -0.240 A 
ATOM      5  C   LIG    1        0.141  -2.737  -0.013  0.00  0.00    +0.570 A 
ATOM      6  N   LIG    1        1.263  -1.986  -0.015  0.00  0.00    -0.650 N 
ATOM      7  H   LIG    1        2.132  -2.417  -0.021  0.00  0.00    +0.440 HD
ATOM      8  O   LIG    1        0.207  -3.952  -0.021  0.00  0.00    -0.470 OA
ATOM      9  C   LIG    1        1.182  -0.644  -0.013  0.00  0.00    +0.690 A 
ATOM     10  O   LIG    1        2.208   0.009  -0.014  0.00  0.00    -0.510 OA
ENDROOT
BRANCH   4  11
ATOM     11  C   LIG    1       -2.418  -2.824  -0.002  0.00  0.00    +0.300 A 
ATOM     12  N   LIG    1       -2.539  -4.142  -0.003  0.00  0.00    -0.440 NA
ATOM     13  C   LIG    1       -3.859  -4.382  -0.000  0.00  0.00    +0.100 A 
ATOM     14  N   LIG    1       -4.468  -3.233   0.003  0.00  0.00    -0.350 NA
ATOM     15  O   LIG    1       -3.665  -2.325   0.007  0.00  0.00    +0.100 OA
BRANCH  13  16
ATOM     16  C   LIG    1       -4.517  -5.737   0.000  0.00  0.00    +0.440 C 
BRANCH  16  17
ATOM     17  N   LIG    1       -4.727  -6.179   1.385  0.00  0.00    -0.630 N 
ATOM     18  H   LIG    1       -5.320  -5.518   1.863  0.00  0.00    +0.440 HD
ATOM     19  H   LIG    1       -3.838  -6.237   1.859  0.00  0.00    +0.440 HD
ATOM     20  H   LIG    1       -5.167  -7.087   1.386  0.00  0.00    +0.450 HD
ENDBRANCH  16  17
ENDBRANCH  13  16
ENDBRANCH   4  11
TORSDOF 3
ENDMDL
MODEL      119
REMARK  Name = ZINC000022947453
REMARK                            x       y       z     vdW  Elec       q    Type
REMARK                         _______ _______ _______ _____ _____    ______ ____
ROOT
ATOM      1  C   LIG    1       -3.718  -4.841   0.378  0.00  0.00    +0.260 C 
ENDROOT
BRANCH   1   2
ATOM      2  N   LIG    1       -2.391  -4.225   0.248  0.00  0.00    -0.500 N 
ATOM      3  H   LIG    1       -1.836  -4.447   1.062  0.00  0.00    +0.430 HD
ATOM      4  H   LIG    1       -1.934  -4.582  -0.578  0.00  0.00    +0.430 HD
BRANCH   2   5
ATOM      5  C   LIG    1       -2.536  -2.768   0.137  0.00  0.00    +0.250 C 
BRANCH   5   6
ATOM      6  C   LIG    1       -1.154  -2.126   0.002  0.00  0.00    +0.210 C 
BRANCH   6   7
ATOM      7  O   LIG    1       -0.554  -2.542  -1.227  0.00  0.00    -0.540 OA
ATOM      8  H   LIG    1       -1.061  -2.297  -2.014  0.00  0.00    +0.390 HD
ENDBRANCH   6   7
BRANCH   6   9
ATOM      9  C   LIG    1       -1.295  -0.603   0.011  0.00  0.00    +0.160 C 
BRANCH   9  11
ATOM     10  C   LIG    1       -0.017   1.425   0.010  0.00  0.00    +0.230 C 
ATOM     11  O   LIG    1        0.002  -0.004   0.002  0.00  0.00    -0.380 OA
ENDBRANCH   9  11
ENDBRANCH   6   9
ENDBRANCH   5   6
ENDBRANCH   2   5
ENDBRANCH   1   2
BRANCH   1  12
ATOM     12  C   LIG    1       -3.567  -6.359   0.494  0.00  0.00    +0.180 C 
BRANCH  12  13
ATOM     13  N   LIG    1       -4.894  -6.975   0.624  0.00  0.00    -0.680 NA
ATOM     14  H   LIG    1       -5.398  -6.587   1.408  0.00  0.00    +0.360 HD
BRANCH  13  15
ATOM     15  C   LIG    1       -4.788  -8.436   0.738  0.00  0.00    +0.160 C 
BRANCH  15  16
ATOM     16  C   LIG    1       -6.187  -9.040   0.872  0.00  0.00    +0.230 C 
BRANCH  16  17
ATOM     17  O   LIG    1       -6.823  -8.517   2.039  0.00  0.00    -0.550 OA
ATOM     18  H   LIG    1       -6.351  -8.705   2.862  0.00  0.00    +0.370 HD
ENDBRANCH  16  17
BRANCH  16  19
ATOM     19  C   LIG    1       -6.077 -10.562   0.990  0.00  0.00    +0.140 C 
BRANCH  19  20
ATOM     20  O   LIG    1       -7.385 -11.135   0.998  0.00  0.00    -0.380 OA
ATOM     21  C   LIG    1       -7.395 -12.560   1.105  0.00  0.00    +0.200 C 
ENDBRANCH  19  20
ENDBRANCH  16  19
ENDBRANCH  15  16
ENDBRANCH  13  15
ENDBRANCH  12  13
ENDBRANCH   1  12
TORSDOF 13
ENDMDL
MODEL      120
REMARK  Name = ZINC000071533271
REMARK                            x       y       z     vdW  Elec       q    Type
REMARK                         _______ _______ _______ _____ _____    ______ ____
ROOT
ATOM      1  C   LIG    1        4.465   5.316  -1.703  0.00  0.00    +0.130 C 
ATOM      2  C   LIG    1        5.124   5.524  -0.337  0.00  0.00    +0.070 C 
ATOM      3  C   LIG    1        5.348   7.021  -0.108  0.00  0.00    +0.250 C 
ATOM      4  N   LIG    1        6.221   7.555  -1.160  0.00  0.00    -0.510 N 
ATOM      5  C   LIG    1        5.564   7.423  -2.466  0.00  0.00    +0.260 C 
ATOM      6  H   LIG    1        7.089   7.041  -1.169  0.00  0.00    +0.430 HD
ATOM      7  H   LIG    1        6.409   8.529  -0.976  0.00  0.00    +0.430 HD
ATOM      8  C   LIG    1        5.349   5.943  -2.786  0.00  0.00    +0.040 C 
ENDROOT
BRANCH   1   9
ATOM      9  O   LIG    1        3.179   5.939  -1.716  0.00  0.00    -0.540 OA
ATOM     10  H   LIG    1        3.202   6.891  -1.551  0.00  0.00    +0.370 HD
ENDBRANCH   1   9
BRANCH   1  11
ATOM     11  C   LIG    1        4.311   3.818  -1.973  0.00  0.00    +0.210 C 
BRANCH  11  17
ATOM     12  O   LIG    1        1.046  -0.492   0.826  0.00  0.00    -0.550 OA
ATOM     13  C   LIG    1        0.787   0.687   0.714  0.00  0.00    +0.620 C 
ATOM     14  N   LIG    1        1.777   1.579   0.513  0.00  0.00    -0.630 N 
ATOM     15  C   LIG    1        3.179   1.142   0.420  0.00  0.00    +0.280 C 
ATOM     16  C   LIG    1        3.790   1.735  -0.854  0.00  0.00    +0.170 C 
ATOM     17  N   LIG    1        3.591   3.191  -0.857  0.00  0.00    -0.530 NA
ATOM     18  C   LIG    1        2.163   3.533  -0.892  0.00  0.00    +0.190 C 
ATOM     19  C   LIG    1        1.485   3.014   0.375  0.00  0.00    +0.280 C 
ENDBRANCH  11  17
ENDBRANCH   1  11
TORSDOF 3
ENDMDL
MODEL      121
REMARK  Name = ZINC000002560955
REMARK                            x       y       z     vdW  Elec       q    Type
REMARK                         _______ _______ _______ _____ _____    ______ ____
ROOT
ATOM      1  C   LIG    1        0.780  -1.133   3.576  0.00  0.00    +0.190 C 
ENDROOT
BRANCH   1   4
ATOM      2  N   LIG    1        0.711  -0.489   1.189  0.00  0.00    -0.710 N 
ATOM      3  H   LIG    1        1.654  -0.707   1.135  0.00  0.00    +0.410 HD
ATOM      4  C   LIG    1        0.051  -0.633   2.355  0.00  0.00    +0.480 C 
ATOM      5  O   LIG    1       -1.129  -0.361   2.423  0.00  0.00    -0.540 OA
BRANCH   2   7
ATOM      6  C   LIG    1       -0.019   1.526   0.010  0.00  0.00    +0.070 C 
ATOM      7  C   LIG    1        0.002  -0.004   0.002  0.00  0.00    +0.240 C 
BRANCH   7   8
ATOM      8  C   LIG    1        0.707  -0.490  -1.238  0.00  0.00    +0.520 C 
ATOM      9  O   LIG    1        1.704  -1.174  -1.140  0.00  0.00    -0.540 OA
ATOM     10  N   LIG    1        0.231  -0.164  -2.456  0.00  0.00    -0.840 N 
ATOM     11  H   LIG    1        0.685  -0.477  -3.254  0.00  0.00    +0.410 HD
ATOM     12  H   LIG    1       -0.566   0.383  -2.534  0.00  0.00    +0.410 HD
ENDBRANCH   7   8
ENDBRANCH   2   7
ENDBRANCH   1   4
BRANCH   1  13
ATOM     13  N   LIG    1        0.028  -0.761   4.782  0.00  0.00    -0.820 NA
ATOM     14  H   LIG    1       -0.897  -1.164   4.770  0.00  0.00    +0.350 HD
ATOM     15  H   LIG    1       -0.017   0.242   4.886  0.00  0.00    +0.350 HD
ENDBRANCH   1  13
BRANCH   1  16
ATOM     16  C   LIG    1        0.910  -2.655   3.506  0.00  0.00    +0.050 C 
BRANCH  16  17
ATOM     17  C   LIG    1        1.757  -3.150   4.680  0.00  0.00    +0.060 C 
BRANCH  17  18
ATOM     18  C   LIG    1        1.887  -4.673   4.609  0.00  0.00    +0.270 C 
BRANCH  18  19
ATOM     19  N   LIG    1        2.698  -5.147   5.734  0.00  0.00    -0.690 N 
ATOM     20  H   LIG    1        3.055  -4.513   6.375  0.00  0.00    +0.440 HD
ATOM     21  C   LIG    1        2.951  -6.483   5.879  0.00  0.00    +0.740 C 
BRANCH  21  22
ATOM     22  N   LIG    1        3.688  -6.914   6.901  0.00  0.00    -0.800 N 
ATOM     23  H   LIG    1        4.046  -6.280   7.543  0.00  0.00    +0.440 HD
ATOM     24  H   LIG    1        3.868  -7.861   7.004  0.00  0.00    +0.440 HD
ENDBRANCH  21  22
BRANCH  21  25
ATOM     25  N   LIG    1        2.461  -7.354   4.998  0.00  0.00    -0.790 N 
ATOM     26  H   LIG    1        2.640  -8.301   5.101  0.00  0.00    +0.440 HD
ATOM     27  H   LIG    1        1.924  -7.040   4.254  0.00  0.00    +0.440 HD
ENDBRANCH  21  25
ENDBRANCH  18  19
ENDBRANCH  17  18
ENDBRANCH  16  17
ENDBRANCH   1  16
TORSDOF 10
ENDMDL
