MODEL        1
REMARK  Name = ZINC000004760502
REMARK                            x       y       z     vdW  Elec       q    Type
REMARK                         _______ _______ _______ _____ _____    ______ ____
ROOT
ATOM      1  N   LIG    1       -1.372  -0.511   0.012  0.00  0.00    -0.700 N 
ATOM      2  H   LIG    1       -1.810  -0.743  -0.822  0.00  0.00    +0.420 HD
ATOM      3  C   LIG    1       -2.029  -0.655   1.181  0.00  0.00    +0.510 C 
ATOM      4  O   LIG    1       -1.481  -0.365   2.224  0.00  0.00    -0.540 OA
ENDROOT
BRANCH   1   6
ATOM      5  C   LIG    1       -0.019   1.526   0.010  0.00  0.00    +0.070 C 
ATOM      6  C   LIG    1        0.002  -0.004   0.002  0.00  0.00    +0.240 C 
BRANCH   6   7
ATOM      7  C   LIG    1        0.707  -0.490  -1.238  0.00  0.00    +0.520 C 
ATOM      8  O   LIG    1        0.120  -1.191  -2.034  0.00  0.00    -0.540 OA
ATOM      9  N   LIG    1        1.991  -0.146  -1.462  0.00  0.00    -0.840 N 
ATOM     10  H   LIG    1        2.445  -0.459  -2.260  0.00  0.00    +0.410 HD
ATOM     11  H   LIG    1        2.461   0.415  -0.825  0.00  0.00    +0.410 HD
ENDBRANCH   6   7
ENDBRANCH   1   6
BRANCH   3  12
ATOM     12  C   LIG    1       -3.442  -1.177   1.191  0.00  0.00    +0.330 C 
BRANCH  12  13
ATOM     13  N   LIG    1       -3.929  -1.240   2.572  0.00  0.00    -0.690 N 
ATOM     14  H   LIG    1       -3.353  -0.966   3.302  0.00  0.00    +0.420 HD
ATOM     15  C   LIG    1       -5.177  -1.680   2.827  0.00  0.00    +0.500 C 
ATOM     16  O   LIG    1       -5.898  -2.023   1.913  0.00  0.00    -0.530 OA
BRANCH  15  17
ATOM     17  C   LIG    1       -5.678  -1.745   4.247  0.00  0.00    +0.320 C 
BRANCH  17  18
ATOM     18  N   LIG    1       -7.056  -2.254   4.257  0.00  0.00    -0.620 N 
ATOM     19  H   LIG    1       -7.077  -3.177   3.850  0.00  0.00    +0.440 HD
ATOM     20  H   LIG    1       -7.646  -1.636   3.720  0.00  0.00    +0.440 HD
ATOM     21  H   LIG    1       -7.391  -2.298   5.208  0.00  0.00    +0.450 HD
ENDBRANCH  17  18
ENDBRANCH  15  17
ENDBRANCH  12  13
ENDBRANCH   3  12
TORSDOF 6
ENDMDL
MODEL        2
REMARK  Name = ZINC000257225322
REMARK                            x       y       z     vdW  Elec       q    Type
REMARK                         _______ _______ _______ _____ _____    ______ ____
ROOT
ATOM      1  O   LIG    1        0.002  -0.004   0.002  0.00  0.00    -0.460 OA
ATOM      2  C   LIG    1       -0.014   1.214   0.009  0.00  0.00    +0.530 A 
ATOM      3  N   LIG    1       -1.188   1.878   0.029  0.00  0.00    -0.640 N 
ATOM      4  H   LIG    1       -2.022   1.384   0.038  0.00  0.00    +0.450 HD
ATOM      5  C   LIG    1       -1.206   3.224   0.037  0.00  0.00    +0.700 A 
ATOM      6  N   LIG    1       -0.062   3.932   0.024  0.00  0.00    -0.520 N 
ATOM      7  C   LIG    1        1.153   3.295   0.004  0.00  0.00    +0.280 A 
ATOM      8  O   LIG    1       -2.272   3.808   0.055  0.00  0.00    -0.510 OA
ATOM      9  C   LIG    1        1.199   1.946   0.001  0.00  0.00    -0.020 A 
ATOM     10  F   LIG    1        2.387   1.302  -0.018  0.00  0.00    -0.090 F 
ENDROOT
BRANCH   6  11
ATOM     11  C   LIG    1       -0.114   5.396   0.033  0.00  0.00    +0.300 C 
ATOM     12  C   LIG    1        0.634   5.966  -1.191  0.00  0.00    +0.300 C 
ATOM     13  N   LIG    1        1.304   7.191  -0.682  0.00  0.00    -0.510 N 
ATOM     14  C   LIG    1        1.781   6.811   0.672  0.00  0.00    +0.260 C 
ATOM     15  H   LIG    1        0.647   7.955  -0.626  0.00  0.00    +0.440 HD
ATOM     16  H   LIG    1        2.083   7.438  -1.274  0.00  0.00    +0.440 HD
ATOM     17  C   LIG    1        0.638   5.951   1.260  0.00  0.00    +0.190 C 
BRANCH  17  18
ATOM     18  O   LIG    1       -0.230   6.758   2.058  0.00  0.00    -0.540 OA
ATOM     19  H   LIG    1        0.203   7.169   2.818  0.00  0.00    +0.410 HD
ENDBRANCH  17  18
ENDBRANCH   6  11
TORSDOF 2
ENDMDL
MODEL        3
REMARK  Name = ZINC000257230001
REMARK                            x       y       z     vdW  Elec       q    Type
REMARK                         _______ _______ _______ _____ _____    ______ ____
ROOT
ATOM      1  C   LIG    1       -0.635   1.733  -0.291  0.00  0.00    +0.110 C 
ATOM      2  C   LIG    1       -0.405   0.247  -0.195  0.00  0.00    +0.510 C 
ATOM      3  N   LIG    1       -0.304  -0.494  -1.316  0.00  0.00    -0.620 N 
ATOM      4  C   LIG    1       -0.415   0.166  -2.601  0.00  0.00    +0.330 C 
ATOM      5  C   LIG    1       -1.893   0.179  -3.057  0.00  0.00    +0.220 C 
ATOM      6  N   LIG    1       -2.308  -1.125  -3.409  0.00  0.00    -0.360 N 
ATOM      7  C   LIG    1       -2.306  -2.089  -2.310  0.00  0.00    +0.290 C 
ATOM      8  C   LIG    1       -0.939  -2.727  -2.208  0.00  0.00    +0.010 C 
ATOM      9  H   LIG    1       -1.697  -1.469  -4.134  0.00  0.00    +0.420 HD
ATOM     10  C   LIG    1       -0.078  -1.948  -1.191  0.00  0.00    +0.330 C 
ATOM     11  O   LIG    1       -0.310  -0.282   0.892  0.00  0.00    -0.510 OA
ENDROOT
BRANCH   8  12
ATOM     12  C   LIG    1       -0.267  -2.696  -3.557  0.00  0.00    +0.480 C 
ATOM     13  O   LIG    1        0.821  -2.174  -3.680  0.00  0.00    -0.480 OA
ATOM     14  N   LIG    1       -0.876  -3.246  -4.626  0.00  0.00    -0.850 N 
ATOM     15  H   LIG    1       -0.444  -3.226  -5.494  0.00  0.00    +0.420 HD
ATOM     16  H   LIG    1       -1.746  -3.663  -4.527  0.00  0.00    +0.410 HD
ENDBRANCH   8  12
BRANCH   6  17
ATOM     17  C   LIG    1       -3.671  -1.048  -3.951  0.00  0.00    +0.290 C 
BRANCH  17  18
ATOM     18  C   LIG    1       -3.656  -0.261  -5.236  0.00  0.00    +0.510 C 
ATOM     19  O   LIG    1       -2.613   0.192  -5.658  0.00  0.00    -0.520 OA
ATOM     20  N   LIG    1       -4.802  -0.059  -5.916  0.00  0.00    -0.820 N 
ATOM     21  H   LIG    1       -4.793   0.448  -6.743  0.00  0.00    +0.430 HD
ATOM     22  H   LIG    1       -5.636  -0.421  -5.578  0.00  0.00    +0.420 HD
ENDBRANCH  17  18
ENDBRANCH   6  17
TORSDOF 3
ENDMDL
MODEL        4
REMARK  Name = ZINC000212511487
REMARK                            x       y       z     vdW  Elec       q    Type
REMARK                         _______ _______ _______ _____ _____    ______ ____
ROOT
ATOM      1  C   LIG    1        1.280   1.980   0.001  0.00  0.00    +0.050 C 
ENDROOT
BRANCH   1   3
ATOM      2  O   LIG    1        0.002  -0.004   0.002  0.00  0.00    -0.540 OA
ATOM      3  C   LIG    1       -0.014   1.209   0.009  0.00  0.00    +0.520 C 
ATOM      4  N   LIG    1       -1.191   1.867   0.018  0.00  0.00    -0.610 N 
ATOM      5  C   LIG    1       -1.236   3.337   0.020  0.00  0.00    +0.250 C 
ATOM      6  C   LIG    1       -2.182   3.793  -1.096  0.00  0.00    +0.210 C 
ATOM      7  O   LIG    1       -3.435   3.120  -0.956  0.00  0.00    -0.370 OA
ATOM      8  C   LIG    1       -3.354   1.699  -1.091  0.00  0.00    +0.230 C 
ATOM      9  C   LIG    1       -2.468   1.135   0.020  0.00  0.00    +0.260 C 
ENDBRANCH   1   3
BRANCH   1  10
ATOM     10  C   LIG    1        2.457   1.002  -0.016  0.00  0.00    +0.140 C 
ATOM     11  C   LIG    1        2.407   0.082   1.226  0.00  0.00    +0.060 C 
ATOM     12  C   LIG    1        3.899  -0.037   1.628  0.00  0.00    +0.280 C 
ATOM     13  N   LIG    1        4.434   1.321   1.356  0.00  0.00    -0.510 N 
ATOM     14  H   LIG    1        5.436   1.284   1.238  0.00  0.00    +0.440 HD
ATOM     15  H   LIG    1        4.196   1.947   2.110  0.00  0.00    +0.430 HD
ATOM     16  C   LIG    1        3.789   1.765   0.101  0.00  0.00    +0.300 C 
BRANCH  10  17
ATOM     17  O   LIG    1        2.436   0.222  -1.214  0.00  0.00    -0.550 OA
ATOM     18  H   LIG    1        1.629  -0.298  -1.330  0.00  0.00    +0.410 HD
ENDBRANCH  10  17
ENDBRANCH   1  10
TORSDOF 3
ENDMDL
MODEL        5
REMARK  Name = ZINC000212511558
REMARK                            x       y       z     vdW  Elec       q    Type
REMARK                         _______ _______ _______ _____ _____    ______ ____
ROOT
ATOM      1  C   LIG    1        1.280   1.980   0.001  0.00  0.00    +0.060 C 
ENDROOT
BRANCH   1   3
ATOM      2  O   LIG    1        0.002  -0.004   0.002  0.00  0.00    -0.540 OA
ATOM      3  C   LIG    1       -0.014   1.209   0.009  0.00  0.00    +0.520 C 
ATOM      4  N   LIG    1       -1.191   1.867   0.018  0.00  0.00    -0.610 N 
ATOM      5  C   LIG    1       -1.236   3.337   0.020  0.00  0.00    +0.250 C 
ATOM      6  C   LIG    1       -2.182   3.793  -1.096  0.00  0.00    +0.220 C 
ATOM      7  O   LIG    1       -3.435   3.120  -0.956  0.00  0.00    -0.370 OA
ATOM      8  C   LIG    1       -3.354   1.699  -1.091  0.00  0.00    +0.230 C 
ATOM      9  C   LIG    1       -2.468   1.135   0.020  0.00  0.00    +0.270 C 
ENDBRANCH   1   3
BRANCH   1  10
ATOM     10  C   LIG    1        2.457   1.002  -0.016  0.00  0.00    +0.140 C 
ATOM     11  C   LIG    1        2.494   0.211  -1.351  0.00  0.00    +0.060 C 
ATOM     12  C   LIG    1        3.997  -0.148  -1.459  0.00  0.00    +0.280 C 
ATOM     13  N   LIG    1        4.708   1.035  -0.930  0.00  0.00    -0.510 N 
ATOM     14  H   LIG    1        4.978   1.638  -1.693  0.00  0.00    +0.430 HD
ATOM     15  H   LIG    1        5.528   0.740  -0.422  0.00  0.00    +0.440 HD
ATOM     16  C   LIG    1        3.799   1.762  -0.025  0.00  0.00    +0.300 C 
BRANCH  10  17
ATOM     17  O   LIG    1        2.387   0.112   1.100  0.00  0.00    -0.550 OA
ATOM     18  H   LIG    1        1.579  -0.417   1.132  0.00  0.00    +0.410 HD
ENDBRANCH  10  17
ENDBRANCH   1  10
TORSDOF 3
ENDMDL
MODEL        6
REMARK  Name = ZINC000067897702
REMARK                            x       y       z     vdW  Elec       q    Type
REMARK                         _______ _______ _______ _____ _____    ______ ____
ROOT
ATOM      1  N   LIG    1       -1.376  -0.512   0.012  0.00  0.00    -0.380 N 
ATOM      2  C   LIG    1       -2.098  -0.019  -1.180  0.00  0.00    +0.260 C 
ATOM      3  C   LIG    1       -3.010  -1.190  -1.604  0.00  0.00    +0.240 C 
ATOM      4  C   LIG    1       -2.139  -2.423  -1.285  0.00  0.00    +0.200 C 
ATOM      5  O   LIG    1       -1.209  -2.642  -2.349  0.00  0.00    -0.360 OA
ATOM      6  C   LIG    1       -1.815  -2.971  -3.599  0.00  0.00    +0.320 C 
ATOM      7  C   LIG    1       -2.828  -1.914  -3.949  0.00  0.00    +0.500 C 
ATOM      8  O   LIG    1       -3.175  -1.782  -5.104  0.00  0.00    -0.500 OA
ATOM      9  N   LIG    1       -3.346  -1.097  -3.011  0.00  0.00    -0.590 N 
ATOM     10  C   LIG    1       -1.361  -1.986  -0.027  0.00  0.00    +0.300 C 
ATOM     11  H   LIG    1       -1.848  -0.200   0.848  0.00  0.00    +0.430 HD
ENDROOT
BRANCH   1  13
ATOM     12  C   LIG    1       -0.019   1.526   0.010  0.00  0.00    +0.090 C 
ATOM     13  C   LIG    1        0.002  -0.004   0.002  0.00  0.00    +0.160 C 
ATOM     14  C   LIG    1        0.742  -0.511   1.242  0.00  0.00    +0.090 C 
ENDBRANCH   1  13
BRANCH   9  15
ATOM     15  C   LIG    1       -4.328  -0.096  -3.434  0.00  0.00    +0.320 C 
BRANCH  15  16
ATOM     16  C   LIG    1       -5.713  -0.684  -3.348  0.00  0.00    +0.500 C 
ATOM     17  O   LIG    1       -5.865  -1.826  -2.970  0.00  0.00    -0.540 OA
ATOM     18  N   LIG    1       -6.783   0.060  -3.691  0.00  0.00    -0.850 N 
ATOM     19  H   LIG    1       -7.675  -0.318  -3.636  0.00  0.00    +0.410 HD
ATOM     20  H   LIG    1       -6.662   0.974  -3.994  0.00  0.00    +0.410 HD
ENDBRANCH  15  16
ENDBRANCH   9  15
TORSDOF 3
ENDMDL
MODEL        7
REMARK  Name = ZINC000096054467
REMARK                            x       y       z     vdW  Elec       q    Type
REMARK                         _______ _______ _______ _____ _____    ______ ____
ROOT
ATOM      1  C   LIG    1        0.633  -2.085   1.012  0.00  0.00    +0.520 C 
ATOM      2  N   LIG    1        1.208  -2.846   1.964  0.00  0.00    -0.610 N 
ATOM      3  C   LIG    1        1.869  -2.212   3.115  0.00  0.00    +0.260 C 
ATOM      4  C   LIG    1        1.330  -2.893   4.381  0.00  0.00    +0.250 C 
ATOM      5  O   LIG    1        1.558  -4.296   4.267  0.00  0.00    -0.370 OA
ATOM      6  C   LIG    1        0.854  -4.957   3.215  0.00  0.00    +0.200 C 
ATOM      7  C   LIG    1        1.482  -6.364   3.058  0.00  0.00    +0.300 C 
ATOM      8  N   LIG    1        2.523  -6.263   2.020  0.00  0.00    -0.510 N 
ATOM      9  C   LIG    1        2.571  -4.866   1.534  0.00  0.00    +0.270 C 
ATOM     10  H   LIG    1        2.299  -6.880   1.253  0.00  0.00    +0.440 HD
ATOM     11  H   LIG    1        3.418  -6.518   2.410  0.00  0.00    +0.440 HD
ATOM     12  C   LIG    1        1.170  -4.297   1.859  0.00  0.00    +0.240 C 
ATOM     13  O   LIG    1        0.084  -2.609   0.067  0.00  0.00    -0.490 OA
ENDROOT
BRANCH   1  14
ATOM     14  C   LIG    1        0.673  -0.582   1.123  0.00  0.00    +0.220 C 
BRANCH  14  16
ATOM     15  C   LIG    1       -0.017   1.425   0.010  0.00  0.00    +0.230 C 
ATOM     16  O   LIG    1        0.002  -0.004   0.002  0.00  0.00    -0.370 OA
ENDBRANCH  14  16
ENDBRANCH   1  14
TORSDOF 2
ENDMDL
MODEL        8
REMARK  Name = ZINC000090397513
REMARK                            x       y       z     vdW  Elec       q    Type
REMARK                         _______ _______ _______ _____ _____    ______ ____
ROOT
ATOM      1  O   LIG    1        0.002  -0.004   0.002  0.00  0.00    -0.520 OA
ATOM      2  C   LIG    1       -0.014   1.212   0.009  0.00  0.00    +0.690 A 
ATOM      3  N   LIG    1       -1.194   1.859   0.029  0.00  0.00    -0.640 N 
ATOM      4  H   LIG    1       -2.020   1.351   0.037  0.00  0.00    +0.440 HD
ATOM      5  C   LIG    1       -1.238   3.226   0.037  0.00  0.00    +0.370 A 
ATOM      6  C   LIG    1       -0.088   3.933   0.025  0.00  0.00    -0.280 A 
ATOM      7  C   LIG    1        1.146   3.239   0.004  0.00  0.00    +0.560 A 
ATOM      8  O   LIG    1        2.197   3.855  -0.008  0.00  0.00    -0.490 OA
ATOM      9  N   LIG    1        1.147   1.891   0.001  0.00  0.00    -0.660 N 
ATOM     10  H   LIG    1        1.989   1.409  -0.013  0.00  0.00    +0.440 HD
ENDROOT
BRANCH   6  11
ATOM     11  C   LIG    1       -0.117   5.440   0.035  0.00  0.00    +0.310 C 
BRANCH  11  12
ATOM     12  N   LIG    1        0.014   5.923   1.415  0.00  0.00    -0.550 NA
ATOM     13  C   LIG    1       -0.821   5.121   2.341  0.00  0.00    +0.170 C 
ATOM     14  C   LIG    1       -0.236   5.226   3.726  0.00  0.00    +0.070 C 
ATOM     15  C   LIG    1       -0.858   6.368   4.546  0.00  0.00    +0.250 C 
ATOM     16  N   LIG    1       -1.053   7.601   3.751  0.00  0.00    -0.510 N 
ATOM     17  C   LIG    1        0.070   7.876   2.885  0.00  0.00    +0.260 C 
ATOM     18  H   LIG    1       -1.178   8.380   4.380  0.00  0.00    +0.430 HD
ATOM     19  H   LIG    1       -1.884   7.499   3.188  0.00  0.00    +0.420 HD
ATOM     20  C   LIG    1       -0.233   7.298   1.491  0.00  0.00    +0.210 C 
ENDBRANCH  11  12
ENDBRANCH   6  11
TORSDOF 2
ENDMDL
MODEL        9
REMARK  Name = ZINC000077264106
REMARK                            x       y       z     vdW  Elec       q    Type
REMARK                         _______ _______ _______ _____ _____    ______ ____
ROOT
ATOM      1  C   LIG    1        2.766  -4.717  -3.423  0.00  0.00    +0.140 C 
ATOM      2  O   LIG    1        4.196  -4.740  -3.221  0.00  0.00    -0.350 OA
ATOM      3  C   LIG    1        4.664  -5.899  -3.946  0.00  0.00    +0.260 C 
ATOM      4  C   LIG    1        3.606  -6.990  -3.671  0.00  0.00    +0.150 C 
ATOM      5  C   LIG    1        2.327  -6.195  -3.321  0.00  0.00    +0.160 C 
ENDROOT
BRANCH   4   6
ATOM      6  N   LIG    1        4.019  -7.834  -2.542  0.00  0.00    -0.500 N 
ATOM      7  H   LIG    1        4.035  -7.281  -1.697  0.00  0.00    +0.430 HD
ATOM      8  H   LIG    1        4.940  -8.205  -2.718  0.00  0.00    +0.430 HD
BRANCH   6   9
ATOM      9  C   LIG    1        3.067  -8.941  -2.384  0.00  0.00    +0.160 C 
ATOM     10  C   LIG    1        3.409  -9.732  -1.120  0.00  0.00    +0.090 C 
ATOM     11  C   LIG    1        3.151  -9.864  -3.601  0.00  0.00    +0.090 C 
ENDBRANCH   6   9
ENDBRANCH   4   6
BRANCH   5  12
ATOM     12  O   LIG    1        1.287  -6.480  -4.259  0.00  0.00    -0.540 OA
ATOM     13  H   LIG    1        0.461  -6.008  -4.086  0.00  0.00    +0.410 HD
ENDBRANCH   5  12
BRANCH   1  14
ATOM     14  C   LIG    1        2.088  -3.883  -2.334  0.00  0.00    +0.300 C 
BRANCH  14  16
ATOM     15  C   LIG    1        1.970  -1.548  -1.648  0.00  0.00    +0.520 C 
ATOM     16  N   LIG    1        2.454  -2.474  -2.500  0.00  0.00    -0.730 N 
ATOM     17  H   LIG    1        3.044  -2.208  -3.222  0.00  0.00    +0.410 HD
ATOM     18  O   LIG    1        1.233  -1.881  -0.745  0.00  0.00    -0.510 OA
BRANCH  15  19
ATOM     19  C   LIG    1        2.346  -0.099  -1.818  0.00  0.00    +0.200 C 
BRANCH  19  21
ATOM     20  C   LIG    1        2.005   2.077  -0.872  0.00  0.00    +0.230 C 
ATOM     21  O   LIG    1        1.713   0.680  -0.801  0.00  0.00    -0.370 OA
ENDBRANCH  19  21
ENDBRANCH  15  19
ENDBRANCH  14  16
ENDBRANCH   1  14
TORSDOF 7
ENDMDL
MODEL       10
REMARK  Name = ZINC000077264099
REMARK                            x       y       z     vdW  Elec       q    Type
REMARK                         _______ _______ _______ _____ _____    ______ ____
ROOT
ATOM      1  C   LIG    1        1.888  -4.926   3.057  0.00  0.00    +0.160 C 
ATOM      2  O   LIG    1        1.152  -4.653   4.261  0.00  0.00    -0.330 OA
ATOM      3  C   LIG    1        0.269  -5.774   4.479  0.00  0.00    +0.260 C 
ATOM      4  C   LIG    1        1.138  -6.999   4.097  0.00  0.00    +0.160 C 
ATOM      5  C   LIG    1        1.955  -6.457   2.895  0.00  0.00    +0.170 C 
ENDROOT
BRANCH   4   6
ATOM      6  N   LIG    1        0.297  -8.133   3.692  0.00  0.00    -0.380 N 
ATOM      7  C   LIG    1       -0.562  -8.532   4.815  0.00  0.00    +0.330 C 
ATOM      8  C   LIG    1        1.151  -9.263   3.304  0.00  0.00    +0.330 C 
ATOM      9  H   LIG    1       -0.279  -7.862   2.908  0.00  0.00    +0.430 HD
ENDBRANCH   4   6
BRANCH   5  10
ATOM     10  O   LIG    1        3.308  -6.914   2.962  0.00  0.00    -0.540 OA
ATOM     11  H   LIG    1        3.864  -6.605   2.235  0.00  0.00    +0.410 HD
ENDBRANCH   5  10
BRANCH   1  12
ATOM     12  C   LIG    1        1.169  -4.307   1.857  0.00  0.00    +0.260 C 
BRANCH  12  14
ATOM     13  C   LIG    1        0.633  -2.085   1.012  0.00  0.00    +0.520 C 
ATOM     14  N   LIG    1        1.208  -2.846   1.964  0.00  0.00    -0.730 N 
ATOM     15  H   LIG    1        1.647  -2.427   2.721  0.00  0.00    +0.410 HD
ATOM     16  O   LIG    1        0.084  -2.609   0.067  0.00  0.00    -0.510 OA
BRANCH  13  17
ATOM     17  C   LIG    1        0.673  -0.582   1.123  0.00  0.00    +0.200 C 
BRANCH  17  19
ATOM     18  C   LIG    1       -0.017   1.425   0.010  0.00  0.00    +0.230 C 
ATOM     19  O   LIG    1        0.002  -0.004   0.002  0.00  0.00    -0.370 OA
ENDBRANCH  17  19
ENDBRANCH  13  17
ENDBRANCH  12  14
ENDBRANCH   1  12
TORSDOF 6
ENDMDL
MODEL       11
REMARK  Name = ZINC000257256722
REMARK                            x       y       z     vdW  Elec       q    Type
REMARK                         _______ _______ _______ _____ _____    ______ ____
ROOT
ATOM      1  C   LIG    1        1.888  -4.926   3.057  0.00  0.00    +0.120 C 
ATOM      2  C   LIG    1        3.311  -4.367   3.146  0.00  0.00    +0.050 C 
ATOM      3  C   LIG    1        4.049  -5.048   4.300  0.00  0.00    +0.270 C 
ATOM      4  N   LIG    1        4.105  -6.496   4.063  0.00  0.00    -0.500 N 
ATOM      5  C   LIG    1        2.746  -7.051   4.048  0.00  0.00    +0.250 C 
ATOM      6  H   LIG    1        4.638  -6.936   4.798  0.00  0.00    +0.440 HD
ATOM      7  H   LIG    1        4.550  -6.673   3.175  0.00  0.00    +0.430 HD
ATOM      8  C   LIG    1        1.957  -6.446   2.884  0.00  0.00    +0.210 C 
ENDROOT
BRANCH   1   9
ATOM      9  O   LIG    1        1.174  -4.614   4.255  0.00  0.00    -0.540 OA
ATOM     10  H   LIG    1        1.093  -3.666   4.429  0.00  0.00    +0.390 HD
ENDBRANCH   1   9
BRANCH   8  11
ATOM     11  O   LIG    1        0.634  -6.987   2.872  0.00  0.00    -0.520 OA
ATOM     12  H   LIG    1        0.603  -7.948   2.769  0.00  0.00    +0.400 HD
ENDBRANCH   8  11
BRANCH   1  13
ATOM     13  C   LIG    1        1.169  -4.307   1.857  0.00  0.00    +0.280 C 
BRANCH  13  15
ATOM     14  C   LIG    1        0.633  -2.085   1.012  0.00  0.00    +0.520 C 
ATOM     15  N   LIG    1        1.208  -2.846   1.964  0.00  0.00    -0.740 N 
ATOM     16  H   LIG    1        1.647  -2.427   2.721  0.00  0.00    +0.400 HD
ATOM     17  O   LIG    1        0.084  -2.609   0.067  0.00  0.00    -0.500 OA
BRANCH  14  18
ATOM     18  C   LIG    1        0.673  -0.582   1.123  0.00  0.00    +0.200 C 
BRANCH  18  20
ATOM     19  C   LIG    1       -0.017   1.425   0.010  0.00  0.00    +0.230 C 
ATOM     20  O   LIG    1        0.002  -0.004   0.002  0.00  0.00    -0.370 OA
ENDBRANCH  18  20
ENDBRANCH  14  18
ENDBRANCH  13  15
ENDBRANCH   1  13
TORSDOF 6
ENDMDL
MODEL       12
REMARK  Name = ZINC000222550300
REMARK                            x       y       z     vdW  Elec       q    Type
REMARK                         _______ _______ _______ _____ _____    ______ ____
ROOT
ATOM      1  C   LIG    1        2.795  -0.825  -2.739  0.00  0.00    +0.150 C 
ATOM      2  C   LIG    1        4.307  -0.535  -2.898  0.00  0.00    +0.100 C 
ATOM      3  C   LIG    1        4.862  -1.892  -3.288  0.00  0.00    +0.030 C 
ATOM      4  N   LIG    1        3.981  -2.778  -3.029  0.00  0.00    -0.280 NA
ATOM      5  O   LIG    1        2.799  -2.241  -2.468  0.00  0.00    -0.150 OA
ENDROOT
BRANCH   1   6
ATOM      6  C   LIG    1        2.207  -0.042  -1.563  0.00  0.00    +0.310 C 
BRANCH   6   7
ATOM      7  N   LIG    1        0.796  -0.399  -1.397  0.00  0.00    -1.120 NA
ATOM      8  H   LIG    1        0.327  -0.866  -2.105  0.00  0.00    +0.420 HD
BRANCH   7  10
ATOM      9  C   LIG    1       -0.022   1.810   0.012  0.00  0.00    -0.280 C 
ATOM     10  S   LIG    1        0.002  -0.004   0.002  0.00  0.00    +2.620 S 
ATOM     11  O   LIG    1       -1.309  -0.519  -0.182  0.00  0.00    -0.950 OA
ATOM     12  O   LIG    1        0.845  -0.497   1.035  0.00  0.00    -0.950 OA
ENDBRANCH   7  10
ENDBRANCH   6   7
ENDBRANCH   1   6
BRANCH   3  13
ATOM     13  C   LIG    1        6.223  -2.149  -3.883  0.00  0.00    +0.420 C 
BRANCH  13  14
ATOM     14  N   LIG    1        6.388  -3.589  -4.122  0.00  0.00    -0.640 N 
ATOM     15  H   LIG    1        7.299  -3.761  -4.520  0.00  0.00    +0.450 HD
ATOM     16  H   LIG    1        5.675  -3.908  -4.762  0.00  0.00    +0.440 HD
ATOM     17  H   LIG    1        6.303  -4.087  -3.249  0.00  0.00    +0.440 HD
ENDBRANCH  13  14
ENDBRANCH   3  13
TORSDOF 5
ENDMDL
MODEL       13
REMARK  Name = ZINC000222550229
REMARK                            x       y       z     vdW  Elec       q    Type
REMARK                         _______ _______ _______ _____ _____    ______ ____
ROOT
ATOM      1  C   LIG    1        2.795  -0.825  -2.739  0.00  0.00    +0.150 C 
ATOM      2  C   LIG    1        4.300  -0.508  -2.920  0.00  0.00    +0.100 C 
ATOM      3  C   LIG    1        4.451  -0.486  -4.429  0.00  0.00    +0.030 C 
ATOM      4  N   LIG    1        3.289  -0.410  -4.951  0.00  0.00    -0.280 NA
ATOM      5  O   LIG    1        2.250  -0.363  -3.992  0.00  0.00    -0.160 OA
ENDROOT
BRANCH   1   6
ATOM      6  C   LIG    1        2.207  -0.042  -1.563  0.00  0.00    +0.310 C 
BRANCH   6   7
ATOM      7  N   LIG    1        0.796  -0.399  -1.397  0.00  0.00    -1.120 NA
ATOM      8  H   LIG    1        0.327  -0.866  -2.105  0.00  0.00    +0.420 HD
BRANCH   7  10
ATOM      9  C   LIG    1       -0.022   1.810   0.012  0.00  0.00    -0.280 C 
ATOM     10  S   LIG    1        0.002  -0.004   0.002  0.00  0.00    +2.620 S 
ATOM     11  O   LIG    1       -1.309  -0.519  -0.182  0.00  0.00    -0.950 OA
ATOM     12  O   LIG    1        0.845  -0.497   1.035  0.00  0.00    -0.950 OA
ENDBRANCH   7  10
ENDBRANCH   6   7
ENDBRANCH   1   6
BRANCH   3  13
ATOM     13  C   LIG    1        5.754  -0.546  -5.184  0.00  0.00    +0.420 C 
BRANCH  13  14
ATOM     14  N   LIG    1        5.486  -0.502  -6.627  0.00  0.00    -0.640 N 
ATOM     15  H   LIG    1        6.358  -0.542  -7.133  0.00  0.00    +0.450 HD
ATOM     16  H   LIG    1        5.005   0.356  -6.854  0.00  0.00    +0.440 HD
ATOM     17  H   LIG    1        4.910  -1.289  -6.887  0.00  0.00    +0.440 HD
ENDBRANCH  13  14
ENDBRANCH   3  13
TORSDOF 5
ENDMDL
MODEL       14
REMARK  Name = ZINC000090715615
REMARK                            x       y       z     vdW  Elec       q    Type
REMARK                         _______ _______ _______ _____ _____    ______ ____
ROOT
ATOM      1  C   LIG    1        0.002  -0.004   0.002  0.00  0.00    +0.690 A 
ATOM      2  N   LIG    1       -1.140  -0.684   0.004  0.00  0.00    -0.590 NA
ATOM      3  C   LIG    1       -1.122  -2.014  -0.004  0.00  0.00    +0.640 A 
ATOM      4  N   LIG    1        0.038  -2.663  -0.013  0.00  0.00    -0.610 NA
ATOM      5  C   LIG    1        1.180  -1.982  -0.015  0.00  0.00    +0.700 A 
ATOM      6  N   LIG    1        1.162  -0.653  -0.013  0.00  0.00    -0.630 N 
ATOM      7  H   LIG    1        1.996  -0.157  -0.014  0.00  0.00    +0.440 HD
ENDROOT
BRANCH   3   8
ATOM      8  N   LIG    1       -2.308  -2.720  -0.002  0.00  0.00    -0.430 N 
ATOM      9  C   LIG    1       -3.149  -2.333   1.138  0.00  0.00    +0.250 C 
ATOM     10  C   LIG    1       -4.509  -3.025   1.028  0.00  0.00    +0.070 C 
ATOM     11  C   LIG    1       -4.305  -4.543   1.012  0.00  0.00    +0.160 C 
ATOM     12  C   LIG    1       -3.386  -4.914  -0.155  0.00  0.00    +0.020 C 
ATOM     13  C   LIG    1       -2.058  -4.167  -0.011  0.00  0.00    +0.230 C 
BRANCH  11  14
ATOM     14  O   LIG    1       -5.567  -5.193   0.853  0.00  0.00    -0.560 OA
ATOM     15  H   LIG    1       -5.513  -6.158   0.834  0.00  0.00    +0.390 HD
ENDBRANCH  11  14
ENDBRANCH   3   8
BRANCH   1  16
ATOM     16  N   LIG    1       -0.017   1.376   0.010  0.00  0.00    -0.770 N 
ATOM     17  H   LIG    1       -0.863   1.849   0.016  0.00  0.00    +0.450 HD
ATOM     18  H   LIG    1        0.817   1.872   0.004  0.00  0.00    +0.430 HD
ENDBRANCH   1  16
BRANCH   5  19
ATOM     19  N   LIG    1        2.385  -2.656  -0.025  0.00  0.00    -0.770 N 
ATOM     20  H   LIG    1        3.218  -2.160  -0.026  0.00  0.00    +0.430 HD
ATOM     21  H   LIG    1        2.398  -3.626  -0.030  0.00  0.00    +0.450 HD
ENDBRANCH   5  19
TORSDOF 4
ENDMDL
MODEL       15
REMARK  Name = ZINC000003831134
REMARK                            x       y       z     vdW  Elec       q    Type
REMARK                         _______ _______ _______ _____ _____    ______ ____
ROOT
ATOM      1  N   LIG    1       -2.011  -0.089  -1.316  0.00  0.00    -0.370 N 
ATOM      2  C   LIG    1       -2.060   1.373  -1.442  0.00  0.00    +0.280 C 
ATOM      3  C   LIG    1       -2.605   1.751  -2.821  0.00  0.00    +0.160 C 
ATOM      4  C   LIG    1       -4.015   1.176  -2.982  0.00  0.00    +0.120 C 
ATOM      5  C   LIG    1       -3.964  -0.340  -2.775  0.00  0.00    +0.210 C 
ATOM      6  C   LIG    1       -3.369  -0.640  -1.397  0.00  0.00    +0.180 C 
ATOM      7  H   LIG    1       -1.449  -0.471  -2.062  0.00  0.00    +0.450 HD
ENDROOT
BRANCH   5   8
ATOM      8  O   LIG    1       -5.286  -0.878  -2.852  0.00  0.00    -0.520 OA
ATOM      9  H   LIG    1       -5.726  -0.720  -3.698  0.00  0.00    +0.400 HD
ENDBRANCH   5   8
BRANCH   4  10
ATOM     10  O   LIG    1       -4.502   1.464  -4.294  0.00  0.00    -0.550 OA
ATOM     11  H   LIG    1       -4.556   2.409  -4.495  0.00  0.00    +0.400 HD
ENDBRANCH   4  10
BRANCH   3  12
ATOM     12  O   LIG    1       -1.752   1.217  -3.835  0.00  0.00    -0.560 OA
ATOM     13  H   LIG    1       -2.038   1.419  -4.736  0.00  0.00    +0.410 HD
ENDBRANCH   3  12
BRANCH   1  14
ATOM     14  C   LIG    1       -1.415  -0.448  -0.022  0.00  0.00    +0.280 C 
BRANCH  14  15
ATOM     15  C   LIG    1       -1.223  -1.964   0.048  0.00  0.00    +0.210 C 
BRANCH  15  16
ATOM     16  O   LIG    1       -0.295  -2.374  -0.959  0.00  0.00    -0.580 OA
ATOM     17  H   LIG    1       -0.125  -3.326  -0.973  0.00  0.00    +0.410 HD
ENDBRANCH  15  16
ENDBRANCH  14  15
ENDBRANCH   1  14
BRANCH   6  18
ATOM     18  C   LIG    1       -4.244  -0.005  -0.315  0.00  0.00    +0.190 C 
BRANCH  18  19
ATOM     19  O   LIG    1       -5.577  -0.506  -0.425  0.00  0.00    -0.530 OA
ATOM     20  H   LIG    1       -6.189  -0.145   0.231  0.00  0.00    +0.400 HD
ENDBRANCH  18  19
ENDBRANCH   6  18
TORSDOF 8
ENDMDL
MODEL       16
REMARK  Name = ZINC000004165550
REMARK                            x       y       z     vdW  Elec       q    Type
REMARK                         _______ _______ _______ _____ _____    ______ ____
ROOT
ATOM      1  N   LIG    1       -2.143  -0.050  -1.126  0.00  0.00    -0.360 N 
ATOM      2  C   LIG    1       -2.157   1.418  -1.118  0.00  0.00    +0.290 C 
ATOM      3  C   LIG    1       -2.849   1.918   0.152  0.00  0.00    +0.160 C 
ATOM      4  C   LIG    1       -4.287   1.393   0.183  0.00  0.00    +0.110 C 
ATOM      5  C   LIG    1       -4.264  -0.136   0.100  0.00  0.00    +0.220 C 
ATOM      6  C   LIG    1       -3.520  -0.559  -1.167  0.00  0.00    +0.190 C 
ATOM      7  H   LIG    1       -1.641  -0.377  -1.938  0.00  0.00    +0.430 HD
ENDROOT
BRANCH   5   8
ATOM      8  O   LIG    1       -5.603  -0.632   0.057  0.00  0.00    -0.540 OA
ATOM      9  H   LIG    1       -6.135  -0.397   0.829  0.00  0.00    +0.400 HD
ENDBRANCH   5   8
BRANCH   4  10
ATOM     10  O   LIG    1       -5.014   1.923  -0.927  0.00  0.00    -0.540 OA
ATOM     11  H   LIG    1       -5.064   2.889  -0.940  0.00  0.00    +0.400 HD
ENDBRANCH   4  10
BRANCH   3  12
ATOM     12  O   LIG    1       -2.862   3.347   0.156  0.00  0.00    -0.540 OA
ATOM     13  H   LIG    1       -3.286   3.734   0.934  0.00  0.00    +0.400 HD
ENDBRANCH   3  12
BRANCH   1  14
ATOM     14  C   LIG    1       -1.478  -0.539   0.089  0.00  0.00    +0.270 C 
BRANCH  14  15
ATOM     15  C   LIG    1       -0.024  -0.063   0.101  0.00  0.00    +0.220 C 
BRANCH  15  16
ATOM     16  O   LIG    1        0.012   1.352   0.295  0.00  0.00    -0.570 OA
ATOM     17  H   LIG    1        0.905   1.724   0.314  0.00  0.00    +0.400 HD
ENDBRANCH  15  16
ENDBRANCH  14  15
ENDBRANCH   1  14
BRANCH   6  18
ATOM     18  C   LIG    1       -3.493  -2.086  -1.256  0.00  0.00    +0.250 C 
BRANCH  18  19
ATOM     19  O   LIG    1       -2.991  -2.626  -0.031  0.00  0.00    -0.570 OA
ATOM     20  H   LIG    1       -2.946  -3.591  -0.016  0.00  0.00    +0.410 HD
ENDBRANCH  18  19
ENDBRANCH   6  18
TORSDOF 8
ENDMDL
MODEL       17
REMARK  Name = ZINC000003831133
REMARK                            x       y       z     vdW  Elec       q    Type
REMARK                         _______ _______ _______ _____ _____    ______ ____
ROOT
ATOM      1  N   LIG    1       -2.011  -0.089  -1.316  0.00  0.00    -0.370 N 
ATOM      2  C   LIG    1       -2.060   1.373  -1.442  0.00  0.00    +0.280 C 
ATOM      3  C   LIG    1       -2.605   1.751  -2.821  0.00  0.00    +0.150 C 
ATOM      4  C   LIG    1       -4.015   1.176  -2.982  0.00  0.00    +0.120 C 
ATOM      5  C   LIG    1       -3.964  -0.340  -2.775  0.00  0.00    +0.200 C 
ATOM      6  C   LIG    1       -3.369  -0.640  -1.397  0.00  0.00    +0.180 C 
ATOM      7  H   LIG    1       -1.449  -0.471  -2.062  0.00  0.00    +0.440 HD
ENDROOT
BRANCH   5   8
ATOM      8  O   LIG    1       -5.286  -0.878  -2.852  0.00  0.00    -0.520 OA
ATOM      9  H   LIG    1       -5.726  -0.720  -3.698  0.00  0.00    +0.400 HD
ENDBRANCH   5   8
BRANCH   4  10
ATOM     10  O   LIG    1       -4.502   1.464  -4.294  0.00  0.00    -0.550 OA
ATOM     11  H   LIG    1       -4.556   2.409  -4.495  0.00  0.00    +0.390 HD
ENDBRANCH   4  10
BRANCH   3  12
ATOM     12  O   LIG    1       -2.653   3.175  -2.940  0.00  0.00    -0.540 OA
ATOM     13  H   LIG    1       -2.990   3.487  -3.791  0.00  0.00    +0.400 HD
ENDBRANCH   3  12
BRANCH   1  14
ATOM     14  C   LIG    1       -1.415  -0.448  -0.022  0.00  0.00    +0.290 C 
BRANCH  14  15
ATOM     15  C   LIG    1       -1.223  -1.964   0.048  0.00  0.00    +0.210 C 
BRANCH  15  16
ATOM     16  O   LIG    1       -0.295  -2.374  -0.959  0.00  0.00    -0.580 OA
ATOM     17  H   LIG    1       -0.125  -3.326  -0.973  0.00  0.00    +0.410 HD
ENDBRANCH  15  16
ENDBRANCH  14  15
ENDBRANCH   1  14
BRANCH   6  18
ATOM     18  C   LIG    1       -4.244  -0.005  -0.315  0.00  0.00    +0.200 C 
BRANCH  18  19
ATOM     19  O   LIG    1       -5.577  -0.506  -0.425  0.00  0.00    -0.530 OA
ATOM     20  H   LIG    1       -6.189  -0.145   0.231  0.00  0.00    +0.400 HD
ENDBRANCH  18  19
ENDBRANCH   6  18
TORSDOF 8
ENDMDL
MODEL       18
REMARK  Name = ZINC000011592756
REMARK                            x       y       z     vdW  Elec       q    Type
REMARK                         _______ _______ _______ _____ _____    ______ ____
ROOT
ATOM      1  N   LIG    1       -2.016  -0.075  -1.329  0.00  0.00    -0.370 N 
ATOM      2  C   LIG    1       -2.081   1.385  -1.467  0.00  0.00    +0.280 C 
ATOM      3  C   LIG    1       -2.639   1.747  -2.845  0.00  0.00    +0.160 C 
ATOM      4  C   LIG    1       -4.043   1.156  -2.993  0.00  0.00    +0.120 C 
ATOM      5  C   LIG    1       -3.975  -0.358  -2.773  0.00  0.00    +0.230 C 
ATOM      6  C   LIG    1       -3.369  -0.640  -1.397  0.00  0.00    +0.190 C 
ATOM      7  H   LIG    1       -1.455  -0.457  -2.075  0.00  0.00    +0.450 HD
ENDROOT
BRANCH   5   8
ATOM      8  O   LIG    1       -3.160  -0.951  -3.787  0.00  0.00    -0.570 OA
ATOM      9  H   LIG    1       -3.485  -0.807  -4.686  0.00  0.00    +0.410 HD
ENDBRANCH   5   8
BRANCH   4  10
ATOM     10  O   LIG    1       -4.541   1.429  -4.304  0.00  0.00    -0.550 OA
ATOM     11  H   LIG    1       -4.605   2.371  -4.513  0.00  0.00    +0.400 HD
ENDBRANCH   4  10
BRANCH   3  12
ATOM     12  O   LIG    1       -2.702   3.169  -2.976  0.00  0.00    -0.540 OA
ATOM     13  H   LIG    1       -3.047   3.470  -3.827  0.00  0.00    +0.400 HD
ENDBRANCH   3  12
BRANCH   1  14
ATOM     14  C   LIG    1       -1.409  -0.416  -0.036  0.00  0.00    +0.280 C 
BRANCH  14  15
ATOM     15  C   LIG    1       -1.202  -1.930   0.046  0.00  0.00    +0.220 C 
BRANCH  15  16
ATOM     16  O   LIG    1       -0.270  -2.339  -0.956  0.00  0.00    -0.580 OA
ATOM     17  H   LIG    1       -0.091  -3.289  -0.963  0.00  0.00    +0.410 HD
ENDBRANCH  15  16
ENDBRANCH  14  15
ENDBRANCH   1  14
BRANCH   6  18
ATOM     18  C   LIG    1       -4.244  -0.005  -0.315  0.00  0.00    +0.210 C 
BRANCH  18  19
ATOM     19  O   LIG    1       -5.577  -0.506  -0.425  0.00  0.00    -0.550 OA
ATOM     20  H   LIG    1       -6.189  -0.145   0.231  0.00  0.00    +0.410 HD
ENDBRANCH  18  19
ENDBRANCH   6  18
TORSDOF 8
ENDMDL
MODEL       19
REMARK  Name = ZINC000003831132
REMARK                            x       y       z     vdW  Elec       q    Type
REMARK                         _______ _______ _______ _____ _____    ______ ____
ROOT
ATOM      1  N   LIG    1       -2.143  -0.049  -1.140  0.00  0.00    -0.370 N 
ATOM      2  C   LIG    1       -2.158   1.418  -1.132  0.00  0.00    +0.290 C 
ATOM      3  C   LIG    1       -2.837   1.919   0.144  0.00  0.00    +0.170 C 
ATOM      4  C   LIG    1       -4.275   1.393   0.191  0.00  0.00    +0.110 C 
ATOM      5  C   LIG    1       -4.251  -0.136   0.107  0.00  0.00    +0.220 C 
ATOM      6  C   LIG    1       -3.520  -0.559  -1.167  0.00  0.00    +0.200 C 
ATOM      7  H   LIG    1       -1.649  -0.376  -1.956  0.00  0.00    +0.420 HD
ENDROOT
BRANCH   5   8
ATOM      8  O   LIG    1       -3.572  -0.666   1.247  0.00  0.00    -0.530 OA
ATOM      9  H   LIG    1       -3.981  -0.433   2.092  0.00  0.00    +0.400 HD
ENDBRANCH   5   8
BRANCH   4  10
ATOM     10  O   LIG    1       -4.892   1.797   1.415  0.00  0.00    -0.550 OA
ATOM     11  H   LIG    1       -4.936   2.755   1.536  0.00  0.00    +0.400 HD
ENDBRANCH   4  10
BRANCH   3  12
ATOM     12  O   LIG    1       -2.851   3.348   0.149  0.00  0.00    -0.540 OA
ATOM     13  H   LIG    1       -3.268   3.735   0.931  0.00  0.00    +0.400 HD
ENDBRANCH   3  12
BRANCH   1  14
ATOM     14  C   LIG    1       -1.466  -0.537   0.069  0.00  0.00    +0.300 C 
BRANCH  14  15
ATOM     15  C   LIG    1        0.015  -0.159   0.011  0.00  0.00    +0.190 C 
BRANCH  15  16
ATOM     16  O   LIG    1        0.150   1.258   0.130  0.00  0.00    -0.580 OA
ATOM     17  H   LIG    1        1.065   1.570   0.102  0.00  0.00    +0.400 HD
ENDBRANCH  15  16
ENDBRANCH  14  15
ENDBRANCH   1  14
BRANCH   6  18
ATOM     18  C   LIG    1       -3.493  -2.086  -1.256  0.00  0.00    +0.230 C 
BRANCH  18  19
ATOM     19  O   LIG    1       -2.991  -2.626  -0.031  0.00  0.00    -0.540 OA
ATOM     20  H   LIG    1       -2.946  -3.591  -0.016  0.00  0.00    +0.400 HD
ENDBRANCH  18  19
ENDBRANCH   6  18
TORSDOF 8
ENDMDL
MODEL       20
REMARK  Name = ZINC000257275913
REMARK                            x       y       z     vdW  Elec       q    Type
REMARK                         _______ _______ _______ _____ _____    ______ ____
ROOT
ATOM      1  C   LIG    1       -1.237  -2.201   0.192  0.00  0.00    +0.000 C 
ATOM      2  C   LIG    1       -0.556  -3.172  -0.798  0.00  0.00    +0.230 C 
ATOM      3  N   LIG    1       -0.182  -4.377  -0.095  0.00  0.00    -0.540 NA
ATOM      4  C   LIG    1       -1.198  -5.454  -0.134  0.00  0.00    +0.220 C 
ATOM      5  C   LIG    1       -2.632  -4.940   0.076  0.00  0.00    +0.250 C 
ATOM      6  N   LIG    1       -2.698  -3.939   1.115  0.00  0.00    -0.370 N 
ATOM      7  C   LIG    1       -3.970  -4.061   1.840  0.00  0.00    +0.340 C 
ATOM      8  H   LIG    1       -1.928  -4.062   1.755  0.00  0.00    +0.430 HD
ATOM      9  C   LIG    1       -2.611  -2.609   0.479  0.00  0.00    +0.290 C 
ENDROOT
BRANCH   1  12
ATOM     10  C   LIG    1       -0.136   1.281  -0.953  0.00  0.00    +0.300 C 
ATOM     11  N   LIG    1       -0.106  -0.104  -0.476  0.00  0.00    -0.610 N 
ATOM     12  C   LIG    1       -1.248  -0.817  -0.404  0.00  0.00    +0.520 C 
ATOM     13  O   LIG    1       -2.285  -0.344  -0.820  0.00  0.00    -0.530 OA
ATOM     14  C   LIG    1        1.164  -0.715  -0.077  0.00  0.00    +0.300 C 
ENDBRANCH   1  12
BRANCH   3  15
ATOM     15  C   LIG    1        1.124  -4.870  -0.551  0.00  0.00    +0.280 C 
BRANCH  15  16
ATOM     16  C   LIG    1        1.034  -5.262  -2.003  0.00  0.00    +0.480 C 
ATOM     17  O   LIG    1       -0.006  -5.113  -2.608  0.00  0.00    -0.550 OA
ATOM     18  N   LIG    1        2.110  -5.777  -2.630  0.00  0.00    -0.840 N 
ATOM     19  H   LIG    1        2.053  -6.030  -3.565  0.00  0.00    +0.410 HD
ATOM     20  H   LIG    1        2.943  -5.896  -2.146  0.00  0.00    +0.410 HD
ENDBRANCH  15  16
ENDBRANCH   3  15
TORSDOF 3
ENDMDL
MODEL       21
REMARK  Name = ZINC000071614016
REMARK                            x       y       z     vdW  Elec       q    Type
REMARK                         _______ _______ _______ _____ _____    ______ ____
ROOT
ATOM      1  C   LIG    1        2.304  -0.378   1.159  0.00  0.00    +0.090 C 
ENDROOT
BRANCH   1   2
ATOM      2  C   LIG    1        2.822  -0.422   2.573  0.00  0.00    -0.090 A 
ATOM      3  C   LIG    1        3.000  -1.523   3.329  0.00  0.00    +0.190 A 
ATOM      4  N   LIG    1        3.475  -1.135   4.521  0.00  0.00    -0.480 NA
ATOM      5  C   LIG    1        3.598   0.164   4.534  0.00  0.00    +0.450 A 
ATOM      6  N   LIG    1        3.207   0.647   3.335  0.00  0.00    -0.560 N 
ATOM      7  H   LIG    1        3.195   1.579   3.067  0.00  0.00    +0.430 HD
ENDBRANCH   1   2
BRANCH   1   8
ATOM      8  C   LIG    1        0.797  -0.357   1.175  0.00  0.00    +0.360 C 
ATOM      9  O   LIG    1        0.179  -1.395   1.177  0.00  0.00    -0.370 OA
BRANCH   8  11
ATOM     10  C   LIG    1       -0.007   1.487   2.624  0.00  0.00    +0.110 C 
ATOM     11  C   LIG    1        0.062   0.958   1.190  0.00  0.00    +0.160 C 
BRANCH  11  12
ATOM     12  N   LIG    1       -1.300   0.763   0.674  0.00  0.00    -0.630 N 
ATOM     13  H   LIG    1       -1.788   0.098   1.255  0.00  0.00    +0.440 HD
ATOM     14  H   LIG    1       -1.254   0.414  -0.272  0.00  0.00    +0.450 HD
ATOM     15  H   LIG    1       -1.792   1.644   0.684  0.00  0.00    +0.440 HD
ENDBRANCH  11  12
ENDBRANCH   8  11
ENDBRANCH   1   8
BRANCH   1  16
ATOM     16  CA  LIG    1        2.789  -1.614   0.399  0.00  0.00    +0.110 C 
BRANCH  16  17
ATOM     17  N   LIG    1        4.256  -1.677   0.452  0.00  0.00    -0.610 N 
ATOM     18  H1  LIG    1        4.644  -0.848   0.028  0.00  0.00    +0.430 HD
ATOM     19  H2  LIG    1        4.576  -2.493  -0.049  0.00  0.00    +0.440 HD
ATOM     20  H3  LIG    1        4.555  -1.735   1.414  0.00  0.00    +0.420 HD
ENDBRANCH  16  17
BRANCH  16  21
ATOM     21  C   LIG    1        2.342  -1.529  -1.038  0.00  0.00    +0.490 C 
ATOM     22  OXT LIG    1        1.191  -1.799  -1.335  0.00  0.00    -0.630 OA
ATOM     23  O   LIG    1        3.131  -1.189  -1.903  0.00  0.00    -0.650 OA
ENDBRANCH  16  21
ENDBRANCH   1  16
TORSDOF 7
ENDMDL
MODEL       22
REMARK  Name = ZINC000016136348
REMARK                            x       y       z     vdW  Elec       q    Type
REMARK                         _______ _______ _______ _____ _____    ______ ____
ROOT
ATOM      1  N   LIG    1       -3.120  -0.748  -3.756  0.00  0.00    -0.380 N 
ATOM      2  H   LIG    1       -2.113  -0.807  -3.765  0.00  0.00    +0.450 HD
ENDROOT
BRANCH   1   3
ATOM      3  C   LIG    1       -3.551   0.084  -2.624  0.00  0.00    +0.270 C 
BRANCH   3   4
ATOM      4  C   LIG    1       -2.960  -0.472  -1.327  0.00  0.00    +0.200 C 
BRANCH   4   5
ATOM      5  O   LIG    1       -1.536  -0.354  -1.363  0.00  0.00    -0.390 OA
BRANCH   5   6
ATOM      6  C   LIG    1       -0.882  -0.848  -0.192  0.00  0.00    +0.210 C 
BRANCH   6   7
ATOM      7  C   LIG    1        0.630  -0.671  -0.340  0.00  0.00    +0.200 C 
BRANCH   7   8
ATOM      8  O   LIG    1        0.944   0.722  -0.390  0.00  0.00    -0.570 OA
ATOM      9  H   LIG    1        1.888   0.910  -0.483  0.00  0.00    +0.390 HD
ENDBRANCH   7   8
ENDBRANCH   6   7
ENDBRANCH   5   6
ENDBRANCH   4   5
ENDBRANCH   3   4
ENDBRANCH   1   3
BRANCH   1  10
ATOM     10  C   LIG    1       -3.587  -0.147  -5.012  0.00  0.00    +0.270 C 
BRANCH  10  11
ATOM     11  C   LIG    1       -2.881   1.193  -5.230  0.00  0.00    +0.200 C 
BRANCH  11  12
ATOM     12  O   LIG    1       -1.478   0.972  -5.387  0.00  0.00    -0.390 OA
BRANCH  12  13
ATOM     13  C   LIG    1       -0.708   2.171  -5.486  0.00  0.00    +0.210 C 
BRANCH  13  14
ATOM     14  C   LIG    1        0.771   1.816  -5.651  0.00  0.00    +0.210 C 
BRANCH  14  15
ATOM     15  O   LIG    1        0.963   1.140  -6.895  0.00  0.00    -0.570 OA
ATOM     16  H   LIG    1        1.879   0.884  -7.066  0.00  0.00    +0.390 HD
ENDBRANCH  14  15
ENDBRANCH  13  14
ENDBRANCH  12  13
ENDBRANCH  11  12
ENDBRANCH  10  11
ENDBRANCH   1  10
BRANCH   1  17
ATOM     17  C   LIG    1       -3.688  -2.096  -3.616  0.00  0.00    +0.270 C 
BRANCH  17  18
ATOM     18  C   LIG    1       -3.123  -3.003  -4.711  0.00  0.00    +0.210 C 
BRANCH  18  19
ATOM     19  O   LIG    1       -1.712  -3.141  -4.534  0.00  0.00    -0.580 OA
ATOM     20  H   LIG    1       -1.286  -3.704  -5.195  0.00  0.00    +0.410 HD
ENDBRANCH  18  19
ENDBRANCH  17  18
ENDBRANCH   1  17
TORSDOF 15
ENDMDL
MODEL       23
REMARK  Name = ZINC000409433864
REMARK                            x       y       z     vdW  Elec       q    Type
REMARK                         _______ _______ _______ _____ _____    ______ ____
ROOT
ATOM      1  C   LIG    1       -0.018   1.461   0.010  0.00  0.00    +0.330 C 
ATOM      2  N   LIG    1        0.002  -0.004   0.002  0.00  0.00    -0.590 N 
ATOM      3  C   LIG    1        0.007  -0.744  -1.139  0.00  0.00    +0.550 C 
ATOM      4  C   LIG    1       -0.287  -2.151  -0.722  0.00  0.00    -0.020 C 
ATOM      5  C   LIG    1        0.347  -3.293  -1.488  0.00  0.00    +0.360 C 
ATOM      6  N   LIG    1        0.018  -4.518  -0.724  0.00  0.00    -0.590 N 
ATOM      7  C   LIG    1        0.261  -4.601   0.719  0.00  0.00    +0.270 C 
ATOM      8  C   LIG    1       -0.231  -3.327   1.439  0.00  0.00    +0.090 C 
ATOM      9  C   LIG    1       -0.515  -5.575  -1.367  0.00  0.00    +0.500 C 
ATOM     10  O   LIG    1       -0.721  -5.519  -2.561  0.00  0.00    -0.520 OA
ATOM     11  C   LIG    1        0.349  -2.150   0.702  0.00  0.00    -0.010 C 
ATOM     12  O   LIG    1        0.209  -0.345  -2.266  0.00  0.00    -0.450 OA
ATOM     13  C   LIG    1        0.023  -0.756   1.135  0.00  0.00    +0.540 C 
ATOM     14  O   LIG    1       -0.168  -0.371   2.268  0.00  0.00    -0.450 OA
ENDROOT
BRANCH   9  15
ATOM     15  C   LIG    1       -0.855  -6.829  -0.602  0.00  0.00    +0.310 C 
BRANCH  15  16
ATOM     16  N   LIG    1       -1.418  -7.826  -1.522  0.00  0.00    -0.620 N 
ATOM     17  H   LIG    1       -1.645  -8.665  -1.011  0.00  0.00    +0.450 HD
ATOM     18  H   LIG    1       -0.741  -8.043  -2.239  0.00  0.00    +0.440 HD
ATOM     19  H   LIG    1       -2.253  -7.456  -1.950  0.00  0.00    +0.440 HD
ENDBRANCH  15  16
ENDBRANCH   9  15
TORSDOF 2
ENDMDL
MODEL       24
REMARK  Name = ZINC000409433866
REMARK                            x       y       z     vdW  Elec       q    Type
REMARK                         _______ _______ _______ _____ _____    ______ ____
ROOT
ATOM      1  C   LIG    1       -0.018   1.461   0.010  0.00  0.00    +0.320 C 
ATOM      2  N   LIG    1        0.002  -0.004   0.002  0.00  0.00    -0.580 N 
ATOM      3  C   LIG    1       -1.114  -0.746   0.004  0.00  0.00    +0.520 C 
ATOM      4  C   LIG    1       -0.726  -2.219  -0.102  0.00  0.00    +0.030 C 
ATOM      5  C   LIG    1       -1.239  -2.736  -1.427  0.00  0.00    +0.060 C 
ATOM      6  C   LIG    1       -0.418  -3.846  -2.040  0.00  0.00    +0.280 C 
ATOM      7  N   LIG    1        1.004  -3.541  -1.990  0.00  0.00    -0.580 N 
ATOM      8  C   LIG    1        1.629  -3.077  -0.765  0.00  0.00    +0.340 C 
ATOM      9  C   LIG    1        1.753  -3.691  -3.100  0.00  0.00    +0.490 C 
ATOM     10  O   LIG    1        2.939  -3.439  -3.070  0.00  0.00    -0.520 OA
ATOM     11  C   LIG    1        0.776  -2.175   0.070  0.00  0.00    +0.000 C 
ATOM     12  O   LIG    1       -2.246  -0.319   0.076  0.00  0.00    -0.460 OA
ATOM     13  C   LIG    1        1.141  -0.718  -0.013  0.00  0.00    +0.530 C 
ATOM     14  O   LIG    1        2.264  -0.267  -0.089  0.00  0.00    -0.460 OA
ENDROOT
BRANCH   9  15
ATOM     15  C   LIG    1        1.117  -4.170  -4.380  0.00  0.00    +0.300 C 
BRANCH  15  16
ATOM     16  N   LIG    1        2.136  -4.249  -5.434  0.00  0.00    -0.620 N 
ATOM     17  H   LIG    1        2.860  -4.895  -5.155  0.00  0.00    +0.440 HD
ATOM     18  H   LIG    1        2.540  -3.336  -5.581  0.00  0.00    +0.440 HD
ATOM     19  H   LIG    1        1.710  -4.570  -6.291  0.00  0.00    +0.450 HD
ENDBRANCH  15  16
ENDBRANCH   9  15
TORSDOF 2
ENDMDL
MODEL       25
REMARK  Name = ZINC000409433870
REMARK                            x       y       z     vdW  Elec       q    Type
REMARK                         _______ _______ _______ _____ _____    ______ ____
ROOT
ATOM      1  C   LIG    1       -0.018   1.461   0.010  0.00  0.00    +0.320 C 
ATOM      2  N   LIG    1        0.002  -0.004   0.002  0.00  0.00    -0.580 N 
ATOM      3  C   LIG    1       -1.117  -0.748   0.004  0.00  0.00    +0.530 C 
ATOM      4  C   LIG    1       -0.713  -2.195  -0.089  0.00  0.00    +0.000 C 
ATOM      5  C   LIG    1       -1.540  -3.131   0.716  0.00  0.00    +0.080 C 
ATOM      6  C   LIG    1       -0.999  -3.458   2.092  0.00  0.00    +0.280 C 
ATOM      7  N   LIG    1        0.443  -3.644   2.046  0.00  0.00    -0.580 N 
ATOM      8  C   LIG    1        1.320  -2.703   1.382  0.00  0.00    +0.320 C 
ATOM      9  C   LIG    1        0.980  -4.728   2.641  0.00  0.00    +0.490 C 
ATOM     10  O   LIG    1        2.180  -4.902   2.614  0.00  0.00    -0.520 OA
ATOM     11  C   LIG    1        0.790  -2.199   0.079  0.00  0.00    +0.020 C 
ATOM     12  O   LIG    1       -2.252  -0.328   0.068  0.00  0.00    -0.460 OA
ATOM     13  C   LIG    1        1.138  -0.716  -0.013  0.00  0.00    +0.530 C 
ATOM     14  O   LIG    1        2.257  -0.258  -0.105  0.00  0.00    -0.460 OA
ENDROOT
BRANCH   9  15
ATOM     15  C   LIG    1        0.090  -5.723   3.339  0.00  0.00    +0.310 C 
BRANCH  15  16
ATOM     16  N   LIG    1        0.910  -6.805   3.900  0.00  0.00    -0.620 N 
ATOM     17  H   LIG    1        1.567  -6.419   4.562  0.00  0.00    +0.440 HD
ATOM     18  H   LIG    1        1.413  -7.266   3.157  0.00  0.00    +0.440 HD
ATOM     19  H   LIG    1        0.314  -7.471   4.368  0.00  0.00    +0.450 HD
ENDBRANCH  15  16
ENDBRANCH   9  15
TORSDOF 2
ENDMDL
MODEL       26
REMARK  Name = ZINC000409433868
REMARK                            x       y       z     vdW  Elec       q    Type
REMARK                         _______ _______ _______ _____ _____    ______ ____
ROOT
ATOM      1  C   LIG    1       -0.018   1.461   0.010  0.00  0.00    +0.330 C 
ATOM      2  N   LIG    1        0.002  -0.004   0.002  0.00  0.00    -0.590 N 
ATOM      3  C   LIG    1       -1.125  -0.766   0.003  0.00  0.00    +0.540 C 
ATOM      4  C   LIG    1       -0.683  -2.158  -0.321  0.00  0.00    -0.010 C 
ATOM      5  C   LIG    1       -1.422  -3.328   0.294  0.00  0.00    +0.090 C 
ATOM      6  C   LIG    1       -0.707  -4.601  -0.210  0.00  0.00    +0.270 C 
ATOM      7  N   LIG    1        0.739  -4.516   0.013  0.00  0.00    -0.590 N 
ATOM      8  C   LIG    1        1.496  -3.290  -0.325  0.00  0.00    +0.360 C 
ATOM      9  C   LIG    1        1.390  -5.573   0.536  0.00  0.00    +0.500 C 
ATOM     10  O   LIG    1        2.587  -5.515   0.725  0.00  0.00    -0.520 OA
ATOM     11  C   LIG    1        0.746  -2.143   0.302  0.00  0.00    -0.020 C 
ATOM     12  O   LIG    1       -2.257  -0.392   0.223  0.00  0.00    -0.450 OA
ATOM     13  C   LIG    1        1.149  -0.735  -0.013  0.00  0.00    +0.550 C 
ATOM     14  O   LIG    1        2.272  -0.327  -0.221  0.00  0.00    -0.450 OA
ENDROOT
BRANCH   9  15
ATOM     15  C   LIG    1        0.632  -6.828   0.885  0.00  0.00    +0.310 C 
BRANCH  15  16
ATOM     16  N   LIG    1        1.562  -7.825   1.434  0.00  0.00    -0.620 N 
ATOM     17  H   LIG    1        2.000  -7.455   2.264  0.00  0.00    +0.440 HD
ATOM     18  H   LIG    1        2.269  -8.040   0.747  0.00  0.00    +0.440 HD
ATOM     19  H   LIG    1        1.054  -8.665   1.668  0.00  0.00    +0.450 HD
ENDBRANCH  15  16
ENDBRANCH   9  15
TORSDOF 2
ENDMDL
MODEL       27
REMARK  Name = ZINC000035395435
REMARK                            x       y       z     vdW  Elec       q    Type
REMARK                         _______ _______ _______ _____ _____    ______ ____
ROOT
ATOM      1  C   LIG    1        1.827  -4.119  -4.157  0.00  0.00    +0.260 C 
ATOM      2  C   LIG    1        3.337  -4.124  -3.907  0.00  0.00    +0.060 C 
ENDROOT
BRANCH   1   5
ATOM      3  N   LIG    1        1.354  -2.503  -2.345  0.00  0.00    -0.710 N 
ATOM      4  H   LIG    1        1.990  -1.899  -2.760  0.00  0.00    +0.420 HD
ATOM      5  C   LIG    1        1.111  -3.709  -2.896  0.00  0.00    +0.520 C 
ATOM      6  O   LIG    1        0.316  -4.463  -2.377  0.00  0.00    -0.530 OA
BRANCH   3   7
ATOM      7  C   LIG    1        0.657  -2.104  -1.120  0.00  0.00    +0.280 C 
ATOM      8  C   LIG    1        1.412  -2.647   0.096  0.00  0.00    +0.080 C 
BRANCH   7   9
ATOM      9  C   LIG    1        0.598  -0.600  -1.043  0.00  0.00    +0.460 C 
ATOM     10  O   LIG    1        1.088   0.070  -1.921  0.00  0.00    -0.500 OA
BRANCH   9  12
ATOM     11  C   LIG    1       -0.018   1.448   0.010  0.00  0.00    +0.280 C 
ATOM     12  O   LIG    1        0.002  -0.004   0.002  0.00  0.00    -0.350 OA
ENDBRANCH   9  12
ENDBRANCH   7   9
ENDBRANCH   3   7
ENDBRANCH   1   5
BRANCH   1  13
ATOM     13  N   LIG    1        1.393  -5.462  -4.550  0.00  0.00    -0.680 N 
ATOM     14  H   LIG    1        1.047  -6.075  -3.882  0.00  0.00    +0.420 HD
ATOM     15  C   LIG    1        1.474  -5.846  -5.839  0.00  0.00    +0.510 C 
ATOM     16  O   LIG    1        1.907  -5.080  -6.674  0.00  0.00    -0.530 OA
BRANCH  15  17
ATOM     17  C   LIG    1        1.028  -7.228  -6.243  0.00  0.00    +0.180 C 
ATOM     18  C   LIG    1        1.857  -8.272  -5.493  0.00  0.00    +0.120 C 
BRANCH  17  19
ATOM     19  N   LIG    1        1.216  -7.399  -7.690  0.00  0.00    -0.620 N 
ATOM     20  H   LIG    1        0.669  -6.710  -8.185  0.00  0.00    +0.440 HD
ATOM     21  H   LIG    1        0.917  -8.324  -7.961  0.00  0.00    +0.440 HD
ATOM     22  H   LIG    1        2.192  -7.281  -7.918  0.00  0.00    +0.440 HD
ENDBRANCH  17  19
ENDBRANCH  15  17
ENDBRANCH   1  13
TORSDOF 7
ENDMDL
MODEL       28
REMARK  Name = ZINC000257198309
REMARK                            x       y       z     vdW  Elec       q    Type
REMARK                         _______ _______ _______ _____ _____    ______ ____
ROOT
ATOM      1  C   LIG    1       -0.018   1.465   0.010  0.00  0.00    +0.220 C 
ATOM      2  N   LIG    1        0.002  -0.004   0.002  0.00  0.00    -0.540 NA
ATOM      3  C   LIG    1        0.616  -0.506  -1.202  0.00  0.00    +0.190 C 
ATOM      4  C   LIG    1       -0.053  -1.786  -1.736  0.00  0.00    +0.260 C 
ATOM      5  N   LIG    1       -0.393  -2.751  -0.665  0.00  0.00    -0.490 N 
ATOM      6  C   LIG    1        0.648  -2.869   0.326  0.00  0.00    +0.290 C 
ATOM      7  C   LIG    1        0.324  -1.909   1.485  0.00  0.00    +0.110 C 
ATOM      8  H   LIG    1       -0.550  -3.657  -1.080  0.00  0.00    +0.430 HD
ATOM      9  H   LIG    1       -1.242  -2.448  -0.211  0.00  0.00    +0.440 HD
ATOM     10  C   LIG    1        0.714  -0.533   1.193  0.00  0.00    +0.180 C 
ENDROOT
BRANCH   7  11
ATOM     11  O   LIG    1       -1.082  -1.948   1.738  0.00  0.00    -0.550 OA
ATOM     12  H   LIG    1       -1.369  -1.368   2.457  0.00  0.00    +0.410 HD
ENDBRANCH   7  11
BRANCH   7  13
ATOM     13  C   LIG    1        1.065  -2.377   2.739  0.00  0.00    +0.310 C 
BRANCH  13  14
ATOM     14  N   LIG    1        0.765  -1.472   3.850  0.00  0.00    -0.630 N 
ATOM     15  C   LIG    1        1.541  -0.268   4.171  0.00  0.00    +0.250 C 
ATOM     16  C   LIG    1        0.634   0.573   5.096  0.00  0.00    +0.050 C 
ATOM     17  C   LIG    1       -0.273  -0.512   5.720  0.00  0.00    +0.060 C 
ATOM     18  C   LIG    1       -0.260  -1.633   4.705  0.00  0.00    +0.510 C 
ATOM     19  O   LIG    1       -1.055  -2.549   4.670  0.00  0.00    -0.510 OA
ENDBRANCH  13  14
ENDBRANCH   7  13
TORSDOF 3
ENDMDL
MODEL       29
REMARK  Name = ZINC000013538241
REMARK                            x       y       z     vdW  Elec       q    Type
REMARK                         _______ _______ _______ _____ _____    ______ ____
ROOT
ATOM      1  C   LIG    1       -0.531  -2.680   1.242  0.00  0.00    +0.070 C 
ENDROOT
BRANCH   1   2
ATOM      2  C   LIG    1       -1.244  -2.135   0.003  0.00  0.00    +0.290 C 
BRANCH   2   3
ATOM      3  N   LIG    1       -2.643  -2.570   0.013  0.00  0.00    -0.720 N 
ATOM      4  H   LIG    1       -3.076  -2.788   0.853  0.00  0.00    +0.410 HD
ATOM      5  C   LIG    1       -3.328  -2.666  -1.143  0.00  0.00    +0.520 C 
ATOM      6  O   LIG    1       -2.786  -2.393  -2.193  0.00  0.00    -0.530 OA
ATOM      7  C   LIG    1       -4.767  -3.113  -1.132  0.00  0.00    +0.110 C 
ENDBRANCH   2   3
BRANCH   2   8
ATOM      8  C   LIG    1       -1.185  -0.630   0.010  0.00  0.00    +0.440 C 
ATOM      9  O   LIG    1       -2.208   0.015   0.023  0.00  0.00    -0.490 OA
BRANCH   8  11
ATOM     10  C   LIG    1       -0.018   1.448   0.010  0.00  0.00    +0.280 C 
ATOM     11  O   LIG    1        0.002  -0.004   0.002  0.00  0.00    -0.360 OA
ENDBRANCH   8  11
ENDBRANCH   2   8
ENDBRANCH   1   2
BRANCH   1  12
ATOM     12  C   LIG    1       -0.481  -4.207   1.172  0.00  0.00    +0.050 C 
BRANCH  12  13
ATOM     13  C   LIG    1        0.232  -4.752   2.412  0.00  0.00    +0.280 C 
BRANCH  13  14
ATOM     14  N   LIG    1        0.280  -6.214   2.345  0.00  0.00    -0.690 N 
ATOM     15  H   LIG    1       -0.110  -6.678   1.587  0.00  0.00    +0.440 HD
ATOM     16  C   LIG    1        0.874  -6.926   3.350  0.00  0.00    +0.740 C 
BRANCH  16  17
ATOM     17  N   LIG    1        0.917  -8.256   3.290  0.00  0.00    -0.790 N 
ATOM     18  H   LIG    1        0.527  -8.720   2.532  0.00  0.00    +0.440 HD
ATOM     19  H   LIG    1        1.338  -8.760   4.003  0.00  0.00    +0.440 HD
ENDBRANCH  16  17
BRANCH  16  20
ATOM     20  N   LIG    1        1.409  -6.289   4.391  0.00  0.00    -0.790 N 
ATOM     21  H   LIG    1        1.830  -6.794   5.104  0.00  0.00    +0.440 HD
ATOM     22  H   LIG    1        1.377  -5.321   4.435  0.00  0.00    +0.440 HD
ENDBRANCH  16  20
ENDBRANCH  13  14
ENDBRANCH  12  13
ENDBRANCH   1  12
TORSDOF 9
ENDMDL
MODEL       30
REMARK  Name = ZINC000057453740
REMARK                            x       y       z     vdW  Elec       q    Type
REMARK                         _______ _______ _______ _____ _____    ______ ____
ROOT
ATOM      1  C   LIG    1       -2.849  -2.589   0.141  0.00  0.00    +0.180 C 
ENDROOT
BRANCH   1   2
ATOM      2  O   LIG    1       -3.504  -2.213  -1.072  0.00  0.00    -0.520 OA
ATOM      3  H   LIG    1       -3.080  -2.555  -1.871  0.00  0.00    +0.370 HD
ENDBRANCH   1   2
BRANCH   1   4
ATOM      4  C   LIG    1       -1.413  -2.059   0.130  0.00  0.00    +0.170 C 
BRANCH   4   5
ATOM      5  O   LIG    1       -0.758  -2.435   1.343  0.00  0.00    -0.540 OA
ATOM      6  H   LIG    1       -1.182  -2.093   2.142  0.00  0.00    +0.380 HD
ENDBRANCH   4   5
BRANCH   4   7
ATOM      7  C   LIG    1       -1.433  -0.534   0.013  0.00  0.00    +0.190 C 
BRANCH   7   8
ATOM      8  O   LIG    1       -2.089  -0.158  -1.200  0.00  0.00    -0.530 OA
ATOM      9  H   LIG    1       -1.665  -0.500  -1.999  0.00  0.00    +0.370 HD
ENDBRANCH   7   8
BRANCH   7  10
ATOM     10  C   LIG    1        0.002  -0.004   0.002  0.00  0.00    +0.150 C 
BRANCH  10  11
ATOM     11  O   LIG    1       -0.017   1.425   0.010  0.00  0.00    -0.560 OA
ATOM     12  H   LIG    1        0.861   1.830   0.004  0.00  0.00    +0.390 HD
ENDBRANCH  10  11
ENDBRANCH   7  10
ENDBRANCH   4   7
ENDBRANCH   1   4
BRANCH   1  13
ATOM     13  C   LIG    1       -2.829  -4.114   0.258  0.00  0.00    +0.230 C 
BRANCH  13  14
ATOM     14  C   LIG    1       -4.256  -4.653   0.144  0.00  0.00    +0.180 C 
ATOM     15  N   LIG    1       -4.281  -6.132   0.323  0.00  0.00    -0.510 N 
ATOM     16  C   LIG    1       -5.659  -6.546   0.648  0.00  0.00    +0.300 C 
ATOM     17  C   LIG    1       -6.208  -5.648   1.780  0.00  0.00    +0.170 C 
ATOM     18  H   LIG    1       -3.663  -6.393   1.077  0.00  0.00    +0.440 HD
ATOM     19  H   LIG    1       -3.984  -6.582  -0.531  0.00  0.00    +0.440 HD
ATOM     20  S   LIG    1       -5.289  -4.072   1.547  0.00  0.00    -0.140 S 
ENDBRANCH  13  14
BRANCH  13  21
ATOM     21  O   LIG    1       -2.027  -4.662  -0.790  0.00  0.00    -0.540 OA
ATOM     22  H   LIG    1       -2.342  -4.448  -1.679  0.00  0.00    +0.390 HD
ENDBRANCH  13  21
ENDBRANCH   1  13
TORSDOF 10
ENDMDL
MODEL       31
REMARK  Name = ZINC000057453737
REMARK                            x       y       z     vdW  Elec       q    Type
REMARK                         _______ _______ _______ _____ _____    ______ ____
ROOT
ATOM      1  C   LIG    1       -2.849  -2.589   0.141  0.00  0.00    +0.170 C 
ENDROOT
BRANCH   1   2
ATOM      2  O   LIG    1       -3.504  -2.213  -1.072  0.00  0.00    -0.510 OA
ATOM      3  H   LIG    1       -3.080  -2.555  -1.871  0.00  0.00    +0.380 HD
ENDBRANCH   1   2
BRANCH   1   4
ATOM      4  C   LIG    1       -1.413  -2.059   0.130  0.00  0.00    +0.170 C 
BRANCH   4   5
ATOM      5  O   LIG    1       -0.758  -2.435   1.343  0.00  0.00    -0.530 OA
ATOM      6  H   LIG    1       -1.182  -2.093   2.142  0.00  0.00    +0.380 HD
ENDBRANCH   4   5
BRANCH   4   7
ATOM      7  C   LIG    1       -1.433  -0.534   0.013  0.00  0.00    +0.190 C 
BRANCH   7   8
ATOM      8  O   LIG    1       -2.089  -0.158  -1.200  0.00  0.00    -0.530 OA
ATOM      9  H   LIG    1       -1.665  -0.500  -1.999  0.00  0.00    +0.370 HD
ENDBRANCH   7   8
BRANCH   7  10
ATOM     10  C   LIG    1        0.002  -0.004   0.002  0.00  0.00    +0.150 C 
BRANCH  10  11
ATOM     11  O   LIG    1       -0.017   1.425   0.010  0.00  0.00    -0.560 OA
ATOM     12  H   LIG    1        0.861   1.830   0.004  0.00  0.00    +0.390 HD
ENDBRANCH  10  11
ENDBRANCH   7  10
ENDBRANCH   4   7
ENDBRANCH   1   4
BRANCH   1  13
ATOM     13  C   LIG    1       -2.829  -4.114   0.258  0.00  0.00    +0.200 C 
BRANCH  13  14
ATOM     14  C   LIG    1       -4.264  -4.644   0.269  0.00  0.00    +0.170 C 
ATOM     15  N   LIG    1       -4.272  -6.112   0.462  0.00  0.00    -0.510 N 
ATOM     16  C   LIG    1       -5.416  -6.728  -0.235  0.00  0.00    +0.300 C 
ATOM     17  C   LIG    1       -5.438  -6.159  -1.681  0.00  0.00    +0.130 C 
ATOM     18  H   LIG    1       -4.337  -6.316   1.448  0.00  0.00    +0.440 HD
ATOM     19  H   LIG    1       -3.414  -6.499   0.099  0.00  0.00    +0.430 HD
ATOM     20  S   LIG    1       -5.053  -4.387  -1.365  0.00  0.00    -0.100 S 
ENDBRANCH  13  14
BRANCH  13  21
ATOM     21  O   LIG    1       -2.173  -4.490   1.471  0.00  0.00    -0.520 OA
ATOM     22  H   LIG    1       -2.597  -4.148   2.270  0.00  0.00    +0.390 HD
ENDBRANCH  13  21
ENDBRANCH   1  13
TORSDOF 10
ENDMDL
MODEL       32
REMARK  Name = ZINC000057453738
REMARK                            x       y       z     vdW  Elec       q    Type
REMARK                         _______ _______ _______ _____ _____    ______ ____
ROOT
ATOM      1  C   LIG    1       -2.849  -2.589   0.141  0.00  0.00    +0.180 C 
ENDROOT
BRANCH   1   2
ATOM      2  O   LIG    1       -3.504  -2.213  -1.072  0.00  0.00    -0.520 OA
ATOM      3  H   LIG    1       -3.080  -2.555  -1.871  0.00  0.00    +0.380 HD
ENDBRANCH   1   2
BRANCH   1   4
ATOM      4  C   LIG    1       -1.413  -2.059   0.130  0.00  0.00    +0.170 C 
BRANCH   4   5
ATOM      5  O   LIG    1       -0.758  -2.435   1.343  0.00  0.00    -0.530 OA
ATOM      6  H   LIG    1       -1.182  -2.093   2.142  0.00  0.00    +0.380 HD
ENDBRANCH   4   5
BRANCH   4   7
ATOM      7  C   LIG    1       -1.433  -0.534   0.013  0.00  0.00    +0.190 C 
BRANCH   7   8
ATOM      8  O   LIG    1       -2.089  -0.158  -1.200  0.00  0.00    -0.530 OA
ATOM      9  H   LIG    1       -1.665  -0.500  -1.999  0.00  0.00    +0.370 HD
ENDBRANCH   7   8
BRANCH   7  10
ATOM     10  C   LIG    1        0.002  -0.004   0.002  0.00  0.00    +0.150 C 
BRANCH  10  11
ATOM     11  O   LIG    1       -0.017   1.425   0.010  0.00  0.00    -0.560 OA
ATOM     12  H   LIG    1        0.861   1.830   0.004  0.00  0.00    +0.390 HD
ENDBRANCH  10  11
ENDBRANCH   7  10
ENDBRANCH   4   7
ENDBRANCH   1   4
BRANCH   1  13
ATOM     13  C   LIG    1       -2.829  -4.114   0.258  0.00  0.00    +0.220 C 
BRANCH  13  14
ATOM     14  C   LIG    1       -4.264  -4.644   0.269  0.00  0.00    +0.190 C 
ATOM     15  N   LIG    1       -4.283  -6.122   0.451  0.00  0.00    -0.520 N 
ATOM     16  C   LIG    1       -5.630  -6.527   0.896  0.00  0.00    +0.300 C 
ATOM     17  C   LIG    1       -6.073  -5.623   2.070  0.00  0.00    +0.170 C 
ATOM     18  H   LIG    1       -3.604  -6.386   1.149  0.00  0.00    +0.440 HD
ATOM     19  H   LIG    1       -4.065  -6.574  -0.424  0.00  0.00    +0.440 HD
ATOM     20  S   LIG    1       -5.167  -4.055   1.756  0.00  0.00    -0.160 S 
ENDBRANCH  13  14
BRANCH  13  21
ATOM     21  O   LIG    1       -2.173  -4.490   1.471  0.00  0.00    -0.520 OA
ATOM     22  H   LIG    1       -2.597  -4.148   2.270  0.00  0.00    +0.390 HD
ENDBRANCH  13  21
ENDBRANCH   1  13
TORSDOF 10
ENDMDL
MODEL       33
REMARK  Name = ZINC000057453739
REMARK                            x       y       z     vdW  Elec       q    Type
REMARK                         _______ _______ _______ _____ _____    ______ ____
ROOT
ATOM      1  C   LIG    1       -2.849  -2.589   0.141  0.00  0.00    +0.170 C 
ENDROOT
BRANCH   1   2
ATOM      2  O   LIG    1       -3.504  -2.213  -1.072  0.00  0.00    -0.510 OA
ATOM      3  H   LIG    1       -3.080  -2.555  -1.871  0.00  0.00    +0.380 HD
ENDBRANCH   1   2
BRANCH   1   4
ATOM      4  C   LIG    1       -1.413  -2.059   0.130  0.00  0.00    +0.170 C 
BRANCH   4   5
ATOM      5  O   LIG    1       -0.758  -2.435   1.343  0.00  0.00    -0.540 OA
ATOM      6  H   LIG    1       -1.182  -2.093   2.142  0.00  0.00    +0.380 HD
ENDBRANCH   4   5
BRANCH   4   7
ATOM      7  C   LIG    1       -1.433  -0.534   0.013  0.00  0.00    +0.190 C 
BRANCH   7   8
ATOM      8  O   LIG    1       -2.089  -0.158  -1.200  0.00  0.00    -0.530 OA
ATOM      9  H   LIG    1       -1.665  -0.500  -1.999  0.00  0.00    +0.370 HD
ENDBRANCH   7   8
BRANCH   7  10
ATOM     10  C   LIG    1        0.002  -0.004   0.002  0.00  0.00    +0.150 C 
BRANCH  10  11
ATOM     11  O   LIG    1       -0.017   1.425   0.010  0.00  0.00    -0.560 OA
ATOM     12  H   LIG    1        0.861   1.830   0.004  0.00  0.00    +0.390 HD
ENDBRANCH  10  11
ENDBRANCH   7  10
ENDBRANCH   4   7
ENDBRANCH   1   4
BRANCH   1  13
ATOM     13  C   LIG    1       -2.829  -4.114   0.258  0.00  0.00    +0.220 C 
BRANCH  13  14
ATOM     14  C   LIG    1       -4.256  -4.653   0.144  0.00  0.00    +0.170 C 
ATOM     15  N   LIG    1       -4.270  -6.122   0.335  0.00  0.00    -0.510 N 
ATOM     16  C   LIG    1       -5.346  -6.745  -0.461  0.00  0.00    +0.300 C 
ATOM     17  C   LIG    1       -5.246  -6.174  -1.903  0.00  0.00    +0.140 C 
ATOM     18  H   LIG    1       -4.420  -6.328   1.311  0.00  0.00    +0.440 HD
ATOM     19  H   LIG    1       -3.381  -6.502   0.046  0.00  0.00    +0.440 HD
ATOM     20  S   LIG    1       -4.901  -4.399  -1.553  0.00  0.00    -0.110 S 
ENDBRANCH  13  14
BRANCH  13  21
ATOM     21  O   LIG    1       -2.027  -4.662  -0.790  0.00  0.00    -0.540 OA
ATOM     22  H   LIG    1       -2.342  -4.448  -1.679  0.00  0.00    +0.390 HD
ENDBRANCH  13  21
ENDBRANCH   1  13
TORSDOF 10
ENDMDL
MODEL       34
REMARK  Name = ZINC000409433808
REMARK                            x       y       z     vdW  Elec       q    Type
REMARK                         _______ _______ _______ _____ _____    ______ ____
ROOT
ATOM      1  N   LIG    1        0.688  -0.476  -1.203  0.00  0.00    -1.000 NA
ATOM      2  C   LIG    1        0.107  -0.672  -2.541  0.00  0.00    +0.270 C 
ATOM      3  C   LIG    1        1.231  -0.669  -3.582  0.00  0.00    +0.250 C 
ATOM      4  N   LIG    1        2.419  -1.296  -2.970  0.00  0.00    -1.010 NA
ATOM      5  S   LIG    1        2.296  -0.900  -1.352  0.00  0.00    +2.770 S 
ATOM      6  O   LIG    1        2.474  -2.101  -0.614  0.00  0.00    -0.960 OA
ATOM      7  O   LIG    1        3.067   0.276  -1.149  0.00  0.00    -0.950 OA
ENDROOT
BRANCH   4   8
ATOM      8  C   LIG    1        3.466  -2.078  -3.631  0.00  0.00    +0.310 C 
ATOM      9  C   LIG    1        2.945  -2.977  -4.767  0.00  0.00    +0.320 C 
ATOM     10  N   LIG    1        3.204  -1.827  -5.662  0.00  0.00    -0.540 N 
ATOM     11  H   LIG    1        2.408  -1.216  -5.758  0.00  0.00    +0.430 HD
ATOM     12  H   LIG    1        3.593  -2.101  -6.552  0.00  0.00    +0.430 HD
ATOM     13  C   LIG    1        4.222  -1.302  -4.725  0.00  0.00    +0.310 C 
ENDBRANCH   4   8
BRANCH   1  15
ATOM     14  C   LIG    1       -0.019   1.526   0.010  0.00  0.00    +0.030 C 
ATOM     15  C   LIG    1        0.002  -0.004   0.002  0.00  0.00    +0.330 C 
ENDBRANCH   1  15
TORSDOF 2
ENDMDL
MODEL       35
REMARK  Name = ZINC000604381511
REMARK                            x       y       z     vdW  Elec       q    Type
REMARK                         _______ _______ _______ _____ _____    ______ ____
ROOT
ATOM      1  C   LIG    1       -0.018   1.503   0.010  0.00  0.00    +0.110 C 
ATOM      2  C   LIG    1        0.002  -0.004   0.002  0.00  0.00    +0.520 C 
ATOM      3  N   LIG    1       -1.156  -0.694   0.009  0.00  0.00    -0.620 N 
ATOM      4  C   LIG    1       -2.451   0.001   0.019  0.00  0.00    +0.310 C 
ATOM      5  C   LIG    1       -3.313  -0.529  -1.131  0.00  0.00    +0.110 C 
ATOM      6  C   LIG    1       -4.705   0.103  -1.038  0.00  0.00    +0.260 C 
ATOM      7  O   LIG    1       -5.552  -0.452  -2.047  0.00  0.00    -0.370 OA
ATOM      8  C   LIG    1       -5.698  -1.872  -1.951  0.00  0.00    +0.250 C 
ATOM      9  C   LIG    1       -4.319  -2.525  -2.070  0.00  0.00    +0.120 C 
ATOM     10  N   LIG    1       -3.425  -1.992  -1.030  0.00  0.00    -0.500 NA
ATOM     11  C   LIG    1       -2.111  -2.638  -1.102  0.00  0.00    +0.060 C 
ATOM     12  C   LIG    1       -2.180  -4.164  -1.249  0.00  0.00    +0.340 C 
ATOM     13  N   LIG    1       -2.163  -3.921  -2.709  0.00  0.00    -0.540 N 
ATOM     14  H   LIG    1       -3.087  -3.829  -3.104  0.00  0.00    +0.430 HD
ATOM     15  H   LIG    1       -1.591  -4.584  -3.211  0.00  0.00    +0.430 HD
ATOM     16  C   LIG    1       -1.492  -2.617  -2.507  0.00  0.00    +0.280 C 
ATOM     17  C   LIG    1       -1.162  -2.167   0.002  0.00  0.00    +0.340 C 
ATOM     18  O   LIG    1        1.060  -0.596  -0.011  0.00  0.00    -0.530 OA
ENDROOT
TORSDOF 0
ENDMDL
MODEL       36
REMARK  Name = ZINC000585099617
REMARK                            x       y       z     vdW  Elec       q    Type
REMARK                         _______ _______ _______ _____ _____    ______ ____
ROOT
ATOM      1  C   LIG    1       -0.018   1.461   0.010  0.00  0.00    +0.320 C 
ATOM      2  N   LIG    1        0.002  -0.004   0.002  0.00  0.00    -0.620 N 
ATOM      3  C   LIG    1       -1.048  -1.016   0.000  0.00  0.00    +0.300 C 
ATOM      4  C   LIG    1        0.049  -2.070  -0.010  0.00  0.00    -0.150 C 
ATOM      5  C   LIG    1        0.104  -2.924   1.257  0.00  0.00    +0.090 C 
ATOM      6  C   LIG    1       -1.001  -3.983   1.187  0.00  0.00    +0.070 C 
ATOM      7  C   LIG    1       -0.851  -4.781  -0.110  0.00  0.00    +0.250 C 
ATOM      8  N   LIG    1       -1.002  -3.888  -1.264  0.00  0.00    -0.380 N 
ATOM      9  H   LIG    1       -1.884  -3.401  -1.199  0.00  0.00    +0.430 HD
ATOM     10  C   LIG    1        0.095  -2.911  -1.285  0.00  0.00    +0.310 C 
ATOM     11  C   LIG    1        0.991  -0.907  -0.012  0.00  0.00    +0.540 C 
ATOM     12  O   LIG    1        2.200  -0.816  -0.020  0.00  0.00    -0.480 OA
ENDROOT
BRANCH   8  13
ATOM     13  C   LIG    1       -0.973  -4.680  -2.501  0.00  0.00    +0.250 C 
BRANCH  13  14
ATOM     14  C   LIG    1       -2.190  -5.606  -2.543  0.00  0.00    +0.210 C 
BRANCH  14  15
ATOM     15  O   LIG    1       -3.382  -4.822  -2.624  0.00  0.00    -0.540 OA
ATOM     16  H   LIG    1       -3.428  -4.255  -3.406  0.00  0.00    +0.390 HD
ENDBRANCH  14  15
BRANCH  14  17
ATOM     17  C   LIG    1       -2.095  -6.518  -3.768  0.00  0.00    +0.180 C 
BRANCH  17  18
ATOM     18  O   LIG    1       -3.169  -7.460  -3.745  0.00  0.00    -0.560 OA
ATOM     19  H   LIG    1       -3.172  -8.072  -4.494  0.00  0.00    +0.400 HD
ENDBRANCH  17  18
ENDBRANCH  14  17
ENDBRANCH  13  14
ENDBRANCH   8  13
TORSDOF 5
ENDMDL
MODEL       37
REMARK  Name = ZINC000585099618
REMARK                            x       y       z     vdW  Elec       q    Type
REMARK                         _______ _______ _______ _____ _____    ______ ____
ROOT
ATOM      1  C   LIG    1       -0.018   1.461   0.010  0.00  0.00    +0.330 C 
ATOM      2  N   LIG    1        0.002  -0.004   0.002  0.00  0.00    -0.620 N 
ATOM      3  C   LIG    1       -1.048  -1.016   0.000  0.00  0.00    +0.330 C 
ATOM      4  C   LIG    1        0.048  -2.070  -0.009  0.00  0.00    -0.150 C 
ATOM      5  C   LIG    1        0.096  -2.910  -1.287  0.00  0.00    +0.090 C 
ATOM      6  C   LIG    1        1.322  -3.828  -1.228  0.00  0.00    +0.070 C 
ATOM      7  C   LIG    1        1.270  -4.653   0.059  0.00  0.00    +0.260 C 
ATOM      8  N   LIG    1        1.312  -3.762   1.224  0.00  0.00    -0.380 N 
ATOM      9  H   LIG    1        2.128  -3.171   1.165  0.00  0.00    +0.430 HD
ATOM     10  C   LIG    1        0.105  -2.925   1.256  0.00  0.00    +0.300 C 
ATOM     11  C   LIG    1        0.991  -0.907  -0.012  0.00  0.00    +0.520 C 
ATOM     12  O   LIG    1        2.200  -0.816  -0.020  0.00  0.00    -0.500 OA
ENDROOT
BRANCH   8  13
ATOM     13  C   LIG    1        1.379  -4.566   2.452  0.00  0.00    +0.250 C 
BRANCH  13  14
ATOM     14  C   LIG    1        2.700  -5.338   2.484  0.00  0.00    +0.210 C 
BRANCH  14  15
ATOM     15  O   LIG    1        3.788  -4.417   2.576  0.00  0.00    -0.540 OA
ATOM     16  H   LIG    1        3.765  -3.858   3.365  0.00  0.00    +0.390 HD
ENDBRANCH  14  15
BRANCH  14  17
ATOM     17  C   LIG    1        2.716  -6.270   3.698  0.00  0.00    +0.180 C 
BRANCH  17  18
ATOM     18  O   LIG    1        3.897  -7.074   3.665  0.00  0.00    -0.560 OA
ATOM     19  H   LIG    1        3.974  -7.690   4.407  0.00  0.00    +0.400 HD
ENDBRANCH  17  18
ENDBRANCH  14  17
ENDBRANCH  13  14
ENDBRANCH   8  13
TORSDOF 5
ENDMDL
MODEL       38
REMARK  Name = ZINC000585099619
REMARK                            x       y       z     vdW  Elec       q    Type
REMARK                         _______ _______ _______ _____ _____    ______ ____
ROOT
ATOM      1  C   LIG    1        0.283   1.501  -0.233  0.00  0.00    +0.320 C 
ATOM      2  N   LIG    1        0.285   0.036  -0.209  0.00  0.00    -0.620 N 
ATOM      3  C   LIG    1       -0.773  -0.960  -0.090  0.00  0.00    +0.310 C 
ATOM      4  C   LIG    1        0.305  -2.030  -0.177  0.00  0.00    -0.150 C 
ATOM      5  C   LIG    1        0.467  -2.856   1.100  0.00  0.00    +0.090 C 
ATOM      6  C   LIG    1       -0.653  -3.901   1.157  0.00  0.00    +0.070 C 
ATOM      7  C   LIG    1       -0.633  -4.730  -0.129  0.00  0.00    +0.260 C 
ATOM      8  N   LIG    1       -0.879  -3.860  -1.286  0.00  0.00    -0.380 N 
ATOM      9  H   LIG    1       -1.744  -3.360  -1.151  0.00  0.00    +0.430 HD
ATOM     10  C   LIG    1        0.223  -2.900  -1.431  0.00  0.00    +0.310 C 
ATOM     11  C   LIG    1        1.257  -0.881  -0.293  0.00  0.00    +0.540 C 
ATOM     12  O   LIG    1        2.462  -0.807  -0.413  0.00  0.00    -0.480 OA
ENDROOT
BRANCH   8  13
ATOM     13  C   LIG    1       -0.973  -4.680  -2.501  0.00  0.00    +0.250 C 
BRANCH  13  14
ATOM     14  C   LIG    1       -1.376  -3.795  -3.683  0.00  0.00    +0.210 C 
BRANCH  14  15
ATOM     15  O   LIG    1       -2.647  -3.198  -3.418  0.00  0.00    -0.550 OA
ATOM     16  H   LIG    1       -3.361  -3.837  -3.283  0.00  0.00    +0.390 HD
ENDBRANCH  14  15
BRANCH  14  17
ATOM     17  C   LIG    1       -1.467  -4.647  -4.950  0.00  0.00    +0.180 C 
BRANCH  17  18
ATOM     18  O   LIG    1       -1.729  -3.804  -6.074  0.00  0.00    -0.560 OA
ATOM     19  H   LIG    1       -1.799  -4.278  -6.913  0.00  0.00    +0.400 HD
ENDBRANCH  17  18
ENDBRANCH  14  17
ENDBRANCH  13  14
ENDBRANCH   8  13
TORSDOF 5
ENDMDL
MODEL       39
REMARK  Name = ZINC000585099614
REMARK                            x       y       z     vdW  Elec       q    Type
REMARK                         _______ _______ _______ _____ _____    ______ ____
ROOT
ATOM      1  C   LIG    1       -0.323   1.466   0.226  0.00  0.00    +0.320 C 
ATOM      2  N   LIG    1       -0.284   0.002   0.198  0.00  0.00    -0.620 N 
ATOM      3  C   LIG    1       -1.315  -1.025   0.282  0.00  0.00    +0.330 C 
ATOM      4  C   LIG    1       -0.211  -2.063   0.157  0.00  0.00    -0.150 C 
ATOM      5  C   LIG    1       -0.272  -2.888  -1.129  0.00  0.00    +0.090 C 
ATOM      6  C   LIG    1        0.967  -3.789  -1.197  0.00  0.00    +0.070 C 
ATOM      7  C   LIG    1        1.047  -4.629   0.079  0.00  0.00    +0.250 C 
ATOM      8  N   LIG    1        1.186  -3.750   1.246  0.00  0.00    -0.380 N 
ATOM      9  H   LIG    1        1.985  -3.147   1.118  0.00  0.00    +0.430 HD
ATOM     10  C   LIG    1       -0.024  -2.931   1.401  0.00  0.00    +0.310 C 
ATOM     11  C   LIG    1        0.711  -0.886   0.080  0.00  0.00    +0.520 C 
ATOM     12  O   LIG    1        1.913  -0.778  -0.040  0.00  0.00    -0.490 OA
ENDROOT
BRANCH   8  13
ATOM     13  C   LIG    1        1.379  -4.566   2.452  0.00  0.00    +0.250 C 
BRANCH  13  14
ATOM     14  C   LIG    1        1.673  -3.653   3.644  0.00  0.00    +0.210 C 
BRANCH  14  15
ATOM     15  O   LIG    1        2.862  -2.904   3.389  0.00  0.00    -0.540 OA
ATOM     16  H   LIG    1        3.648  -3.449   3.246  0.00  0.00    +0.390 HD
ENDBRANCH  14  15
BRANCH  14  17
ATOM     17  C   LIG    1        1.866  -4.503   4.902  0.00  0.00    +0.180 C 
BRANCH  17  18
ATOM     18  O   LIG    1        2.025  -3.647   6.035  0.00  0.00    -0.560 OA
ATOM     19  H   LIG    1        2.152  -4.119   6.870  0.00  0.00    +0.400 HD
ENDBRANCH  17  18
ENDBRANCH  14  17
ENDBRANCH  13  14
ENDBRANCH   8  13
TORSDOF 5
ENDMDL
MODEL       40
REMARK  Name = ZINC000059946561
REMARK                            x       y       z     vdW  Elec       q    Type
REMARK                         _______ _______ _______ _____ _____    ______ ____
ROOT
ATOM      1  C   LIG    1        0.739  -2.027  -1.265  0.00  0.00    +0.170 C 
ENDROOT
BRANCH   1   2
ATOM      2  O   LIG    1        1.430  -2.501  -0.107  0.00  0.00    -0.520 OA
ATOM      3  H   LIG    1        2.348  -2.203  -0.049  0.00  0.00    +0.380 HD
ENDBRANCH   1   2
BRANCH   1   4
ATOM      4  C   LIG    1        0.718  -0.497  -1.257  0.00  0.00    +0.150 C 
BRANCH   4   6
ATOM      5  C   LIG    1       -0.019   1.526   0.010  0.00  0.00    +0.010 C 
ATOM      6  C   LIG    1        0.002  -0.004   0.002  0.00  0.00    +0.180 C 
BRANCH   6   7
ATOM      7  O   LIG    1        0.693  -0.477   1.160  0.00  0.00    -0.540 OA
ATOM      8  H   LIG    1        1.611  -0.180   1.219  0.00  0.00    +0.370 HD
ENDBRANCH   6   7
ENDBRANCH   4   6
BRANCH   4   9
ATOM      9  O   LIG    1        0.027  -0.024  -2.414  0.00  0.00    -0.530 OA
ATOM     10  H   LIG    1       -0.891  -0.322  -2.473  0.00  0.00    +0.380 HD
ENDBRANCH   4   9
ENDBRANCH   1   4
BRANCH   1  11
ATOM     11  C   LIG    1        1.455  -2.521  -2.524  0.00  0.00    +0.200 C 
BRANCH  11  12
ATOM     12  C   LIG    1        1.476  -4.051  -2.532  0.00  0.00    +0.190 C 
ATOM     13  N   LIG    1        2.234  -4.551  -3.702  0.00  0.00    -0.510 N 
ATOM     14  C   LIG    1        1.687  -5.838  -4.172  0.00  0.00    +0.300 C 
ATOM     15  C   LIG    1        0.147  -5.671  -4.289  0.00  0.00    +0.180 C 
ATOM     16  H   LIG    1        3.200  -4.678  -3.441  0.00  0.00    +0.440 HD
ATOM     17  H   LIG    1        2.178  -3.874  -4.448  0.00  0.00    +0.440 HD
ATOM     18  S   LIG    1       -0.218  -4.712  -2.761  0.00  0.00    -0.160 S 
ENDBRANCH  11  12
BRANCH  11  19
ATOM     19  O   LIG    1        0.764  -2.047  -3.682  0.00  0.00    -0.530 OA
ATOM     20  H   LIG    1       -0.154  -2.345  -3.741  0.00  0.00    +0.390 HD
ENDBRANCH  11  19
ENDBRANCH   1  11
TORSDOF 8
ENDMDL
MODEL       41
REMARK  Name = ZINC000247723553
REMARK                            x       y       z     vdW  Elec       q    Type
REMARK                         _______ _______ _______ _____ _____    ______ ____
ROOT
ATOM      1  C   LIG    1       -2.851  -2.587  -0.110  0.00  0.00    +0.220 C 
ENDROOT
BRANCH   1   2
ATOM      2  C   LIG    1       -2.833  -4.111  -0.244  0.00  0.00    +0.170 C 
ATOM      3  N   LIG    1       -4.219  -4.655  -0.306  0.00  0.00    -0.510 N 
ATOM      4  C   LIG    1       -4.168  -6.017  -0.870  0.00  0.00    +0.290 C 
ATOM      5  C   LIG    1       -3.312  -6.006  -2.157  0.00  0.00    +0.130 C 
ATOM      6  H   LIG    1       -4.788  -4.067  -0.896  0.00  0.00    +0.440 HD
ATOM      7  H   LIG    1       -4.613  -4.686   0.623  0.00  0.00    +0.440 HD
ATOM      8  S   LIG    1       -2.142  -4.617  -1.869  0.00  0.00    -0.100 S 
ENDBRANCH   1   2
BRANCH   1   9
ATOM      9  O   LIG    1       -3.483  -2.224   1.119  0.00  0.00    -0.520 OA
ATOM     10  H   LIG    1       -3.044  -2.575   1.906  0.00  0.00    +0.390 HD
ENDBRANCH   1   9
BRANCH   1  11
ATOM     11  C   LIG    1       -1.416  -2.058  -0.121  0.00  0.00    +0.170 C 
BRANCH  11  12
ATOM     12  O   LIG    1       -0.783  -2.420  -1.350  0.00  0.00    -0.530 OA
ATOM     13  H   LIG    1       -1.223  -2.070  -2.137  0.00  0.00    +0.390 HD
ENDBRANCH  11  12
BRANCH  11  14
ATOM     14  C   LIG    1       -1.433  -0.534   0.013  0.00  0.00    +0.200 C 
BRANCH  14  15
ATOM     15  O   LIG    1       -2.066  -0.171   1.242  0.00  0.00    -0.530 OA
ATOM     16  H   LIG    1       -1.626  -0.521   2.029  0.00  0.00    +0.370 HD
ENDBRANCH  14  15
BRANCH  14  17
ATOM     17  C   LIG    1        0.002  -0.004   0.002  0.00  0.00    +0.150 C 
BRANCH  17  18
ATOM     18  O   LIG    1       -0.017   1.425   0.010  0.00  0.00    -0.560 OA
ATOM     19  H   LIG    1        0.861   1.830   0.004  0.00  0.00    +0.390 HD
ENDBRANCH  17  18
ENDBRANCH  14  17
ENDBRANCH  11  14
ENDBRANCH   1  11
TORSDOF 8
ENDMDL
MODEL       42
REMARK  Name = ZINC000079418604
REMARK                            x       y       z     vdW  Elec       q    Type
REMARK                         _______ _______ _______ _____ _____    ______ ____
ROOT
ATOM      1  C   LIG    1       -1.163  -2.111   0.162  0.00  0.00    +0.250 C 
ATOM      2  C   LIG    1       -0.966  -2.847  -1.169  0.00  0.00    +0.330 C 
ATOM      3  N   LIG    1       -1.153  -4.287  -0.942  0.00  0.00    -0.590 N 
ATOM      4  C   LIG    1       -2.407  -4.750  -0.330  0.00  0.00    +0.280 C 
ATOM      5  C   LIG    1       -2.603  -4.014   1.001  0.00  0.00    +0.300 C 
ATOM      6  C   LIG    1       -0.193  -5.167  -1.288  0.00  0.00    +0.500 C 
ATOM      7  O   LIG    1        0.838  -4.772  -1.792  0.00  0.00    -0.520 OA
ATOM      8  N   LIG    1       -2.414  -2.573   0.777  0.00  0.00    -0.620 N 
ATOM      9  C   LIG    1       -3.374  -1.693   1.126  0.00  0.00    +0.510 C 
ATOM     10  O   LIG    1       -3.233  -0.514   0.881  0.00  0.00    -0.500 OA
ATOM     11  C   LIG    1       -4.622  -2.175   1.819  0.00  0.00    +0.120 C 
ENDROOT
BRANCH   1  12
ATOM     12  C   LIG    1       -1.240  -0.627  -0.088  0.00  0.00    +0.480 C 
ATOM     13  O   LIG    1       -2.009  -0.192  -0.912  0.00  0.00    -0.480 OA
BRANCH  12  15
ATOM     14  C   LIG    1       -0.582   1.629   0.313  0.00  0.00    +0.270 C 
ATOM     15  O   LIG    1       -0.454   0.212   0.606  0.00  0.00    -0.360 OA
ENDBRANCH  12  15
ENDBRANCH   1  12
BRANCH   6  16
ATOM     16  C   LIG    1       -0.399  -6.640  -1.049  0.00  0.00    +0.310 C 
BRANCH  16  17
ATOM     17  N   LIG    1        0.783  -7.381  -1.509  0.00  0.00    -0.620 N 
ATOM     18  H   LIG    1        0.921  -7.216  -2.495  0.00  0.00    +0.440 HD
ATOM     19  H   LIG    1        0.645  -8.368  -1.349  0.00  0.00    +0.450 HD
ATOM     20  H   LIG    1        1.595  -7.068  -0.999  0.00  0.00    +0.440 HD
ENDBRANCH  16  17
ENDBRANCH   6  16
TORSDOF 4
ENDMDL
MODEL       43
REMARK  Name = ZINC000079430450
REMARK                            x       y       z     vdW  Elec       q    Type
REMARK                         _______ _______ _______ _____ _____    ______ ____
ROOT
ATOM      1  C   LIG    1       -1.244  -2.137   0.003  0.00  0.00    +0.280 C 
ATOM      2  C   LIG    1       -0.888  -2.689   1.387  0.00  0.00    +0.220 C 
ATOM      3  N   LIG    1       -1.092  -4.144   1.398  0.00  0.00    -0.530 NA
ATOM      4  C   LIG    1       -2.502  -4.487   1.172  0.00  0.00    +0.180 C 
ATOM      5  C   LIG    1       -2.924  -4.008  -0.221  0.00  0.00    +0.310 C 
ATOM      6  N   LIG    1       -2.604  -2.577  -0.345  0.00  0.00    -0.620 N 
ATOM      7  C   LIG    1       -3.533  -1.694  -0.759  0.00  0.00    +0.510 C 
ATOM      8  O   LIG    1       -3.227  -0.536  -0.950  0.00  0.00    -0.500 OA
ATOM      9  C   LIG    1       -4.954  -2.144  -0.985  0.00  0.00    +0.110 C 
ENDROOT
BRANCH   1  10
ATOM     10  C   LIG    1       -1.191  -0.631   0.029  0.00  0.00    +0.460 C 
ATOM     11  O   LIG    1       -2.052  -0.006   0.602  0.00  0.00    -0.470 OA
BRANCH  10  13
ATOM     12  C   LIG    1       -0.201   1.466  -0.518  0.00  0.00    +0.270 C 
ATOM     13  O   LIG    1       -0.188   0.016  -0.584  0.00  0.00    -0.360 OA
ENDBRANCH  10  13
ENDBRANCH   1  10
BRANCH   3  14
ATOM     14  C   LIG    1       -0.600  -4.735   2.649  0.00  0.00    +0.180 C 
BRANCH  14  15
ATOM     15  C   LIG    1       -0.597  -6.260   2.526  0.00  0.00    +0.270 C 
BRANCH  15  16
ATOM     16  N   LIG    1       -0.105  -6.851   3.778  0.00  0.00    -0.640 N 
ATOM     17  H   LIG    1        0.833  -6.527   3.958  0.00  0.00    +0.440 HD
ATOM     18  H   LIG    1       -0.103  -7.857   3.697  0.00  0.00    +0.440 HD
ATOM     19  H   LIG    1       -0.708  -6.577   4.539  0.00  0.00    +0.440 HD
ENDBRANCH  15  16
ENDBRANCH  14  15
ENDBRANCH   3  14
TORSDOF 5
ENDMDL
MODEL       44
REMARK  Name = ZINC000079430453
REMARK                            x       y       z     vdW  Elec       q    Type
REMARK                         _______ _______ _______ _____ _____    ______ ____
ROOT
ATOM      1  C   LIG    1       -1.245  -2.137   0.001  0.00  0.00    +0.280 C 
ATOM      2  C   LIG    1       -1.164  -2.631  -1.447  0.00  0.00    +0.210 C 
ATOM      3  N   LIG    1       -1.387  -4.082  -1.479  0.00  0.00    -0.530 NA
ATOM      4  C   LIG    1       -2.735  -4.425  -1.007  0.00  0.00    +0.170 C 
ATOM      5  C   LIG    1       -2.881  -4.004   0.460  0.00  0.00    +0.310 C 
ATOM      6  N   LIG    1       -2.522  -2.582   0.580  0.00  0.00    -0.620 N 
ATOM      7  C   LIG    1       -3.343  -1.711   1.198  0.00  0.00    +0.510 C 
ATOM      8  O   LIG    1       -3.080  -0.527   1.202  0.00  0.00    -0.510 OA
ATOM      9  C   LIG    1       -4.590  -2.207   1.883  0.00  0.00    +0.110 C 
ENDROOT
BRANCH   1  10
ATOM     10  C   LIG    1       -1.175  -0.632   0.027  0.00  0.00    +0.470 C 
ATOM     11  O   LIG    1       -2.058   0.023  -0.475  0.00  0.00    -0.470 OA
BRANCH  10  13
ATOM     12  C   LIG    1       -0.131   1.434   0.597  0.00  0.00    +0.270 C 
ATOM     13  O   LIG    1       -0.132  -0.018   0.609  0.00  0.00    -0.360 OA
ENDBRANCH  10  13
ENDBRANCH   1  10
BRANCH   3  14
ATOM     14  C   LIG    1       -1.148  -4.622  -2.824  0.00  0.00    +0.190 C 
BRANCH  14  15
ATOM     15  C   LIG    1       -1.626  -6.074  -2.884  0.00  0.00    +0.270 C 
BRANCH  15  16
ATOM     16  N   LIG    1       -1.387  -6.614  -4.229  0.00  0.00    -0.640 N 
ATOM     17  H   LIG    1       -1.895  -6.065  -4.906  0.00  0.00    +0.440 HD
ATOM     18  H   LIG    1       -1.702  -7.572  -4.268  0.00  0.00    +0.440 HD
ATOM     19  H   LIG    1       -0.400  -6.576  -4.436  0.00  0.00    +0.440 HD
ENDBRANCH  15  16
ENDBRANCH  14  15
ENDBRANCH   3  14
TORSDOF 5
ENDMDL
MODEL       45
REMARK  Name = ZINC000002004224
REMARK                            x       y       z     vdW  Elec       q    Type
REMARK                         _______ _______ _______ _____ _____    ______ ____
ROOT
ATOM      1  C   LIG    1        0.001  -4.173  -0.023  0.00  0.00    +0.450 C 
ATOM      2  C   LIG    1       -0.698  -4.706   1.253  0.00  0.00    +0.100 C 
ATOM      3  C   LIG    1        0.470  -4.647   2.276  0.00  0.00    +0.150 C 
ATOM      4  C   LIG    1        1.694  -4.978   1.394  0.00  0.00    +0.180 C 
ATOM      5  O   LIG    1        1.338  -4.695   0.034  0.00  0.00    -0.330 OA
ENDROOT
BRANCH   1   9
ATOM      6  C   LIG    1        0.002  -0.004   0.002  0.00  0.00    +0.510 A 
ATOM      7  N   LIG    1       -1.135  -0.687   0.004  0.00  0.00    -0.610 NA
ATOM      8  C   LIG    1       -1.129  -2.018  -0.004  0.00  0.00    +0.660 A 
ATOM      9  N   LIG    1        0.026  -2.708  -0.014  0.00  0.00    -0.560 N 
ATOM     10  C   LIG    1        1.220  -2.050  -0.016  0.00  0.00    +0.350 A 
ATOM     11  O   LIG    1       -2.189  -2.623  -0.003  0.00  0.00    -0.540 OA
ATOM     12  C   LIG    1        1.230  -0.697  -0.013  0.00  0.00    -0.130 A 
BRANCH   6  13
ATOM     13  N   LIG    1       -0.017   1.371   0.010  0.00  0.00    -0.800 N 
ATOM     14  H   LIG    1       -0.863   1.845   0.016  0.00  0.00    +0.420 HD
ATOM     15  H   LIG    1        0.817   1.868   0.004  0.00  0.00    +0.420 HD
ENDBRANCH   6  13
ENDBRANCH   1   9
BRANCH   3  16
ATOM     16  N   LIG    1        0.292  -5.654   3.330  0.00  0.00    -0.620 N 
ATOM     17  H   LIG    1       -0.563  -5.468   3.833  0.00  0.00    +0.450 HD
ATOM     18  H   LIG    1        1.073  -5.614   3.968  0.00  0.00    +0.440 HD
ATOM     19  H   LIG    1        0.245  -6.572   2.914  0.00  0.00    +0.440 HD
ENDBRANCH   3  16
BRANCH   4  20
ATOM     20  C   LIG    1        2.883  -4.111   1.813  0.00  0.00    +0.180 C 
BRANCH  20  21
ATOM     21  O   LIG    1        4.042  -4.503   1.073  0.00  0.00    -0.550 OA
ATOM     22  H   LIG    1        4.836  -3.995   1.287  0.00  0.00    +0.400 HD
ENDBRANCH  20  21
ENDBRANCH   4  20
TORSDOF 5
ENDMDL
MODEL       46
REMARK  Name = ZINC000038792211
REMARK                            x       y       z     vdW  Elec       q    Type
REMARK                         _______ _______ _______ _____ _____    ______ ____
ROOT
ATOM      1  C   LIG    1        0.733  -1.960   1.184  0.00  0.00    +0.151 C 
ATOM      2  C   LIG    1        1.365  -2.470   2.482  0.00  0.00    +0.198 C 
ATOM      3  C   LIG    1        1.451  -3.998   2.429  0.00  0.00    +0.180 C 
ATOM      4  C   LIG    1        2.250  -4.414   1.191  0.00  0.00    +0.178 C 
ATOM      5  O   LIG    1        1.626  -3.881   0.021  0.00  0.00    -0.338 OA
ATOM      6  C   LIG    1        1.558  -2.453  -0.007  0.00  0.00    +0.300 C 
ENDROOT
BRANCH   1   7
ATOM      7  N   LIG    1        0.713  -0.491   1.192  0.00  0.00    +0.234 N 
ATOM      8  H   LIG    1        0.240  -0.165   2.022  0.00  0.00    +0.202 HD
ATOM      9  H   LIG    1        1.659  -0.141   1.185  0.00  0.00    +0.202 HD
BRANCH   7  11
ATOM     10  C   LIG    1       -0.019   1.526   0.010  0.00  0.00    +0.060 C 
ATOM     11  C   LIG    1        0.002  -0.004   0.002  0.00  0.00    +0.126 C 
ENDBRANCH   7  11
ENDBRANCH   1   7
BRANCH   3  12
ATOM     12  O   LIG    1        2.104  -4.481   3.605  0.00  0.00    -0.386 OA
ATOM     13  H   LIG    1        2.194  -5.444   3.638  0.00  0.00    +0.210 HD
ENDBRANCH   3  12
BRANCH   2  14
ATOM     14  O   LIG    1        0.560  -2.074   3.594  0.00  0.00    -0.383 OA
ATOM     15  H   LIG    1        0.902  -2.364   4.451  0.00  0.00    +0.210 HD
ENDBRANCH   2  14
BRANCH   6  16
ATOM     16  O   LIG    1        2.878  -1.912   0.074  0.00  0.00    -0.363 OA
ATOM     17  H   LIG    1        3.460  -2.185  -0.649  0.00  0.00    +0.213 HD
ENDBRANCH   6  16
BRANCH   4  18
ATOM     18  C   LIG    1        2.290  -5.940   1.098  0.00  0.00    +0.190 C 
BRANCH  18  19
ATOM     19  O   LIG    1        3.132  -6.329   0.011  0.00  0.00    -0.392 OA
ATOM     20  H   LIG    1        3.204  -7.286  -0.108  0.00  0.00    +0.210 HD
ENDBRANCH  18  19
ENDBRANCH   4  18
TORSDOF 7
ENDMDL
MODEL       47
REMARK  Name = ZINC000103176313
REMARK                            x       y       z     vdW  Elec       q    Type
REMARK                         _______ _______ _______ _____ _____    ______ ____
ROOT
ATOM      1  C   LIG    1       -1.256  -1.975   0.071  0.00  0.00    +0.151 C 
ATOM      2  C   LIG    1       -0.676  -2.387   1.427  0.00  0.00    +0.300 C 
ATOM      3  O   LIG    1       -0.613  -3.813   1.504  0.00  0.00    -0.338 OA
ATOM      4  C   LIG    1       -1.884  -4.459   1.400  0.00  0.00    +0.178 C 
ATOM      5  C   LIG    1       -2.512  -4.130   0.043  0.00  0.00    +0.180 C 
ATOM      6  C   LIG    1       -2.639  -2.610  -0.099  0.00  0.00    +0.198 C 
ENDROOT
BRANCH   1   7
ATOM      7  N   LIG    1       -1.376  -0.512   0.012  0.00  0.00    +0.234 N 
ATOM      8  H   LIG    1       -0.457  -0.098   0.039  0.00  0.00    +0.202 HD
ATOM      9  H   LIG    1       -1.840  -0.247  -0.843  0.00  0.00    +0.202 HD
BRANCH   7  11
ATOM     10  C   LIG    1       -2.395   1.467   1.032  0.00  0.00    +0.060 C 
ATOM     11  C   LIG    1       -2.160  -0.039   1.161  0.00  0.00    +0.126 C 
ENDBRANCH   7  11
ENDBRANCH   1   7
BRANCH   5  12
ATOM     12  O   LIG    1       -3.807  -4.729  -0.041  0.00  0.00    -0.386 OA
ATOM     13  H   LIG    1       -3.802  -5.692   0.044  0.00  0.00    +0.210 HD
ENDBRANCH   5  12
BRANCH   2  14
ATOM     14  O   LIG    1        0.639  -1.844   1.568  0.00  0.00    -0.363 OA
ATOM     15  H   LIG    1        1.068  -2.065   2.405  0.00  0.00    +0.213 HD
ENDBRANCH   2  14
BRANCH   6  16
ATOM     16  O   LIG    1       -3.159  -2.293  -1.392  0.00  0.00    -0.383 OA
ATOM     17  H   LIG    1       -4.032  -2.669  -1.568  0.00  0.00    +0.210 HD
ENDBRANCH   6  16
BRANCH   4  18
ATOM     18  C   LIG    1       -1.698  -5.972   1.523  0.00  0.00    +0.190 C 
BRANCH  18  19
ATOM     19  O   LIG    1       -1.220  -6.288   2.832  0.00  0.00    -0.392 OA
ATOM     20  H   LIG    1       -1.079  -7.233   2.982  0.00  0.00    +0.210 HD
ENDBRANCH  18  19
ENDBRANCH   4  18
TORSDOF 7
ENDMDL
MODEL       48
REMARK  Name = ZINC000050242618
REMARK                            x       y       z     vdW  Elec       q    Type
REMARK                         _______ _______ _______ _____ _____    ______ ____
ROOT
ATOM      1  C   LIG    1       -0.699   1.479   1.216  0.00  0.00    +0.170 C 
ATOM      2  C   LIG    1       -0.670   3.023   1.280  0.00  0.00    +0.070 C 
ATOM      3  C   LIG    1       -0.435   3.304   2.785  0.00  0.00    +0.210 C 
ATOM      4  N   LIG    1        0.503   2.225   3.189  0.00  0.00    -0.500 NA
ATOM      5  C   LIG    1        0.050   1.008   2.477  0.00  0.00    +0.200 C 
ENDROOT
BRANCH   1   6
ATOM      6  N   LIG    1       -0.012   1.005   0.008  0.00  0.00    -0.630 N 
ATOM      7  H   LIG    1       -0.500   1.339  -0.810  0.00  0.00    +0.440 HD
ATOM      8  H   LIG    1        0.935   1.354   0.000  0.00  0.00    +0.440 HD
ATOM      9  H   LIG    1        0.002  -0.004   0.002  0.00  0.00    +0.440 HD
ENDBRANCH   1   6
BRANCH   4  10
ATOM     10  C   LIG    1        0.477   2.022   4.644  0.00  0.00    +0.210 C 
BRANCH  10  11
ATOM     11  C   LIG    1        1.108   3.208   5.328  0.00  0.00    +0.520 C 
ATOM     12  N   LIG    1        1.195   3.242   6.672  0.00  0.00    -0.620 N 
ATOM     13  C   LIG    1        0.686   2.132   7.493  0.00  0.00    +0.250 C 
ATOM     14  C   LIG    1        1.786   1.714   8.476  0.00  0.00    +0.220 C 
ATOM     15  O   LIG    1        2.247   2.868   9.184  0.00  0.00    -0.370 OA
ATOM     16  C   LIG    1        2.847   3.864   8.352  0.00  0.00    +0.220 C 
ATOM     17  C   LIG    1        1.807   4.389   7.362  0.00  0.00    +0.270 C 
ATOM     18  O   LIG    1        1.537   4.130   4.668  0.00  0.00    -0.520 OA
ENDBRANCH  10  11
ENDBRANCH   4  10
TORSDOF 3
ENDMDL
MODEL       49
REMARK  Name = ZINC000064875810
REMARK                            x       y       z     vdW  Elec       q    Type
REMARK                         _______ _______ _______ _____ _____    ______ ____
ROOT
ATOM      1  C   LIG    1       -0.222  -0.570   0.132  0.00  0.00    +0.130 C 
ENDROOT
BRANCH   1   2
ATOM      2  O   LIG    1       -0.335   0.837   0.353  0.00  0.00    -0.560 OA
ATOM      3  H   LIG    1        0.507   1.311   0.307  0.00  0.00    +0.380 HD
ENDBRANCH   1   2
BRANCH   1   4
ATOM      4  C   LIG    1        0.362  -0.823  -1.260  0.00  0.00    +0.220 C 
BRANCH   4   5
ATOM      5  N   LIG    1       -0.582  -0.348  -2.280  0.00  0.00    -0.550 NA
ATOM      6  C   LIG    1       -0.795   1.115  -2.168  0.00  0.00    +0.210 C 
ATOM      7  C   LIG    1       -1.244   1.636  -3.509  0.00  0.00    +0.060 C 
ATOM      8  C   LIG    1       -2.775   1.672  -3.648  0.00  0.00    +0.250 C 
ATOM      9  N   LIG    1       -3.426   0.466  -3.089  0.00  0.00    -0.510 N 
ATOM     10  C   LIG    1       -2.709  -0.745  -3.417  0.00  0.00    +0.270 C 
ATOM     11  H   LIG    1       -4.364   0.400  -3.457  0.00  0.00    +0.430 HD
ATOM     12  H   LIG    1       -3.475   0.555  -2.085  0.00  0.00    +0.420 HD
ATOM     13  C   LIG    1       -1.768  -1.088  -2.248  0.00  0.00    +0.200 C 
ENDBRANCH   4   5
ENDBRANCH   1   4
BRANCH   1  14
ATOM     14  C   LIG    1        0.699  -1.181   1.190  0.00  0.00    +0.190 C 
BRANCH  14  15
ATOM     15  N   LIG    1        0.081  -1.044   2.515  0.00  0.00    -0.530 NA
ATOM     16  C   LIG    1       -1.325  -1.475   2.487  0.00  0.00    +0.140 C 
ATOM     17  C   LIG    1       -1.912  -1.373   3.897  0.00  0.00    +0.220 C 
ATOM     18  O   LIG    1       -1.766  -0.033   4.374  0.00  0.00    -0.380 OA
ATOM     19  C   LIG    1       -0.409   0.419   4.415  0.00  0.00    +0.220 C 
ATOM     20  C   LIG    1        0.193   0.336   3.010  0.00  0.00    +0.150 C 
ENDBRANCH  14  15
ENDBRANCH   1  14
TORSDOF 5
ENDMDL
MODEL       50
REMARK  Name = ZINC000005765073
REMARK                            x       y       z     vdW  Elec       q    Type
REMARK                         _______ _______ _______ _____ _____    ______ ____
ROOT
ATOM      1  C   LIG    1       -2.369  -2.831  -0.002  0.00  0.00    +0.450 C 
ATOM      2  C   LIG    1       -2.499  -3.656  -1.301  0.00  0.00    +0.010 C 
ATOM      3  C   LIG    1       -3.160  -4.976  -0.844  0.00  0.00    +0.180 C 
ATOM      4  C   LIG    1       -3.351  -4.791   0.678  0.00  0.00    +0.170 C 
ATOM      5  O   LIG    1       -2.362  -3.810   1.060  0.00  0.00    -0.370 OA
ENDROOT
BRANCH   1   9
ATOM      6  C   LIG    1       -0.018   1.503   0.010  0.00  0.00    +0.160 C 
ATOM      7  C   LIG    1        0.002  -0.004   0.002  0.00  0.00    -0.230 A 
ATOM      8  C   LIG    1       -1.153  -0.704   0.004  0.00  0.00    +0.330 A 
ATOM      9  N   LIG    1       -1.116  -2.072  -0.004  0.00  0.00    -0.530 N 
ATOM     10  C   LIG    1        0.060  -2.726  -0.013  0.00  0.00    +0.700 A 
ATOM     11  N   LIG    1        1.226  -2.053  -0.016  0.00  0.00    -0.660 N 
ATOM     12  H   LIG    1        2.064  -2.540  -0.023  0.00  0.00    +0.430 HD
ATOM     13  O   LIG    1        0.069  -3.942  -0.020  0.00  0.00    -0.530 OA
ATOM     14  C   LIG    1        1.232  -0.705  -0.013  0.00  0.00    +0.550 A 
ATOM     15  O   LIG    1        2.287  -0.095  -0.016  0.00  0.00    -0.490 OA
ENDBRANCH   1   9
BRANCH   3  16
ATOM     16  O   LIG    1       -4.422  -5.155  -1.491  0.00  0.00    -0.560 OA
ATOM     17  H   LIG    1       -4.364  -5.216  -2.454  0.00  0.00    +0.400 HD
ENDBRANCH   3  16
BRANCH   4  18
ATOM     18  C   LIG    1       -3.106  -6.112   1.410  0.00  0.00    +0.300 C 
BRANCH  18  19
ATOM     19  N   LIG    1       -3.408  -5.945   2.838  0.00  0.00    -0.640 N 
ATOM     20  H   LIG    1       -4.374  -5.675   2.947  0.00  0.00    +0.440 HD
ATOM     21  H   LIG    1       -2.812  -5.230   3.226  0.00  0.00    +0.440 HD
ATOM     22  H   LIG    1       -3.246  -6.816   3.320  0.00  0.00    +0.440 HD
ENDBRANCH  18  19
ENDBRANCH   4  18
TORSDOF 4
ENDMDL
MODEL       51
REMARK  Name = ZINC000085419441
REMARK                            x       y       z     vdW  Elec       q    Type
REMARK                         _______ _______ _______ _____ _____    ______ ____
ROOT
ATOM      1  O   LIG    1       -0.095   0.094   0.440  0.00  0.00    -0.520 OA
ATOM      2  C   LIG    1        0.001   1.198  -0.066  0.00  0.00    +0.660 A 
ATOM      3  N   LIG    1       -0.926   1.801  -0.838  0.00  0.00    -0.520 N 
ATOM      4  H   LIG    1       -1.788   1.433  -1.091  0.00  0.00    +0.470 HD
ATOM      5  N   LIG    1       -0.419   3.054  -1.211  0.00  0.00    -0.270 NA
ATOM      6  C   LIG    1        0.768   3.183  -0.674  0.00  0.00    +0.310 A 
ATOM      7  C   LIG    1        1.736   4.217  -0.703  0.00  0.00    -0.070 A 
ATOM      8  C   LIG    1        2.903   4.034  -0.020  0.00  0.00    +0.400 A 
ATOM      9  N   LIG    1        3.121   2.895   0.662  0.00  0.00    -0.540 NA
ATOM     10  C   LIG    1        2.247   1.933   0.703  0.00  0.00    +0.680 A 
ATOM     11  N   LIG    1        1.050   2.035   0.052  0.00  0.00    -0.520 N 
ENDROOT
BRANCH   8  12
ATOM     12  N   LIG    1        3.871   5.029  -0.029  0.00  0.00    -0.630 N 
ATOM     13  C   LIG    1        3.495   6.448  -0.119  0.00  0.00    +0.330 C 
ATOM     14  C   LIG    1        4.216   7.213   0.996  0.00  0.00    +0.270 C 
ATOM     15  N   LIG    1        5.660   6.961   0.907  0.00  0.00    -0.510 N 
ATOM     16  C   LIG    1        5.936   5.541   1.160  0.00  0.00    +0.270 C 
ATOM     17  H   LIG    1        6.141   7.522   1.594  0.00  0.00    +0.440 HD
ATOM     18  H   LIG    1        5.987   7.207  -0.015  0.00  0.00    +0.430 HD
ATOM     19  C   LIG    1        5.301   4.694   0.058  0.00  0.00    +0.330 C 
ENDBRANCH   8  12
TORSDOF 1
ENDMDL
MODEL       52
REMARK  Name = ZINC000225503081
REMARK                            x       y       z     vdW  Elec       q    Type
REMARK                         _______ _______ _______ _____ _____    ______ ____
ROOT
ATOM      1  C   LIG    1       -1.433  -0.534   0.013  0.00  0.00    +0.030 C 
ATOM      2  C   LIG    1       -1.441  -2.080  -0.075  0.00  0.00    +0.080 C 
ATOM      3  C   LIG    1       -2.812  -2.451   0.543  0.00  0.00    +0.180 C 
ATOM      4  C   LIG    1       -2.988  -1.447   1.702  0.00  0.00    +0.130 C 
ATOM      5  C   LIG    1       -2.112  -0.225   1.363  0.00  0.00    +0.170 C 
ENDROOT
BRANCH   3   6
ATOM      6  N   LIG    1       -2.791  -3.829   1.052  0.00  0.00    -0.500 N 
ATOM      7  H   LIG    1       -2.135  -3.895   1.816  0.00  0.00    +0.430 HD
ATOM      8  H   LIG    1       -2.510  -4.456   0.313  0.00  0.00    +0.430 HD
BRANCH   6   9
ATOM      9  C   LIG    1       -4.132  -4.197   1.524  0.00  0.00    +0.160 C 
ATOM     10  C   LIG    1       -5.102  -4.229   0.339  0.00  0.00    +0.020 C 
ATOM     11  C   LIG    1       -6.478  -4.689   0.827  0.00  0.00    +0.250 C 
ATOM     12  O   LIG    1       -6.358  -5.973   1.443  0.00  0.00    -0.370 OA
ATOM     13  C   LIG    1       -5.500  -5.994   2.586  0.00  0.00    +0.250 C 
ATOM     14  C   LIG    1       -4.085  -5.586   2.168  0.00  0.00    +0.020 C 
ENDBRANCH   6   9
ENDBRANCH   3   6
BRANCH   4  15
ATOM     15  O   LIG    1       -4.357  -1.053   1.804  0.00  0.00    -0.550 OA
ATOM     16  H   LIG    1       -4.533  -0.422   2.516  0.00  0.00    +0.400 HD
ENDBRANCH   4  15
BRANCH   5  17
ATOM     17  O   LIG    1       -2.926   0.944   1.252  0.00  0.00    -0.530 OA
ATOM     18  H   LIG    1       -3.395   1.175   2.066  0.00  0.00    +0.380 HD
ENDBRANCH   5  17
BRANCH   1  19
ATOM     19  C   LIG    1        0.002  -0.004   0.002  0.00  0.00    +0.190 C 
BRANCH  19  20
ATOM     20  O   LIG    1       -0.017   1.425   0.010  0.00  0.00    -0.560 OA
ATOM     21  H   LIG    1        0.861   1.830   0.004  0.00  0.00    +0.390 HD
ENDBRANCH  19  20
ENDBRANCH   1  19
TORSDOF 6
ENDMDL
MODEL       53
REMARK  Name = ZINC000217542096
REMARK                            x       y       z     vdW  Elec       q    Type
REMARK                         _______ _______ _______ _____ _____    ______ ____
ROOT
ATOM      1  N   LIG    1        0.688  -0.476  -1.203  0.00  0.00    -0.590 N 
ATOM      2  C   LIG    1       -0.062  -1.312  -2.133  0.00  0.00    +0.290 C 
ATOM      3  C   LIG    1        0.890  -2.083  -3.047  0.00  0.00    +0.160 C 
ATOM      4  C   LIG    1        1.890  -1.095  -3.661  0.00  0.00    +0.060 C 
ATOM      5  C   LIG    1        2.794  -0.567  -2.545  0.00  0.00    +0.110 C 
ATOM      6  C   LIG    1        1.958  -0.111  -1.384  0.00  0.00    +0.520 C 
ATOM      7  O   LIG    1        2.467   0.621  -0.562  0.00  0.00    -0.500 OA
ENDROOT
BRANCH   3   8
ATOM      8  N   LIG    1        0.124  -2.741  -4.115  0.00  0.00    -0.630 N 
ATOM      9  H   LIG    1       -0.541  -3.381  -3.706  0.00  0.00    +0.440 HD
ATOM     10  H   LIG    1        0.754  -3.249  -4.717  0.00  0.00    +0.440 HD
ATOM     11  H   LIG    1       -0.368  -2.044  -4.654  0.00  0.00    +0.440 HD
ENDBRANCH   3   8
BRANCH   1  13
ATOM     12  C   LIG    1       -0.019   1.526   0.010  0.00  0.00    +0.070 C 
ATOM     13  C   LIG    1        0.002  -0.004   0.002  0.00  0.00    +0.250 C 
BRANCH  13  14
ATOM     14  C   LIG    1        0.731  -0.503   1.223  0.00  0.00    +0.510 C 
ATOM     15  N   LIG    1        0.278  -0.191   2.453  0.00  0.00    -0.710 N 
ATOM     16  H   LIG    1       -0.517   0.356   2.553  0.00  0.00    +0.410 HD
ATOM     17  O   LIG    1        1.725  -1.187   1.099  0.00  0.00    -0.520 OA
BRANCH  15  18
ATOM     18  C   LIG    1        0.986  -0.676   3.640  0.00  0.00    +0.180 C 
ATOM     19  C   LIG    1        1.739   0.426   4.409  0.00  0.00    +0.230 C 
ATOM     20  O   LIG    1        0.527   0.560   5.178  0.00  0.00    -0.380 OA
ATOM     21  C   LIG    1        0.098  -0.786   4.893  0.00  0.00    +0.230 C 
ENDBRANCH  15  18
ENDBRANCH  13  14
ENDBRANCH   1  13
TORSDOF 4
ENDMDL
MODEL       54
REMARK  Name = ZINC000217542248
REMARK                            x       y       z     vdW  Elec       q    Type
REMARK                         _______ _______ _______ _____ _____    ______ ____
ROOT
ATOM      1  N   LIG    1        0.688  -0.476  -1.203  0.00  0.00    -0.590 N 
ATOM      2  C   LIG    1       -0.062  -1.312  -2.133  0.00  0.00    +0.290 C 
ATOM      3  C   LIG    1        0.608  -1.318  -3.507  0.00  0.00    +0.160 C 
ATOM      4  C   LIG    1        2.094  -1.651  -3.327  0.00  0.00    +0.060 C 
ATOM      5  C   LIG    1        2.765  -0.487  -2.593  0.00  0.00    +0.110 C 
ATOM      6  C   LIG    1        1.958  -0.111  -1.384  0.00  0.00    +0.520 C 
ATOM      7  O   LIG    1        2.491   0.554  -0.521  0.00  0.00    -0.500 OA
ENDROOT
BRANCH   3   8
ATOM      8  N   LIG    1       -0.027  -2.330  -4.361  0.00  0.00    -0.630 N 
ATOM      9  H   LIG    1        0.072  -3.240  -3.935  0.00  0.00    +0.440 HD
ATOM     10  H   LIG    1        0.416  -2.333  -5.267  0.00  0.00    +0.440 HD
ATOM     11  H   LIG    1       -1.007  -2.114  -4.467  0.00  0.00    +0.440 HD
ENDBRANCH   3   8
BRANCH   1  13
ATOM     12  C   LIG    1       -0.019   1.526   0.010  0.00  0.00    +0.070 C 
ATOM     13  C   LIG    1        0.002  -0.004   0.002  0.00  0.00    +0.250 C 
BRANCH  13  14
ATOM     14  C   LIG    1        0.731  -0.503   1.223  0.00  0.00    +0.510 C 
ATOM     15  N   LIG    1        0.278  -0.191   2.453  0.00  0.00    -0.710 N 
ATOM     16  H   LIG    1       -0.517   0.356   2.553  0.00  0.00    +0.410 HD
ATOM     17  O   LIG    1        1.725  -1.187   1.099  0.00  0.00    -0.520 OA
BRANCH  15  18
ATOM     18  C   LIG    1        0.986  -0.676   3.640  0.00  0.00    +0.180 C 
ATOM     19  C   LIG    1        1.739   0.426   4.409  0.00  0.00    +0.230 C 
ATOM     20  O   LIG    1        0.527   0.560   5.178  0.00  0.00    -0.380 OA
ATOM     21  C   LIG    1        0.098  -0.786   4.893  0.00  0.00    +0.230 C 
ENDBRANCH  15  18
ENDBRANCH  13  14
ENDBRANCH   1  13
TORSDOF 4
ENDMDL
MODEL       55
REMARK  Name = ZINC000217542186
REMARK                            x       y       z     vdW  Elec       q    Type
REMARK                         _______ _______ _______ _____ _____    ______ ____
ROOT
ATOM      1  N   LIG    1        0.711  -0.489   1.189  0.00  0.00    -0.590 N 
ATOM      2  C   LIG    1       -0.018  -1.344   2.118  0.00  0.00    +0.290 C 
ATOM      3  C   LIG    1        0.675  -1.367   3.481  0.00  0.00    +0.160 C 
ATOM      4  C   LIG    1        2.160  -1.686   3.271  0.00  0.00    +0.060 C 
ATOM      5  C   LIG    1        2.811  -0.507   2.544  0.00  0.00    +0.100 C 
ATOM      6  C   LIG    1        1.984  -0.126   1.349  0.00  0.00    +0.520 C 
ATOM      7  O   LIG    1        2.499   0.555   0.488  0.00  0.00    -0.500 OA
ENDROOT
BRANCH   3   8
ATOM      8  N   LIG    1        0.061  -2.397   4.329  0.00  0.00    -0.630 N 
ATOM      9  H   LIG    1       -0.919  -2.190   4.454  0.00  0.00    +0.440 HD
ATOM     10  H   LIG    1        0.520  -2.410   5.227  0.00  0.00    +0.440 HD
ATOM     11  H   LIG    1        0.160  -3.299   3.887  0.00  0.00    +0.440 HD
ENDBRANCH   3   8
BRANCH   1  13
ATOM     12  C   LIG    1       -0.019   1.526   0.010  0.00  0.00    +0.070 C 
ATOM     13  C   LIG    1        0.002  -0.004   0.002  0.00  0.00    +0.250 C 
BRANCH  13  14
ATOM     14  C   LIG    1        0.707  -0.490  -1.238  0.00  0.00    +0.510 C 
ATOM     15  N   LIG    1        0.231  -0.164  -2.456  0.00  0.00    -0.710 N 
ATOM     16  H   LIG    1       -0.566   0.383  -2.534  0.00  0.00    +0.410 HD
ATOM     17  O   LIG    1        1.704  -1.174  -1.140  0.00  0.00    -0.520 OA
BRANCH  15  18
ATOM     18  C   LIG    1        0.917  -0.637  -3.661  0.00  0.00    +0.180 C 
ATOM     19  C   LIG    1        0.144  -1.725  -4.430  0.00  0.00    +0.220 C 
ATOM     20  O   LIG    1       -0.429  -0.632  -5.175  0.00  0.00    -0.380 OA
ATOM     21  C   LIG    1        0.678   0.248  -4.899  0.00  0.00    +0.230 C 
ENDBRANCH  15  18
ENDBRANCH  13  14
ENDBRANCH   1  13
TORSDOF 4
ENDMDL
MODEL       56
REMARK  Name = ZINC000031628553
REMARK                            x       y       z     vdW  Elec       q    Type
REMARK                         _______ _______ _______ _____ _____    ______ ____
ROOT
ATOM      1  N   LIG    1       -1.199  -0.696  -0.031  0.00  0.00    -0.460 N 
ENDROOT
BRANCH   1   5
ATOM      2  N   LIG    1        0.013   1.303   0.038  0.00  0.00    -0.760 N 
ATOM      3  H   LIG    1       -0.762   1.776  -0.303  0.00  0.00    +0.450 HD
ATOM      4  H   LIG    1        0.831   1.788   0.230  0.00  0.00    +0.460 HD
ATOM      5  C   LIG    1       -0.045  -0.012   0.239  0.00  0.00    +0.750 C 
BRANCH   5   6
ATOM      6  N   LIG    1        1.021  -0.662   0.703  0.00  0.00    -0.750 N 
ATOM      7  H   LIG    1        0.950  -1.598   0.948  0.00  0.00    +0.450 HD
ATOM      8  H   LIG    1        1.868  -0.200   0.797  0.00  0.00    +0.450 HD
ENDBRANCH   5   6
ENDBRANCH   1   5
BRANCH   1   9
ATOM      9  N   LIG    1       -1.213  -2.095   0.026  0.00  0.00    +0.180 N 
ATOM     10  O   LIG    1       -2.264  -2.699  -0.096  0.00  0.00    -0.040 OA
ATOM     11  O   LIG    1       -0.175  -2.709   0.196  0.00  0.00    -0.140 OA
ENDBRANCH   1   9
BRANCH   1  12
ATOM     12  C   LIG    1       -2.419   0.036  -0.380  0.00  0.00    +0.370 C 
BRANCH  12  13
ATOM     13  C   LIG    1       -2.481   0.231  -1.896  0.00  0.00    -0.000 C 
BRANCH  13  14
ATOM     14  C   LIG    1       -3.755   0.995  -2.260  0.00  0.00    +0.090 C 
BRANCH  14  15
ATOM     15  CA  LIG    1       -3.818   1.190  -3.777  0.00  0.00    +0.080 C 
BRANCH  15  16
ATOM     16  N   LIG    1       -3.948  -0.118  -4.433  0.00  0.00    -0.620 N 
ATOM     17  H1  LIG    1       -4.792  -0.571  -4.117  0.00  0.00    +0.440 HD
ATOM     18  H2  LIG    1       -3.151  -0.692  -4.200  0.00  0.00    +0.410 HD
ATOM     19  H3  LIG    1       -3.989   0.010  -5.433  0.00  0.00    +0.440 HD
ENDBRANCH  15  16
BRANCH  15  20
ATOM     20  C   LIG    1       -5.007   2.047  -4.125  0.00  0.00    +0.480 C 
ATOM     21  OXT LIG    1       -6.087   1.528  -4.352  0.00  0.00    -0.660 OA
ATOM     22  O   LIG    1       -4.890   3.259  -4.179  0.00  0.00    -0.630 OA
ENDBRANCH  15  20
ENDBRANCH  14  15
ENDBRANCH  13  14
ENDBRANCH  12  13
ENDBRANCH   1  12
TORSDOF 9
ENDMDL
MODEL       57
REMARK  Name = ZINC000027740002
REMARK                            x       y       z     vdW  Elec       q    Type
REMARK                         _______ _______ _______ _____ _____    ______ ____
ROOT
ATOM      1  N   LIG    1       -1.199  -0.696  -0.031  0.00  0.00    -0.460 N 
ENDROOT
BRANCH   1   5
ATOM      2  N   LIG    1        0.013   1.303   0.038  0.00  0.00    -0.760 N 
ATOM      3  H   LIG    1       -0.762   1.776  -0.303  0.00  0.00    +0.440 HD
ATOM      4  H   LIG    1        0.831   1.788   0.230  0.00  0.00    +0.450 HD
ATOM      5  C   LIG    1       -0.045  -0.012   0.239  0.00  0.00    +0.750 C 
BRANCH   5   6
ATOM      6  N   LIG    1        1.021  -0.662   0.703  0.00  0.00    -0.750 N 
ATOM      7  H   LIG    1        0.950  -1.598   0.948  0.00  0.00    +0.450 HD
ATOM      8  H   LIG    1        1.868  -0.200   0.797  0.00  0.00    +0.450 HD
ENDBRANCH   5   6
ENDBRANCH   1   5
BRANCH   1   9
ATOM      9  N   LIG    1       -1.213  -2.095   0.026  0.00  0.00    +0.180 N 
ATOM     10  O   LIG    1       -2.264  -2.699  -0.096  0.00  0.00    -0.030 OA
ATOM     11  O   LIG    1       -0.175  -2.709   0.196  0.00  0.00    -0.140 OA
ENDBRANCH   1   9
BRANCH   1  12
ATOM     12  C   LIG    1       -2.419   0.036  -0.380  0.00  0.00    +0.360 C 
BRANCH  12  13
ATOM     13  C   LIG    1       -2.481   0.231  -1.896  0.00  0.00    +0.010 C 
BRANCH  13  14
ATOM     14  C   LIG    1       -3.755   0.995  -2.260  0.00  0.00    +0.100 C 
BRANCH  14  15
ATOM     15  CA  LIG    1       -3.818   1.190  -3.777  0.00  0.00    +0.090 C 
BRANCH  15  16
ATOM     16  N   LIG    1       -2.710   2.054  -4.205  0.00  0.00    -0.620 N 
ATOM     17  H1  LIG    1       -2.786   2.950  -3.748  0.00  0.00    +0.430 HD
ATOM     18  H2  LIG    1       -2.751   2.182  -5.205  0.00  0.00    +0.440 HD
ATOM     19  H3  LIG    1       -1.832   1.623  -3.957  0.00  0.00    +0.400 HD
ENDBRANCH  15  16
BRANCH  15  20
ATOM     20  C   LIG    1       -5.129   1.833  -4.147  0.00  0.00    +0.490 C 
ATOM     21  OXT LIG    1       -6.167   1.201  -4.047  0.00  0.00    -0.620 OA
ATOM     22  O   LIG    1       -5.152   2.984  -4.547  0.00  0.00    -0.660 OA
ENDBRANCH  15  20
ENDBRANCH  14  15
ENDBRANCH  13  14
ENDBRANCH  12  13
ENDBRANCH   1  12
TORSDOF 9
ENDMDL
MODEL       58
REMARK  Name = ZINC000001576211
REMARK                            x       y       z     vdW  Elec       q    Type
REMARK                         _______ _______ _______ _____ _____    ______ ____
ROOT
ATOM      1  CA  ARG A  2       -6.085  -1.262   0.053  0.00  0.00    +0.160 C 
ENDROOT
BRANCH   1   2
ATOM      2  N   ARG A  2       -6.079  -2.016  -1.203  0.00  0.00    -0.670 N 
ATOM      3  H   ARG A  2       -5.683  -1.629  -1.999  0.00  0.00    +0.400 HD
ATOM      4  C   GLY A  1       -6.623  -3.248  -1.252  0.00  0.00    +0.490 C 
ATOM      5  O   GLY A  1       -7.119  -3.732  -0.256  0.00  0.00    -0.530 OA
BRANCH   4   6
ATOM      6  CA  GLY A  1       -6.617  -4.024  -2.544  0.00  0.00    +0.280 C 
BRANCH   6   7
ATOM      7  N   GLY A  1       -7.264  -5.326  -2.336  0.00  0.00    -0.620 N 
ATOM      8  H1  GLY A  1       -8.216  -5.184  -2.034  0.00  0.00    +0.450 HD
ATOM      9  H2  GLY A  1       -6.761  -5.843  -1.631  0.00  0.00    +0.440 HD
ATOM     10  H3  GLY A  1       -7.259  -5.845  -3.201  0.00  0.00    +0.440 HD
ENDBRANCH   6   7
ENDBRANCH   4   6
ENDBRANCH   1   2
BRANCH   1  11
ATOM     11  C   ARG A  2       -7.396  -0.531   0.194  0.00  0.00    +0.490 C 
ATOM     12  OXT ARG A  2       -7.683   0.009   1.248  0.00  0.00    -0.670 OA
ATOM     13  O   ARG A  2       -8.169  -0.480  -0.748  0.00  0.00    -0.680 OA
ENDBRANCH   1  11
BRANCH   1  14
ATOM     14  CB  ARG A  2       -4.936  -0.252   0.048  0.00  0.00    +0.070 C 
BRANCH  14  15
ATOM     15  CG  ARG A  2       -3.601  -0.999   0.031  0.00  0.00    +0.020 C 
BRANCH  15  16
ATOM     16  CD  ARG A  2       -2.452   0.011   0.025  0.00  0.00    +0.280 C 
BRANCH  16  17
ATOM     17  NE  ARG A  2       -1.173  -0.704   0.009  0.00  0.00    -0.690 N 
ATOM     18  HE  ARG A  2       -1.160  -1.674   0.004  0.00  0.00    +0.430 HD
BRANCH  17  22
ATOM     19  NH1 ARG A  2       -0.016   1.328   0.009  0.00  0.00    -0.790 N 
ATOM     20 HH11 ARG A  2       -0.863   1.801   0.016  0.00  0.00    +0.440 HD
ATOM     21 HH12 ARG A  2        0.817   1.824   0.004  0.00  0.00    +0.440 HD
ATOM     22  CZ  ARG A  2        0.002  -0.004   0.002  0.00  0.00    +0.740 C 
BRANCH  22  23
ATOM     23  NH2 ARG A  2        1.165  -0.654  -0.013  0.00  0.00    -0.800 N 
ATOM     24 HH21 ARG A  2        1.998  -0.158  -0.018  0.00  0.00    +0.440 HD
ATOM     25 HH22 ARG A  2        1.178  -1.624  -0.018  0.00  0.00    +0.440 HD
ENDBRANCH  22  23
ENDBRANCH  17  22
ENDBRANCH  16  17
ENDBRANCH  15  16
ENDBRANCH  14  15
ENDBRANCH   1  14
TORSDOF 10
ENDMDL
MODEL       59
REMARK  Name = ZINC000096241183
REMARK                            x       y       z     vdW  Elec       q    Type
REMARK                         _______ _______ _______ _____ _____    ______ ____
ROOT
ATOM      1  C   LIG    1       -0.018   1.461   0.010  0.00  0.00    +0.310 C 
ATOM      2  N   LIG    1        0.002  -0.004   0.002  0.00  0.00    -0.610 N 
ATOM      3  C   LIG    1       -1.269  -0.724   0.004  0.00  0.00    +0.320 C 
ATOM      4  C   LIG    1       -1.052  -2.166  -0.454  0.00  0.00    +0.040 C 
ATOM      5  O   LIG    1        0.044  -2.726   0.274  0.00  0.00    -0.330 OA
ATOM      6  C   LIG    1        1.300  -2.130  -0.060  0.00  0.00    +0.260 C 
ATOM      7  C   LIG    1       -0.792  -2.223  -1.940  0.00  0.00    +0.250 C 
ATOM      8  N   LIG    1        0.120  -3.319  -2.334  0.00  0.00    -0.510 N 
ATOM      9  C   LIG    1       -0.169  -4.578  -1.626  0.00  0.00    +0.250 C 
ATOM     10  C   LIG    1       -1.654  -4.829  -1.515  0.00  0.00    +0.270 C 
ATOM     11  O   LIG    1       -2.077  -4.324  -0.240  0.00  0.00    -0.350 OA
ATOM     12  H   LIG    1        1.069  -3.043  -2.132  0.00  0.00    +0.420 HD
ATOM     13  H   LIG    1        0.031  -3.476  -3.327  0.00  0.00    +0.430 HD
ATOM     14  C   LIG    1       -2.327  -2.986  -0.135  0.00  0.00    +0.290 C 
ATOM     15  C   LIG    1        1.184  -0.632  -0.013  0.00  0.00    +0.480 C 
ATOM     16  O   LIG    1        2.199   0.032   0.022  0.00  0.00    -0.510 OA
ENDROOT
TORSDOF 0
ENDMDL
MODEL       60
REMARK  Name = ZINC000002545093
REMARK                            x       y       z     vdW  Elec       q    Type
REMARK                         _______ _______ _______ _____ _____    ______ ____
ROOT
ATOM      1  CA  ARG A  1       -6.085  -1.262   0.053  0.00  0.00    +0.180 C 
ENDROOT
BRANCH   1   2
ATOM      2  C   ARG A  1       -7.396  -0.531   0.194  0.00  0.00    +0.480 C 
ATOM      3  N   GLY A  2       -7.805  -0.109   1.406  0.00  0.00    -0.660 N 
ATOM      4  H   GLY A  2       -7.257  -0.276   2.189  0.00  0.00    +0.420 HD
ATOM      5  O   ARG A  1       -8.082  -0.323  -0.785  0.00  0.00    -0.540 OA
BRANCH   3   6
ATOM      6  CA  GLY A  2       -9.079   0.602   1.543  0.00  0.00    +0.200 C 
BRANCH   6   7
ATOM      7  C   GLY A  2       -9.302   0.961   2.989  0.00  0.00    +0.490 C 
ATOM      8  OXT GLY A  2      -10.310   1.561   3.320  0.00  0.00    -0.660 OA
ATOM      9  O   GLY A  2       -8.473   0.653   3.828  0.00  0.00    -0.690 OA
ENDBRANCH   6   7
ENDBRANCH   3   6
ENDBRANCH   1   2
BRANCH   1  10
ATOM     10  N   ARG A  1       -6.079  -2.018  -1.206  0.00  0.00    -0.620 N 
ATOM     11  H1  ARG A  1       -6.837  -2.684  -1.202  0.00  0.00    +0.450 HD
ATOM     12  H2  ARG A  1       -5.201  -2.507  -1.300  0.00  0.00    +0.430 HD
ATOM     13  H3  ARG A  1       -6.194  -1.382  -1.981  0.00  0.00    +0.440 HD
ENDBRANCH   1  10
BRANCH   1  14
ATOM     14  CB  ARG A  1       -4.936  -0.252   0.048  0.00  0.00    +0.100 C 
BRANCH  14  15
ATOM     15  CG  ARG A  1       -3.601  -0.999   0.031  0.00  0.00    +0.030 C 
BRANCH  15  16
ATOM     16  CD  ARG A  1       -2.452   0.011   0.025  0.00  0.00    +0.290 C 
BRANCH  16  17
ATOM     17  NE  ARG A  1       -1.173  -0.704   0.009  0.00  0.00    -0.700 N 
ATOM     18  HE  ARG A  1       -1.160  -1.674   0.004  0.00  0.00    +0.440 HD
BRANCH  17  22
ATOM     19  NH1 ARG A  1       -0.016   1.328   0.009  0.00  0.00    -0.790 N 
ATOM     20 HH11 ARG A  1       -0.863   1.801   0.016  0.00  0.00    +0.440 HD
ATOM     21 HH12 ARG A  1        0.817   1.824   0.004  0.00  0.00    +0.440 HD
ATOM     22  CZ  ARG A  1        0.002  -0.004   0.002  0.00  0.00    +0.740 C 
BRANCH  22  23
ATOM     23  NH2 ARG A  1        1.165  -0.654  -0.013  0.00  0.00    -0.790 N 
ATOM     24 HH21 ARG A  1        1.998  -0.158  -0.018  0.00  0.00    +0.440 HD
ATOM     25 HH22 ARG A  1        1.178  -1.624  -0.018  0.00  0.00    +0.440 HD
ENDBRANCH  22  23
ENDBRANCH  17  22
ENDBRANCH  16  17
ENDBRANCH  15  16
ENDBRANCH  14  15
ENDBRANCH   1  14
TORSDOF 10
ENDMDL
MODEL       61
REMARK  Name = ZINC000015781962
REMARK                            x       y       z     vdW  Elec       q    Type
REMARK                         _______ _______ _______ _____ _____    ______ ____
ROOT
ATOM      1  C   LIG    1       -1.481   1.421  -0.129  0.00  0.00    +0.000 C 
ATOM      2  C   LIG    1       -1.478   2.495  -1.220  0.00  0.00    +0.080 C 
ATOM      3  C   LIG    1       -2.788   3.284  -1.156  0.00  0.00    +0.250 C 
ATOM      4  N   LIG    1       -3.921   2.374  -1.366  0.00  0.00    -0.380 N 
ATOM      5  C   LIG    1       -3.973   1.385  -0.283  0.00  0.00    +0.260 C 
ATOM      6  H   LIG    1       -3.811   1.899  -2.249  0.00  0.00    +0.430 HD
ATOM      7  C   LIG    1       -2.708   0.524  -0.313  0.00  0.00    +0.090 C 
ENDROOT
BRANCH   1   9
ATOM      8  O   LIG    1       -0.307  -0.603  -0.439  0.00  0.00    -0.530 OA
ATOM      9  C   LIG    1       -0.228   0.590  -0.236  0.00  0.00    +0.510 C 
ATOM     10  N   LIG    1        0.980   1.174  -0.111  0.00  0.00    -0.720 N 
ATOM     11  H   LIG    1        1.043   2.128   0.052  0.00  0.00    +0.400 HD
BRANCH  10  12
ATOM     12  C   LIG    1        2.198   0.367  -0.220  0.00  0.00    +0.290 C 
BRANCH  12  13
ATOM     13  C   LIG    1        3.423   1.266  -0.042  0.00  0.00    +0.180 C 
BRANCH  13  14
ATOM     14  O   LIG    1        3.437   1.793   1.287  0.00  0.00    -0.570 OA
ATOM     15  H   LIG    1        4.188   2.373   1.472  0.00  0.00    +0.390 HD
ENDBRANCH  13  14
ENDBRANCH  12  13
ENDBRANCH  10  12
ENDBRANCH   1   9
BRANCH   4  16
ATOM     16  C   LIG    1       -5.170   3.147  -1.379  0.00  0.00    +0.270 C 
BRANCH  16  17
ATOM     17  C   LIG    1       -5.184   4.073  -2.597  0.00  0.00    +0.210 C 
BRANCH  17  18
ATOM     18  O   LIG    1       -5.179   3.289  -3.792  0.00  0.00    -0.580 OA
ATOM     19  H   LIG    1       -5.187   3.812  -4.605  0.00  0.00    +0.410 HD
ENDBRANCH  17  18
ENDBRANCH  16  17
ENDBRANCH   4  16
TORSDOF 7
ENDMDL
MODEL       62
REMARK  Name = ZINC000040163910
REMARK                            x       y       z     vdW  Elec       q    Type
REMARK                         _______ _______ _______ _____ _____    ______ ____
ROOT
ATOM      1  N   LIG    1       -2.396  -0.020   0.025  0.00  0.00    -0.330 N 
ATOM      2  C   LIG    1       -2.813   0.571   1.176  0.00  0.00    +0.340 A 
ATOM      3  C   LIG    1       -3.980   1.244   1.257  0.00  0.00    +0.020 A 
ATOM      4  C   LIG    1       -4.810   1.354   0.131  0.00  0.00    +0.270 A 
ATOM      5  C   LIG    1       -4.410   0.755  -1.075  0.00  0.00    -0.090 A 
ATOM      6  N   LIG    1       -5.194   0.851  -2.157  0.00  0.00    -0.100 NA
ATOM      7  N   LIG    1       -6.314   1.485  -2.114  0.00  0.00    -0.150 NA
ATOM      8  C   LIG    1       -6.754   2.079  -0.994  0.00  0.00    +0.180 A 
ATOM      9  C   LIG    1       -7.896   2.803  -0.697  0.00  0.00    +0.000 A 
ATOM     10  C   LIG    1       -7.823   3.180   0.638  0.00  0.00    +0.330 A 
ATOM     11  N   LIG    1       -6.705   2.721   1.151  0.00  0.00    -0.270 NA
ATOM     12  N   LIG    1       -6.007   2.026   0.161  0.00  0.00    -0.300 N 
ATOM     13  C   LIG    1       -3.131   0.042  -1.105  0.00  0.00    +0.580 A 
ATOM     14  O   LIG    1       -2.743  -0.492  -2.129  0.00  0.00    -0.440 OA
ENDROOT
BRANCH   1  15
ATOM     15  N   LIG    1       -1.173  -0.704   0.009  0.00  0.00    -0.490 N 
ATOM     16  H   LIG    1       -1.160  -1.674   0.004  0.00  0.00    +0.470 HD
BRANCH  15  20
ATOM     17  N   LIG    1       -0.016   1.328   0.009  0.00  0.00    -0.780 N 
ATOM     18  H   LIG    1       -0.863   1.801   0.016  0.00  0.00    +0.440 HD
ATOM     19  H   LIG    1        0.817   1.824   0.004  0.00  0.00    +0.450 HD
ATOM     20  C   LIG    1        0.002  -0.004   0.002  0.00  0.00    +0.760 C 
BRANCH  20  21
ATOM     21  N   LIG    1        1.165  -0.654  -0.013  0.00  0.00    -0.770 N 
ATOM     22  H   LIG    1        1.998  -0.158  -0.018  0.00  0.00    +0.450 HD
ATOM     23  H   LIG    1        1.178  -1.624  -0.018  0.00  0.00    +0.450 HD
ENDBRANCH  20  21
ENDBRANCH  15  20
ENDBRANCH   1  15
TORSDOF 3
ENDMDL
MODEL       63
REMARK  Name = ZINC000096241184
REMARK                            x       y       z     vdW  Elec       q    Type
REMARK                         _______ _______ _______ _____ _____    ______ ____
ROOT
ATOM      1  C   LIG    1       -0.018   1.461   0.010  0.00  0.00    +0.310 C 
ATOM      2  N   LIG    1        0.002  -0.004   0.002  0.00  0.00    -0.610 N 
ATOM      3  C   LIG    1       -1.269  -0.724   0.004  0.00  0.00    +0.290 C 
ATOM      4  C   LIG    1       -1.053  -2.167  -0.449  0.00  0.00    +0.040 C 
ATOM      5  O   LIG    1        0.045  -2.724   0.280  0.00  0.00    -0.370 OA
ATOM      6  C   LIG    1        1.300  -2.130  -0.059  0.00  0.00    +0.310 C 
ATOM      7  C   LIG    1       -2.303  -2.988  -0.242  0.00  0.00    +0.300 C 
ATOM      8  N   LIG    1       -2.025  -4.404   0.086  0.00  0.00    -0.500 N 
ATOM      9  C   LIG    1       -0.940  -4.972  -0.732  0.00  0.00    +0.250 C 
ATOM     10  C   LIG    1       -1.037  -4.533  -2.174  0.00  0.00    +0.260 C 
ATOM     11  O   LIG    1       -0.192  -3.382  -2.329  0.00  0.00    -0.350 OA
ATOM     12  H   LIG    1       -2.864  -4.944  -0.066  0.00  0.00    +0.430 HD
ATOM     13  H   LIG    1       -1.768  -4.469   1.059  0.00  0.00    +0.440 HD
ATOM     14  C   LIG    1       -0.694  -2.169  -1.955  0.00  0.00    +0.230 C 
ATOM     15  C   LIG    1        1.185  -0.632  -0.013  0.00  0.00    +0.480 C 
ATOM     16  O   LIG    1        2.199   0.032   0.021  0.00  0.00    -0.510 OA
ENDROOT
TORSDOF 0
ENDMDL
MODEL       64
REMARK  Name = ZINC000016921152
REMARK                            x       y       z     vdW  Elec       q    Type
REMARK                         _______ _______ _______ _____ _____    ______ ____
ROOT
ATOM      1  C   LIG    1       -1.293  -0.775   0.010  0.00  0.00    +0.260 C 
ENDROOT
BRANCH   1   5
ATOM      2  N   LIG    1       -0.016   1.344   0.009  0.00  0.00    -0.850 N 
ATOM      3  H   LIG    1       -0.863   1.817   0.016  0.00  0.00    +0.410 HD
ATOM      4  H   LIG    1        0.817   1.840   0.004  0.00  0.00    +0.410 HD
ATOM      5  C   LIG    1        0.002  -0.004   0.002  0.00  0.00    +0.510 C 
ATOM      6  O   LIG    1        1.060  -0.596  -0.011  0.00  0.00    -0.540 OA
ENDBRANCH   1   5
BRANCH   1   7
ATOM      7  N   LIG    1       -1.005  -2.212  -0.000  0.00  0.00    -0.660 N 
ATOM      8  H   LIG    1       -0.990  -2.697  -0.840  0.00  0.00    +0.420 HD
ATOM      9  C   LIG    1       -0.762  -2.859   1.157  0.00  0.00    +0.510 C 
ATOM     10  O   LIG    1       -0.782  -2.252   2.207  0.00  0.00    -0.540 OA
BRANCH   9  11
ATOM     11  C   LIG    1       -0.467  -4.337   1.146  0.00  0.00    +0.310 C 
BRANCH  11  12
ATOM     12  N   LIG    1       -0.239  -4.801   2.521  0.00  0.00    -0.620 N 
ATOM     13  H   LIG    1       -0.042  -5.790   2.514  0.00  0.00    +0.440 HD
ATOM     14  H   LIG    1       -1.064  -4.626   3.076  0.00  0.00    +0.440 HD
ATOM     15  H   LIG    1        0.544  -4.304   2.918  0.00  0.00    +0.440 HD
ENDBRANCH  11  12
ENDBRANCH   9  11
ENDBRANCH   1   7
BRANCH   1  16
ATOM     16  C   LIG    1       -2.112  -0.410  -1.229  0.00  0.00    +0.150 C 
BRANCH  16  17
ATOM     17  C   LIG    1       -3.457  -1.086  -1.160  0.00  0.00    -0.020 A 
ATOM     18  C   LIG    1       -4.654  -0.476  -1.247  0.00  0.00    +0.150 A 
ATOM     19  N   LIG    1       -5.606  -1.454  -1.137  0.00  0.00    -0.560 N 
ATOM     20  H   LIG    1       -6.567  -1.327  -1.162  0.00  0.00    +0.430 HD
ATOM     21  C   LIG    1       -4.956  -2.628  -0.987  0.00  0.00    +0.400 A 
ATOM     22  N   LIG    1       -3.671  -2.401  -1.006  0.00  0.00    -0.500 NA
ENDBRANCH  16  17
ENDBRANCH   1  16
TORSDOF 6
ENDMDL
MODEL       65
REMARK  Name = ZINC000023292058
REMARK                            x       y       z     vdW  Elec       q    Type
REMARK                         _______ _______ _______ _____ _____    ______ ____
ROOT
ATOM      1  N   LIG    1       -0.542  -2.865   0.903  0.00  0.00    -0.710 N 
ATOM      2  H   LIG    1        0.258  -2.344   1.074  0.00  0.00    +0.410 HD
ATOM      3  C   LIG    1       -0.557  -4.185   1.178  0.00  0.00    +0.510 C 
ATOM      4  O   LIG    1       -1.557  -4.837   0.965  0.00  0.00    -0.530 OA
ENDROOT
BRANCH   1   5
ATOM      5  C   LIG    1       -1.733  -2.219   0.347  0.00  0.00    +0.320 C 
BRANCH   5   6
ATOM      6  C   LIG    1       -1.452  -0.731   0.130  0.00  0.00    +0.310 C 
BRANCH   6   8
ATOM      7  C   LIG    1       -0.347   0.670  -1.470  0.00  0.00    +0.200 C 
ATOM      8  O   LIG    1       -0.360  -0.580  -0.779  0.00  0.00    -0.390 OA
ENDBRANCH   6   8
BRANCH   6   9
ATOM      9  O   LIG    1       -1.119  -0.122   1.379  0.00  0.00    -0.390 OA
ATOM     10  C   LIG    1       -1.161   1.306   1.359  0.00  0.00    +0.210 C 
ENDBRANCH   6   9
ENDBRANCH   5   6
ENDBRANCH   1   5
BRANCH   3  11
ATOM     11  C   LIG    1        0.668  -4.849   1.751  0.00  0.00    +0.240 C 
BRANCH  11  12
ATOM     12  N   LIG    1        0.462  -6.303   1.795  0.00  0.00    -0.520 NA
ATOM     13  C   LIG    1        1.512  -6.961   2.585  0.00  0.00    +0.210 C 
ATOM     14  C   LIG    1        1.227  -8.463   2.656  0.00  0.00    +0.280 C 
ATOM     15  N   LIG    1        1.192  -9.019   1.298  0.00  0.00    -0.510 N 
ATOM     16  C   LIG    1        0.122  -8.370   0.528  0.00  0.00    +0.280 C 
ATOM     17  H   LIG    1        1.017 -10.012   1.345  0.00  0.00    +0.430 HD
ATOM     18  H   LIG    1        2.079  -8.856   0.844  0.00  0.00    +0.430 HD
ATOM     19  C   LIG    1        0.398  -6.867   0.439  0.00  0.00    +0.210 C 
ENDBRANCH  11  12
ENDBRANCH   3  11
TORSDOF 6
ENDMDL
MODEL       66
REMARK  Name = ZINC000002491959
REMARK                            x       y       z     vdW  Elec       q    Type
REMARK                         _______ _______ _______ _____ _____    ______ ____
ROOT
ATOM      1  C   LIG    1       -2.369  -2.831  -0.002  0.00  0.00    +0.380 C 
ENDROOT
BRANCH   1   5
ATOM      2  C   LIG    1       -0.018   1.503   0.010  0.00  0.00    +0.140 C 
ATOM      3  C   LIG    1        0.002  -0.004   0.002  0.00  0.00    -0.240 A 
ATOM      4  C   LIG    1       -1.153  -0.704   0.004  0.00  0.00    +0.340 A 
ATOM      5  N   LIG    1       -1.116  -2.072  -0.004  0.00  0.00    -0.520 N 
ATOM      6  C   LIG    1        0.060  -2.726  -0.013  0.00  0.00    +0.710 A 
ATOM      7  N   LIG    1        1.226  -2.053  -0.016  0.00  0.00    -0.660 N 
ATOM      8  H   LIG    1        2.064  -2.540  -0.023  0.00  0.00    +0.430 HD
ATOM      9  O   LIG    1        0.069  -3.942  -0.020  0.00  0.00    -0.540 OA
ATOM     10  C   LIG    1        1.232  -0.705  -0.013  0.00  0.00    +0.550 A 
ATOM     11  O   LIG    1        2.287  -0.095  -0.016  0.00  0.00    -0.500 OA
ENDBRANCH   1   5
BRANCH   1  12
ATOM     12  C   LIG    1       -2.805  -3.084  -1.422  0.00  0.00    +0.510 C 
ATOM     13  N   LIG    1       -3.939  -3.770  -1.667  0.00  0.00    -0.730 N 
ATOM     14  H   LIG    1       -4.475  -4.100  -0.929  0.00  0.00    +0.410 HD
ATOM     15  O   LIG    1       -2.135  -2.670  -2.345  0.00  0.00    -0.510 OA
BRANCH  13  16
ATOM     16  C   LIG    1       -4.363  -4.015  -3.047  0.00  0.00    +0.270 C 
BRANCH  16  17
ATOM     17  C   LIG    1       -5.672  -4.808  -3.046  0.00  0.00    +0.260 C 
BRANCH  17  18
ATOM     18  N   LIG    1       -6.097  -5.055  -4.430  0.00  0.00    -0.630 N 
ATOM     19  H   LIG    1       -6.239  -4.173  -4.900  0.00  0.00    +0.440 HD
ATOM     20  H   LIG    1       -6.960  -5.578  -4.429  0.00  0.00    +0.450 HD
ATOM     21  H   LIG    1       -5.385  -5.582  -4.912  0.00  0.00    +0.440 HD
ENDBRANCH  17  18
ENDBRANCH  16  17
ENDBRANCH  13  16
ENDBRANCH   1  12
TORSDOF 5
ENDMDL
MODEL       67
REMARK  Name = ZINC000072344419
REMARK                            x       y       z     vdW  Elec       q    Type
REMARK                         _______ _______ _______ _____ _____    ______ ____
ROOT
ATOM      1  N   LIG    1        0.796  -0.399  -1.397  0.00  0.00    -1.010 NA
ATOM      2  C   LIG    1        0.006  -0.573  -2.631  0.00  0.00    +0.330 C 
ATOM      3  C   LIG    1        0.692   0.073  -3.847  0.00  0.00    +0.260 C 
ATOM      4  N   LIG    1        1.273   1.341  -3.454  0.00  0.00    -0.490 N 
ATOM      5  C   LIG    1        2.675   1.134  -3.103  0.00  0.00    +0.280 C 
ATOM      6  C   LIG    1        2.918   0.794  -1.687  0.00  0.00    -0.040 C 
ATOM      7  H   LIG    1        0.775   1.708  -2.656  0.00  0.00    +0.420 HD
ATOM      8  H   LIG    1        1.210   1.994  -4.220  0.00  0.00    +0.440 HD
ATOM      9  C   LIG    1        2.236  -0.552  -1.355  0.00  0.00    +0.360 C 
ENDROOT
BRANCH   6  10
ATOM     10  C   LIG    1        4.401   0.681  -1.444  0.00  0.00    +0.530 C 
ATOM     11  O   LIG    1        4.873  -0.364  -1.049  0.00  0.00    -0.500 OA
ATOM     12  N   LIG    1        5.203   1.742  -1.667  0.00  0.00    -0.850 N 
ATOM     13  H   LIG    1        6.157   1.669  -1.511  0.00  0.00    +0.420 HD
ATOM     14  H   LIG    1        4.825   2.577  -1.983  0.00  0.00    +0.400 HD
ENDBRANCH   6  10
BRANCH   1  16
ATOM     15  C   LIG    1       -0.022   1.810   0.012  0.00  0.00    -0.280 C 
ATOM     16  S   LIG    1        0.002  -0.004   0.002  0.00  0.00    +2.590 S 
ATOM     17  O   LIG    1       -1.309  -0.519  -0.182  0.00  0.00    -0.930 OA
ATOM     18  O   LIG    1        0.845  -0.497   1.035  0.00  0.00    -0.920 OA
ENDBRANCH   1  16
TORSDOF 2
ENDMDL
MODEL       68
REMARK  Name = ZINC000072344420
REMARK                            x       y       z     vdW  Elec       q    Type
REMARK                         _______ _______ _______ _____ _____    ______ ____
ROOT
ATOM      1  N   LIG    1        0.796  -0.399  -1.397  0.00  0.00    -1.010 NA
ATOM      2  C   LIG    1        0.072  -0.579  -2.625  0.00  0.00    +0.310 C 
ATOM      3  C   LIG    1       -0.413  -2.011  -2.941  0.00  0.00    +0.270 C 
ATOM      4  N   LIG    1        0.638  -3.012  -2.615  0.00  0.00    -0.510 N 
ATOM      5  C   LIG    1        1.938  -2.506  -2.977  0.00  0.00    +0.280 C 
ATOM      6  C   LIG    1        2.537  -1.998  -1.672  0.00  0.00    -0.030 C 
ATOM      7  H   LIG    1        0.460  -3.863  -3.127  0.00  0.00    +0.430 HD
ATOM      8  H   LIG    1        0.619  -3.207  -1.626  0.00  0.00    +0.430 HD
ATOM      9  C   LIG    1        2.291  -0.570  -1.409  0.00  0.00    +0.370 C 
ENDROOT
BRANCH   6  10
ATOM     10  C   LIG    1        4.027  -2.222  -1.710  0.00  0.00    +0.520 C 
ATOM     11  O   LIG    1        4.785  -1.280  -1.620  0.00  0.00    -0.510 OA
ATOM     12  N   LIG    1        4.517  -3.471  -1.845  0.00  0.00    -0.850 N 
ATOM     13  H   LIG    1        5.476  -3.615  -1.870  0.00  0.00    +0.420 HD
ATOM     14  H   LIG    1        3.911  -4.224  -1.917  0.00  0.00    +0.400 HD
ENDBRANCH   6  10
BRANCH   1  16
ATOM     15  C   LIG    1       -0.022   1.810   0.012  0.00  0.00    -0.250 C 
ATOM     16  S   LIG    1        0.002  -0.004   0.002  0.00  0.00    +2.600 S 
ATOM     17  O   LIG    1       -1.309  -0.519  -0.182  0.00  0.00    -0.950 OA
ATOM     18  O   LIG    1        0.845  -0.497   1.035  0.00  0.00    -0.940 OA
ENDBRANCH   1  16
TORSDOF 2
ENDMDL
MODEL       69
REMARK  Name = ZINC000019368987
REMARK                            x       y       z     vdW  Elec       q    Type
REMARK                         _______ _______ _______ _____ _____    ______ ____
ROOT
ATOM      1  C   LIG    1       -3.534  -6.398  -0.240  0.00  0.00    +0.260 C 
ENDROOT
BRANCH   1   2
ATOM      2  N   LIG    1       -4.846  -7.048  -0.351  0.00  0.00    -0.500 N 
ATOM      3  H   LIG    1       -5.294  -6.759  -1.208  0.00  0.00    +0.430 HD
ATOM      4  H   LIG    1       -5.421  -6.782   0.435  0.00  0.00    +0.430 HD
BRANCH   2   5
ATOM      5  C   LIG    1       -4.672  -8.507  -0.357  0.00  0.00    +0.250 C 
BRANCH   5   6
ATOM      6  C   LIG    1       -6.039  -9.184  -0.472  0.00  0.00    +0.210 C 
BRANCH   6   7
ATOM      7  O   LIG    1       -6.853  -8.806   0.640  0.00  0.00    -0.550 OA
ATOM      8  H   LIG    1       -6.484  -9.053   1.500  0.00  0.00    +0.390 HD
ENDBRANCH   6   7
BRANCH   6   9
ATOM      9  C   LIG    1       -5.857 -10.703  -0.478  0.00  0.00    +0.160 C 
BRANCH   9  10
ATOM     10  O   LIG    1       -7.120 -11.333  -0.702  0.00  0.00    -0.380 OA
ATOM     11  C   LIG    1       -7.061 -12.760  -0.727  0.00  0.00    +0.230 C 
ENDBRANCH   9  10
ENDBRANCH   6   9
ENDBRANCH   5   6
ENDBRANCH   2   5
ENDBRANCH   1   2
BRANCH   1  12
ATOM     12  C   LIG    1       -3.716  -4.879  -0.234  0.00  0.00    +0.180 C 
BRANCH  12  13
ATOM     13  N   LIG    1       -2.403  -4.229  -0.123  0.00  0.00    -0.670 NA
ATOM     14  H   LIG    1       -1.787  -4.530  -0.864  0.00  0.00    +0.350 HD
BRANCH  13  15
ATOM     15  C   LIG    1       -2.539  -2.767  -0.114  0.00  0.00    +0.170 C 
BRANCH  15  16
ATOM     16  C   LIG    1       -1.154  -2.126   0.002  0.00  0.00    +0.220 C 
BRANCH  16  17
ATOM     17  O   LIG    1       -0.531  -2.555   1.214  0.00  0.00    -0.540 OA
ATOM     18  H   LIG    1       -1.022  -2.319   2.013  0.00  0.00    +0.370 HD
ENDBRANCH  16  17
BRANCH  16  19
ATOM     19  C   LIG    1       -1.295  -0.603   0.011  0.00  0.00    +0.150 C 
BRANCH  19  21
ATOM     20  C   LIG    1       -0.017   1.425   0.010  0.00  0.00    +0.200 C 
ATOM     21  O   LIG    1        0.002  -0.004   0.002  0.00  0.00    -0.380 OA
ENDBRANCH  19  21
ENDBRANCH  16  19
ENDBRANCH  15  16
ENDBRANCH  13  15
ENDBRANCH  12  13
ENDBRANCH   1  12
TORSDOF 13
ENDMDL
MODEL       70
REMARK  Name = ZINC000013897790
REMARK                            x       y       z     vdW  Elec       q    Type
REMARK                         _______ _______ _______ _____ _____    ______ ____
ROOT
ATOM      1  C   LIG    1       -2.851  -2.587  -0.110  0.00  0.00    +0.230 C 
ENDROOT
BRANCH   1   2
ATOM      2  C   LIG    1       -2.840  -4.095  -0.369  0.00  0.00    +0.190 C 
ATOM      3  N   LIG    1       -4.224  -4.617  -0.442  0.00  0.00    -0.510 N 
ATOM      4  C   LIG    1       -4.291  -6.004   0.057  0.00  0.00    +0.300 C 
ATOM      5  C   LIG    1       -3.543  -6.043   1.418  0.00  0.00    +0.180 C 
ATOM      6  H   LIG    1       -4.537  -4.595  -1.401  0.00  0.00    +0.440 HD
ATOM      7  H   LIG    1       -4.829  -4.034   0.117  0.00  0.00    +0.440 HD
ATOM      8  S   LIG    1       -2.085  -4.982   1.047  0.00  0.00    -0.140 S 
ENDBRANCH   1   2
BRANCH   1   9
ATOM      9  O   LIG    1       -3.607  -1.934  -1.132  0.00  0.00    -0.540 OA
ATOM     10  H   LIG    1       -3.261  -2.068  -2.024  0.00  0.00    +0.390 HD
ENDBRANCH   1   9
BRANCH   1  11
ATOM     11  C   LIG    1       -1.416  -2.058  -0.121  0.00  0.00    +0.180 C 
BRANCH  11  12
ATOM     12  O   LIG    1       -0.783  -2.420  -1.350  0.00  0.00    -0.540 OA
ATOM     13  H   LIG    1       -1.223  -2.070  -2.137  0.00  0.00    +0.380 HD
ENDBRANCH  11  12
BRANCH  11  14
ATOM     14  C   LIG    1       -1.433  -0.534   0.013  0.00  0.00    +0.210 C 
BRANCH  14  15
ATOM     15  O   LIG    1       -2.066  -0.171   1.242  0.00  0.00    -0.540 OA
ATOM     16  H   LIG    1       -1.626  -0.521   2.029  0.00  0.00    +0.380 HD
ENDBRANCH  14  15
BRANCH  14  17
ATOM     17  C   LIG    1        0.002  -0.004   0.002  0.00  0.00    +0.150 C 
BRANCH  17  18
ATOM     18  O   LIG    1       -0.017   1.425   0.010  0.00  0.00    -0.560 OA
ATOM     19  H   LIG    1        0.861   1.830   0.004  0.00  0.00    +0.390 HD
ENDBRANCH  17  18
ENDBRANCH  14  17
ENDBRANCH  11  14
ENDBRANCH   1  11
TORSDOF 8
ENDMDL
MODEL       71
REMARK  Name = ZINC000064875812
REMARK                            x       y       z     vdW  Elec       q    Type
REMARK                         _______ _______ _______ _____ _____    ______ ____
ROOT
ATOM      1  C   LIG    1       -0.141  -0.253   0.019  0.00  0.00    +0.180 C 
ENDROOT
BRANCH   1   2
ATOM      2  O   LIG    1       -0.297   1.155  -0.168  0.00  0.00    -0.550 OA
ATOM      3  H   LIG    1        0.534   1.627  -0.311  0.00  0.00    +0.380 HD
ENDBRANCH   1   2
BRANCH   1   4
ATOM      4  C   LIG    1        0.742  -0.511   1.242  0.00  0.00    +0.220 C 
BRANCH   4   5
ATOM      5  N   LIG    1        0.054  -0.037   2.450  0.00  0.00    -0.540 NA
ATOM      6  C   LIG    1       -1.326  -0.574   2.521  0.00  0.00    +0.190 C 
ATOM      7  C   LIG    1       -1.762  -0.582   3.964  0.00  0.00    +0.070 C 
ATOM      8  C   LIG    1       -2.504   0.703   4.365  0.00  0.00    +0.250 C 
ATOM      9  N   LIG    1       -1.876   1.922   3.809  0.00  0.00    -0.510 N 
ATOM     10  C   LIG    1       -0.433   1.879   3.889  0.00  0.00    +0.260 C 
ATOM     11  H   LIG    1       -2.207   2.725   4.323  0.00  0.00    +0.430 HD
ATOM     12  H   LIG    1       -2.147   2.019   2.842  0.00  0.00    +0.420 HD
ATOM     13  C   LIG    1        0.116   1.356   2.548  0.00  0.00    +0.220 C 
ENDBRANCH   4   5
ENDBRANCH   1   4
BRANCH   1  14
ATOM     14  C   LIG    1        0.516  -0.862  -1.222  0.00  0.00    +0.160 C 
BRANCH  14  15
ATOM     15  N   LIG    1       -0.331  -0.615  -2.396  0.00  0.00    -0.530 NA
ATOM     16  C   LIG    1       -1.738  -0.924  -2.105  0.00  0.00    +0.140 C 
ATOM     17  C   LIG    1       -2.592  -0.597  -3.333  0.00  0.00    +0.220 C 
ATOM     18  O   LIG    1       -2.099  -1.327  -4.459  0.00  0.00    -0.380 OA
ATOM     19  C   LIG    1       -0.731  -1.050  -4.771  0.00  0.00    +0.220 C 
ATOM     20  C   LIG    1        0.142  -1.382  -3.558  0.00  0.00    +0.160 C 
ENDBRANCH  14  15
ENDBRANCH   1  14
TORSDOF 5
ENDMDL
MODEL       72
REMARK  Name = ZINC000020396652
REMARK                            x       y       z     vdW  Elec       q    Type
REMARK                         _______ _______ _______ _____ _____    ______ ____
ROOT
ATOM      1  C   LIG    1       -0.018   1.503   0.010  0.00  0.00    +0.190 C 
ATOM      2  C   LIG    1        0.002  -0.004   0.002  0.00  0.00    +0.040 A 
ATOM      3  N   LIG    1        0.006  -0.660  -1.135  0.00  0.00    -0.190 NA
ATOM      4  N   LIG    1        0.023  -1.944  -1.168  0.00  0.00    -0.330 NA
ATOM      5  C   LIG    1        0.038  -2.674  -0.065  0.00  0.00    +0.290 A 
ATOM      6  N   LIG    1        0.036  -2.074   1.159  0.00  0.00    -0.340 N 
ATOM      7  C   LIG    1        0.023  -0.723   1.217  0.00  0.00    +0.480 A 
ATOM      8  O   LIG    1        0.021  -0.141   2.289  0.00  0.00    -0.490 OA
ENDROOT
BRANCH   6   9
ATOM      9  N   LIG    1        0.052  -2.821   2.303  0.00  0.00    -0.600 N 
ATOM     10  H   LIG    1       -0.720  -3.470   2.321  0.00  0.00    +0.370 HD
ATOM     11  H   LIG    1        0.048  -2.231   3.121  0.00  0.00    +0.400 HD
ENDBRANCH   6   9
BRANCH   5  12
ATOM     12  S   LIG    1        0.061  -4.432  -0.178  0.00  0.00    +0.090 S 
BRANCH  12  13
ATOM     13  C   LIG    1        0.056  -4.631  -1.978  0.00  0.00    +0.080 C 
BRANCH  13  14
ATOM     14  C   LIG    1        0.074  -6.120  -2.326  0.00  0.00    +0.310 C 
BRANCH  14  15
ATOM     15  N   LIG    1        0.070  -6.282  -3.786  0.00  0.00    -0.630 N 
ATOM     16  H   LIG    1        0.886  -5.835  -4.176  0.00  0.00    +0.440 HD
ATOM     17  H   LIG    1       -0.762  -5.857  -4.169  0.00  0.00    +0.440 HD
ATOM     18  H   LIG    1        0.082  -7.264  -4.016  0.00  0.00    +0.440 HD
ENDBRANCH  14  15
ENDBRANCH  13  14
ENDBRANCH  12  13
ENDBRANCH   5  12
TORSDOF 5
ENDMDL
MODEL       73
REMARK  Name = ZINC000257314331
REMARK                            x       y       z     vdW  Elec       q    Type
REMARK                         _______ _______ _______ _____ _____    ______ ____
ROOT
ATOM      1  N   LIG    1       -2.255  -3.027   0.007  0.00  0.00    -0.390 N 
ATOM      2  C   LIG    1       -1.970  -4.487   0.123  0.00  0.00    +0.290 C 
ATOM      3  C   LIG    1       -3.052  -5.129  -0.746  0.00  0.00    +0.200 C 
ATOM      4  N   LIG    1       -2.795  -6.450  -1.278  0.00  0.00    -0.710 N 
ATOM      5  H   LIG    1       -2.274  -7.099  -0.780  0.00  0.00    +0.420 HD
ATOM      6  C   LIG    1       -3.307  -6.748  -2.494  0.00  0.00    +0.490 C 
ATOM      7  C   LIG    1       -4.016  -5.761  -3.373  0.00  0.00    +0.320 C 
ATOM      8  O   LIG    1       -4.179  -4.480  -2.739  0.00  0.00    -0.340 OA
ATOM      9  O   LIG    1       -3.185  -7.885  -2.899  0.00  0.00    -0.500 OA
ATOM     10  C   LIG    1       -3.059  -4.149  -1.956  0.00  0.00    +0.150 C 
ATOM     11  C   LIG    1       -2.984  -2.796  -1.268  0.00  0.00    +0.300 C 
ATOM     12  H   LIG    1       -2.825  -2.729   0.785  0.00  0.00    +0.440 HD
ENDROOT
BRANCH   1  13
ATOM     13  C   LIG    1       -0.993  -2.276  -0.001  0.00  0.00    +0.300 C 
BRANCH  13  14
ATOM     14  C   LIG    1       -1.293  -0.775   0.010  0.00  0.00    +0.060 C 
BRANCH  14  18
ATOM     15  N   LIG    1       -0.016   1.344   0.009  0.00  0.00    -0.840 N 
ATOM     16  H   LIG    1       -0.863   1.817   0.016  0.00  0.00    +0.410 HD
ATOM     17  H   LIG    1        0.817   1.840   0.004  0.00  0.00    +0.420 HD
ATOM     18  C   LIG    1        0.002  -0.004   0.002  0.00  0.00    +0.520 C 
ATOM     19  O   LIG    1        1.060  -0.596  -0.011  0.00  0.00    -0.530 OA
ENDBRANCH  14  18
ENDBRANCH  13  14
ENDBRANCH   1  13
TORSDOF 3
ENDMDL
MODEL       74
REMARK  Name = ZINC000257302548
REMARK                            x       y       z     vdW  Elec       q    Type
REMARK                         _______ _______ _______ _____ _____    ______ ____
ROOT
ATOM      1  N   LIG    1       -1.005  -2.216  -0.000  0.00  0.00    -0.360 N 
ATOM      2  C   LIG    1       -2.232  -2.921  -0.165  0.00  0.00    +0.250 C 
ATOM      3  C   LIG    1       -2.153  -4.251  -0.865  0.00  0.00    +0.060 C 
ATOM      4  C   LIG    1       -0.921  -5.086  -0.591  0.00  0.00    +0.190 C 
ATOM      5  N   LIG    1       -1.175  -6.451  -1.048  0.00  0.00    -0.720 N 
ATOM      6  H   LIG    1       -1.526  -6.578  -1.944  0.00  0.00    +0.410 HD
ATOM      7  C   LIG    1       -0.951  -7.535  -0.298  0.00  0.00    +0.490 C 
ATOM      8  C   LIG    1       -0.373  -7.401   1.087  0.00  0.00    +0.300 C 
ATOM      9  O   LIG    1        0.371  -6.185   1.148  0.00  0.00    -0.350 OA
ATOM     10  O   LIG    1       -1.215  -8.635  -0.736  0.00  0.00    -0.510 OA
ATOM     11  C   LIG    1       -0.383  -5.027   0.797  0.00  0.00    +0.150 C 
ATOM     12  C   LIG    1        0.503  -3.810   1.040  0.00  0.00    +0.100 C 
ATOM     13  C   LIG    1       -0.281  -2.550   1.216  0.00  0.00    +0.280 C 
ATOM     14  H   LIG    1       -0.411  -2.417  -0.791  0.00  0.00    +0.430 HD
ENDROOT
BRANCH   1  15
ATOM     15  C   LIG    1       -1.293  -0.775   0.010  0.00  0.00    +0.300 C 
BRANCH  15  19
ATOM     16  N   LIG    1       -0.016   1.344   0.009  0.00  0.00    -0.820 N 
ATOM     17  H   LIG    1       -0.863   1.817   0.016  0.00  0.00    +0.410 HD
ATOM     18  H   LIG    1        0.817   1.840   0.004  0.00  0.00    +0.430 HD
ATOM     19  C   LIG    1        0.002  -0.004   0.002  0.00  0.00    +0.510 C 
ATOM     20  O   LIG    1        1.060  -0.596  -0.011  0.00  0.00    -0.530 OA
ENDBRANCH  15  19
ENDBRANCH   1  15
TORSDOF 2
ENDMDL
MODEL       75
REMARK  Name = ZINC000053151253
REMARK                            x       y       z     vdW  Elec       q    Type
REMARK                         _______ _______ _______ _____ _____    ______ ____
ROOT
ATOM      1  C   LIG    1       -1.722  -4.579  -0.006  0.00  0.00    +0.190 C 
ENDROOT
BRANCH   1   4
ATOM      2  N   LIG    1       -1.005  -2.212  -0.000  0.00  0.00    -0.690 N 
ATOM      3  H   LIG    1       -0.087  -2.523  -0.011  0.00  0.00    +0.420 HD
ATOM      4  C   LIG    1       -2.018  -3.102   0.005  0.00  0.00    +0.510 C 
ATOM      5  O   LIG    1       -3.167  -2.713   0.018  0.00  0.00    -0.520 OA
BRANCH   2   6
ATOM      6  C   LIG    1       -1.293  -0.775   0.010  0.00  0.00    +0.310 C 
BRANCH   6  10
ATOM      7  N   LIG    1       -0.016   1.344   0.009  0.00  0.00    -0.840 N 
ATOM      8  H   LIG    1       -0.863   1.817   0.016  0.00  0.00    +0.410 HD
ATOM      9  H   LIG    1        0.817   1.840   0.004  0.00  0.00    +0.410 HD
ATOM     10  C   LIG    1        0.002  -0.004   0.002  0.00  0.00    +0.510 C 
ATOM     11  O   LIG    1        1.060  -0.596  -0.011  0.00  0.00    -0.540 OA
ENDBRANCH   6  10
ENDBRANCH   2   6
ENDBRANCH   1   4
BRANCH   1  12
ATOM     12  N   LIG    1       -2.898  -5.317   0.475  0.00  0.00    -0.620 N 
ATOM     13  H   LIG    1       -3.117  -5.025   1.415  0.00  0.00    +0.440 HD
ATOM     14  H   LIG    1       -2.700  -6.306   0.468  0.00  0.00    +0.440 HD
ATOM     15  H   LIG    1       -3.684  -5.127  -0.128  0.00  0.00    +0.440 HD
ENDBRANCH   1  12
BRANCH   1  16
ATOM     16  C   LIG    1       -1.390  -5.022  -1.432  0.00  0.00    +0.150 C 
BRANCH  16  17
ATOM     17  C   LIG    1       -0.976  -6.471  -1.424  0.00  0.00    -0.140 A 
ATOM     18  C   LIG    1        0.354  -6.808  -1.251  0.00  0.00    +0.060 A 
ATOM     19  C   LIG    1        0.737  -8.135  -1.243  0.00  0.00    +0.000 A 
ATOM     20  C   LIG    1       -0.215  -9.131  -1.409  0.00  0.00    +0.130 A 
ATOM     21  C   LIG    1       -1.549  -8.791  -1.582  0.00  0.00    +0.000 A 
ATOM     22  C   LIG    1       -1.927  -7.462  -1.585  0.00  0.00    +0.010 A 
BRANCH  20  23
ATOM     23  O   LIG    1        0.159 -10.438  -1.401  0.00  0.00    -0.490 OA
ATOM     24  H   LIG    1        0.145 -10.845  -0.525  0.00  0.00    +0.400 HD
ENDBRANCH  20  23
ENDBRANCH  16  17
ENDBRANCH   1  16
TORSDOF 7
ENDMDL
MODEL       76
REMARK  Name = ZINC000032911545
REMARK                            x       y       z     vdW  Elec       q    Type
REMARK                         _______ _______ _______ _____ _____    ______ ____
ROOT
ATOM      1  C   LIG    1        1.792  -2.615  -0.229  0.00  0.00    +0.070 C 
ENDROOT
BRANCH   1   2
ATOM      2  C   LIG    1        0.657  -2.104  -1.120  0.00  0.00    +0.330 C 
BRANCH   2   3
ATOM      3  C   LIG    1        0.598  -0.600  -1.043  0.00  0.00    +0.440 C 
ATOM      4  O   LIG    1        1.088   0.070  -1.921  0.00  0.00    -0.470 OA
BRANCH   3   6
ATOM      5  C   LIG    1       -0.018   1.448   0.010  0.00  0.00    +0.290 C 
ATOM      6  O   LIG    1        0.002  -0.004   0.002  0.00  0.00    -0.360 OA
ENDBRANCH   3   6
ENDBRANCH   2   3
BRANCH   2   7
ATOM      7  N   LIG    1        0.902  -2.512  -2.505  0.00  0.00    -0.600 N 
ATOM      8  H   LIG    1        0.258  -3.073  -2.966  0.00  0.00    +0.440 HD
BRANCH   7   9
ATOM      9  N   LIG    1        2.065  -2.094  -3.164  0.00  0.00    +0.220 N 
ATOM     10  O   LIG    1        2.268  -2.434  -4.316  0.00  0.00    -0.190 OA
ATOM     11  O   LIG    1        2.873  -1.390  -2.586  0.00  0.00    -0.160 OA
ENDBRANCH   7   9
ENDBRANCH   2   7
ENDBRANCH   1   2
BRANCH   1  12
ATOM     12  C   LIG    1        1.773  -4.145  -0.209  0.00  0.00    +0.040 C 
BRANCH  12  13
ATOM     13  C   LIG    1        2.907  -4.657   0.681  0.00  0.00    +0.290 C 
BRANCH  13  14
ATOM     14  N   LIG    1        2.890  -6.122   0.700  0.00  0.00    -0.700 N 
ATOM     15  H   LIG    1        2.220  -6.606   0.192  0.00  0.00    +0.440 HD
ATOM     16  C   LIG    1        3.818  -6.808   1.435  0.00  0.00    +0.740 C 
BRANCH  16  17
ATOM     17  N   LIG    1        3.802  -8.139   1.453  0.00  0.00    -0.790 N 
ATOM     18  H   LIG    1        3.132  -8.623   0.945  0.00  0.00    +0.440 HD
ATOM     19  H   LIG    1        4.460  -8.625   1.974  0.00  0.00    +0.440 HD
ENDBRANCH  16  17
BRANCH  16  20
ATOM     20  N   LIG    1        4.738  -6.143   2.133  0.00  0.00    -0.790 N 
ATOM     21  H   LIG    1        5.396  -6.630   2.654  0.00  0.00    +0.440 HD
ATOM     22  H   LIG    1        4.749  -5.173   2.120  0.00  0.00    +0.440 HD
ENDBRANCH  16  20
ENDBRANCH  13  14
ENDBRANCH  12  13
ENDBRANCH   1  12
TORSDOF 10
ENDMDL
MODEL       77
REMARK  Name = ZINC000084409848
REMARK                            x       y       z     vdW  Elec       q    Type
REMARK                         _______ _______ _______ _____ _____    ______ ____
ROOT
ATOM      1  N   LIG    1        0.796  -0.399  -1.397  0.00  0.00    -1.000 NA
ATOM      2  C   LIG    1        0.054  -0.583  -2.652  0.00  0.00    +0.300 C 
ATOM      3  C   LIG    1        0.651   0.347  -3.715  0.00  0.00    +0.290 C 
ATOM      4  N   LIG    1        2.111   0.175  -3.723  0.00  0.00    -0.590 N 
ATOM      5  C   LIG    1        2.853   0.359  -2.468  0.00  0.00    +0.270 C 
ATOM      6  C   LIG    1        2.757  -0.145  -4.862  0.00  0.00    +0.520 C 
ATOM      7  O   LIG    1        2.134  -0.294  -5.891  0.00  0.00    -0.520 OA
ATOM      8  C   LIG    1        2.256  -0.566  -1.406  0.00  0.00    +0.290 C 
ENDROOT
BRANCH   6   9
ATOM      9  C   LIG    1        4.254  -0.319  -4.855  0.00  0.00    -0.010 C 
ATOM     10  C   LIG    1        4.714  -1.715  -4.398  0.00  0.00    +0.330 C 
ATOM     11  N   LIG    1        4.652  -2.094  -5.827  0.00  0.00    -0.540 N 
ATOM     12  H   LIG    1        3.752  -2.462  -6.098  0.00  0.00    +0.440 HD
ATOM     13  H   LIG    1        5.415  -2.691  -6.110  0.00  0.00    +0.430 HD
ATOM     14  C   LIG    1        4.842  -0.683  -6.230  0.00  0.00    +0.350 C 
ENDBRANCH   6   9
BRANCH   1  16
ATOM     15  C   LIG    1       -0.022   1.810   0.012  0.00  0.00    -0.280 C 
ATOM     16  S   LIG    1        0.002  -0.004   0.002  0.00  0.00    +2.610 S 
ATOM     17  O   LIG    1       -1.309  -0.519  -0.182  0.00  0.00    -0.940 OA
ATOM     18  O   LIG    1        0.845  -0.497   1.035  0.00  0.00    -0.950 OA
ENDBRANCH   1  16
TORSDOF 2
ENDMDL
MODEL       78
REMARK  Name = ZINC000257233281
REMARK                            x       y       z     vdW  Elec       q    Type
REMARK                         _______ _______ _______ _____ _____    ______ ____
ROOT
ATOM      1  C   LIG    1        3.571   2.197  -0.020  0.00  0.00    +0.120 C 
ATOM      2  C   LIG    1        3.404   3.157  -1.202  0.00  0.00    +0.050 C 
ATOM      3  C   LIG    1        4.597   4.114  -1.248  0.00  0.00    +0.270 C 
ATOM      4  N   LIG    1        5.838   3.346  -1.411  0.00  0.00    -0.500 N 
ATOM      5  C   LIG    1        6.042   2.475  -0.247  0.00  0.00    +0.250 C 
ATOM      6  H   LIG    1        6.617   3.982  -1.494  0.00  0.00    +0.440 HD
ATOM      7  H   LIG    1        5.775   2.782  -2.245  0.00  0.00    +0.430 HD
ATOM      8  C   LIG    1        4.904   1.456  -0.163  0.00  0.00    +0.210 C 
ENDROOT
BRANCH   1   9
ATOM      9  O   LIG    1        3.564   2.936   1.203  0.00  0.00    -0.530 OA
ATOM     10  H   LIG    1        2.749   3.433   1.357  0.00  0.00    +0.390 HD
ENDBRANCH   1   9
BRANCH   8  11
ATOM     11  O   LIG    1        5.104   0.610   0.972  0.00  0.00    -0.520 OA
ATOM     12  H   LIG    1        5.932   0.112   0.949  0.00  0.00    +0.400 HD
ENDBRANCH   8  11
BRANCH   1  13
ATOM     13  C   LIG    1        2.422   1.187  -0.015  0.00  0.00    +0.290 C 
BRANCH  13  16
ATOM     14  O   LIG    1        0.002  -0.004   0.002  0.00  0.00    -0.510 OA
ATOM     15  C   LIG    1       -0.014   1.213   0.009  0.00  0.00    +0.600 C 
ATOM     16  N   LIG    1        1.143   1.902   0.001  0.00  0.00    -0.740 N 
ATOM     17  H   LIG    1        1.130   2.872   0.007  0.00  0.00    +0.390 HD
BRANCH  15  18
ATOM     18  C   LIG    1       -1.295   1.929   0.019  0.00  0.00    -0.110 A 
ATOM     19  C   LIG    1       -2.544   1.375   0.028  0.00  0.00    +0.280 A 
ATOM     20  N   LIG    1       -3.432   2.370   0.035  0.00  0.00    -0.490 NA
ATOM     21  C   LIG    1       -2.805   3.519   0.031  0.00  0.00    +0.450 A 
ATOM     22  N   LIG    1       -1.478   3.298   0.027  0.00  0.00    -0.560 N 
ATOM     23  H   LIG    1       -0.782   3.973   0.024  0.00  0.00    +0.420 HD
ENDBRANCH  15  18
ENDBRANCH  13  16
ENDBRANCH   1  13
TORSDOF 5
ENDMDL
MODEL       79
REMARK  Name = ZINC000257317165
REMARK                            x       y       z     vdW  Elec       q    Type
REMARK                         _______ _______ _______ _____ _____    ______ ____
ROOT
ATOM      1  C   LIG    1        3.571   2.197  -0.020  0.00  0.00    +0.120 C 
ATOM      2  C   LIG    1        3.404   3.157  -1.202  0.00  0.00    +0.050 C 
ATOM      3  C   LIG    1        4.597   4.113  -1.248  0.00  0.00    +0.270 C 
ATOM      4  N   LIG    1        5.838   3.346  -1.411  0.00  0.00    -0.500 N 
ATOM      5  C   LIG    1        6.042   2.475  -0.247  0.00  0.00    +0.250 C 
ATOM      6  H   LIG    1        6.617   3.981  -1.494  0.00  0.00    +0.440 HD
ATOM      7  H   LIG    1        5.775   2.781  -2.245  0.00  0.00    +0.430 HD
ATOM      8  C   LIG    1        4.904   1.455  -0.163  0.00  0.00    +0.210 C 
ENDROOT
BRANCH   1   9
ATOM      9  O   LIG    1        3.564   2.936   1.203  0.00  0.00    -0.530 OA
ATOM     10  H   LIG    1        2.749   3.433   1.357  0.00  0.00    +0.390 HD
ENDBRANCH   1   9
BRANCH   8  11
ATOM     11  O   LIG    1        5.104   0.610   0.972  0.00  0.00    -0.520 OA
ATOM     12  H   LIG    1        5.932   0.111   0.949  0.00  0.00    +0.400 HD
ENDBRANCH   8  11
BRANCH   1  13
ATOM     13  C   LIG    1        2.422   1.187  -0.015  0.00  0.00    +0.290 C 
BRANCH  13  16
ATOM     14  O   LIG    1        0.002  -0.004   0.002  0.00  0.00    -0.500 OA
ATOM     15  C   LIG    1       -0.014   1.212   0.009  0.00  0.00    +0.600 C 
ATOM     16  N   LIG    1        1.143   1.902   0.001  0.00  0.00    -0.740 N 
ATOM     17  H   LIG    1        1.130   2.872   0.007  0.00  0.00    +0.390 HD
BRANCH  15  18
ATOM     18  C   LIG    1       -1.299   1.931   0.019  0.00  0.00    -0.060 A 
ATOM     19  C   LIG    1       -2.564   1.370   0.027  0.00  0.00    +0.030 A 
ATOM     20  C   LIG    1       -3.448   2.451   0.035  0.00  0.00    +0.210 A 
ATOM     21  N   LIG    1       -2.737   3.550   0.032  0.00  0.00    -0.260 NA
ATOM     22  N   LIG    1       -1.481   3.284   0.027  0.00  0.00    -0.380 N 
ATOM     23  H   LIG    1       -0.770   3.944   0.025  0.00  0.00    +0.440 HD
ENDBRANCH  15  18
ENDBRANCH  13  16
ENDBRANCH   1  13
TORSDOF 5
ENDMDL
MODEL       80
REMARK  Name = ZINC000257279050
REMARK                            x       y       z     vdW  Elec       q    Type
REMARK                         _______ _______ _______ _____ _____    ______ ____
ROOT
ATOM      1  C   LIG    1        3.571   2.197  -0.020  0.00  0.00    +0.120 C 
ATOM      2  C   LIG    1        3.475   3.111  -1.260  0.00  0.00    +0.260 C 
ATOM      3  N   LIG    1        4.885   3.328  -1.676  0.00  0.00    -0.510 N 
ATOM      4  C   LIG    1        5.531   2.005  -1.477  0.00  0.00    +0.260 C 
ATOM      5  H   LIG    1        5.321   4.026  -1.094  0.00  0.00    +0.440 HD
ATOM      6  H   LIG    1        4.929   3.600  -2.647  0.00  0.00    +0.440 HD
ATOM      7  C   LIG    1        4.924   1.468  -0.163  0.00  0.00    +0.220 C 
ENDROOT
BRANCH   1   8
ATOM      8  O   LIG    1        3.551   2.976   1.177  0.00  0.00    -0.510 OA
ATOM      9  H   LIG    1        2.733   3.474   1.309  0.00  0.00    +0.390 HD
ENDBRANCH   1   8
BRANCH   7  10
ATOM     10  O   LIG    1        5.776   1.780   0.941  0.00  0.00    -0.530 OA
ATOM     11  H   LIG    1        6.657   1.384   0.881  0.00  0.00    +0.400 HD
ENDBRANCH   7  10
BRANCH   1  12
ATOM     12  C   LIG    1        2.422   1.187  -0.015  0.00  0.00    +0.290 C 
BRANCH  12  15
ATOM     13  O   LIG    1        0.002  -0.004   0.002  0.00  0.00    -0.510 OA
ATOM     14  C   LIG    1       -0.014   1.212   0.009  0.00  0.00    +0.610 C 
ATOM     15  N   LIG    1        1.143   1.902   0.001  0.00  0.00    -0.730 N 
ATOM     16  H   LIG    1        1.130   2.872   0.007  0.00  0.00    +0.410 HD
BRANCH  14  17
ATOM     17  C   LIG    1       -1.300   1.931   0.019  0.00  0.00    -0.010 A 
ATOM     18  C   LIG    1       -2.497   1.304   0.026  0.00  0.00    -0.030 A 
ATOM     19  S   LIG    1       -3.737   2.481   0.037  0.00  0.00    +0.260 S 
ATOM     20  C   LIG    1       -2.585   3.742   0.030  0.00  0.00    +0.200 A 
ATOM     21  N   LIG    1       -1.391   3.264   0.027  0.00  0.00    -0.450 NA
ENDBRANCH  14  17
ENDBRANCH  12  15
ENDBRANCH   1  12
TORSDOF 5
ENDMDL
MODEL       81
REMARK  Name = ZINC000096517620
REMARK                            x       y       z     vdW  Elec       q    Type
REMARK                         _______ _______ _______ _____ _____    ______ ____
ROOT
ATOM      1  C   LIG    1       -0.018   1.461   0.010  0.00  0.00    +0.340 C 
ATOM      2  N   LIG    1        0.002  -0.004   0.002  0.00  0.00    -0.550 N 
ATOM      3  C   LIG    1       -1.159  -0.687   0.004  0.00  0.00    +0.570 A 
ATOM      4  C   LIG    1       -1.138  -2.094  -0.004  0.00  0.00    -0.100 A 
ATOM      5  C   LIG    1        0.069  -2.739  -0.014  0.00  0.00    +0.420 A 
ATOM      6  N   LIG    1        1.230  -1.999  -0.016  0.00  0.00    -0.540 N 
ATOM      7  C   LIG    1        2.527  -2.680  -0.026  0.00  0.00    +0.350 C 
ATOM      8  O   LIG    1       -2.223  -0.090   0.012  0.00  0.00    -0.540 OA
ATOM      9  C   LIG    1        1.180  -0.654  -0.013  0.00  0.00    +0.700 A 
ATOM     10  O   LIG    1        2.215  -0.017  -0.015  0.00  0.00    -0.530 OA
ENDROOT
BRANCH   5  11
ATOM     11  N   LIG    1        0.121  -4.114  -0.023  0.00  0.00    -0.840 N 
ATOM     12  H   LIG    1        0.979  -4.567  -0.030  0.00  0.00    +0.410 HD
ATOM     13  H   LIG    1       -0.700  -4.631  -0.022  0.00  0.00    +0.420 HD
ENDBRANCH   5  11
BRANCH   4  14
ATOM     14  N   LIG    1       -2.345  -2.830  -0.003  0.00  0.00    -0.740 N 
ATOM     15  H   LIG    1       -2.322  -3.800  -0.009  0.00  0.00    +0.400 HD
BRANCH  14  16
ATOM     16  C   LIG    1       -3.631  -2.128   0.007  0.00  0.00    +0.290 C 
BRANCH  16  17
ATOM     17  C   LIG    1       -4.770  -3.150   0.006  0.00  0.00    +0.230 C 
BRANCH  17  18
ATOM     18  N   LIG    1       -6.059  -2.446   0.016  0.00  0.00    -0.380 N 
ATOM     19  C   LIG    1       -7.150  -3.423   0.136  0.00  0.00    +0.320 C 
ATOM     20  C   LIG    1       -6.215  -1.690  -1.234  0.00  0.00    +0.330 C 
ATOM     21  H   LIG    1       -6.090  -1.810   0.799  0.00  0.00    +0.430 HD
ENDBRANCH  17  18
ENDBRANCH  16  17
ENDBRANCH  14  16
ENDBRANCH   4  14
TORSDOF 5
ENDMDL
MODEL       82
REMARK  Name = ZINC000096517235
REMARK                            x       y       z     vdW  Elec       q    Type
REMARK                         _______ _______ _______ _____ _____    ______ ____
ROOT
ATOM      1  C   LIG    1        0.630  -2.147   0.991  0.00  0.00    -0.330 A 
ATOM      2  C   LIG    1       -0.053  -2.870   0.008  0.00  0.00    +0.430 A 
ATOM      3  N   LIG    1       -0.016  -4.189   0.039  0.00  0.00    -0.600 NA
ATOM      4  C   LIG    1        0.656  -4.835   0.984  0.00  0.00    +0.540 A 
ATOM      5  N   LIG    1        1.319  -4.195   1.937  0.00  0.00    -0.590 NA
ATOM      6  C   LIG    1        1.338  -2.868   1.977  0.00  0.00    +0.520 A 
ENDROOT
BRANCH   4   7
ATOM      7  N   LIG    1        0.665  -6.214   0.974  0.00  0.00    -0.460 N 
ATOM      8  C   LIG    1        2.040  -6.731   0.936  0.00  0.00    +0.250 C 
ATOM      9  C   LIG    1        2.008  -8.260   0.987  0.00  0.00    +0.290 C 
ATOM     10  N   LIG    1        1.243  -8.772  -0.158  0.00  0.00    -0.510 N 
ATOM     11  C   LIG    1       -0.135  -8.267  -0.093  0.00  0.00    +0.280 C 
ATOM     12  H   LIG    1        1.233  -9.781  -0.132  0.00  0.00    +0.440 HD
ATOM     13  H   LIG    1        1.675  -8.463  -1.016  0.00  0.00    +0.430 HD
ATOM     14  C   LIG    1       -0.120  -6.738  -0.152  0.00  0.00    +0.260 C 
ENDBRANCH   4   7
BRANCH   1  18
ATOM     15  C   LIG    1        0.025   1.461  -0.017  0.00  0.00    +0.300 C 
ATOM     16  N   LIG    1        0.038  -0.004  -0.021  0.00  0.00    -0.720 N 
ATOM     17  H   LIG    1       -0.369  -0.491  -0.754  0.00  0.00    +0.400 HD
ATOM     18  C   LIG    1        0.617  -0.675   0.995  0.00  0.00    +0.580 C 
ATOM     19  O   LIG    1        1.127  -0.065   1.915  0.00  0.00    -0.540 OA
ENDBRANCH   1  18
BRANCH   6  20
ATOM     20  N   LIG    1        2.029  -2.207   2.970  0.00  0.00    -0.800 N 
ATOM     21  H   LIG    1        1.975  -1.241   3.038  0.00  0.00    +0.430 HD
ATOM     22  H   LIG    1        2.569  -2.708   3.602  0.00  0.00    +0.410 HD
ENDBRANCH   6  20
TORSDOF 3
ENDMDL
MODEL       83
REMARK  Name = ZINC000150049482
REMARK                            x       y       z     vdW  Elec       q    Type
REMARK                         _______ _______ _______ _____ _____    ______ ____
ROOT
ATOM      1  C   LIG    1        1.493  -3.996   2.415  0.00  0.00    +0.270 C 
ATOM      2  O   LIG    1        2.163  -4.457   1.240  0.00  0.00    -0.390 OA
ATOM      3  C   LIG    1        2.217  -5.880   1.119  0.00  0.00    +0.230 C 
ATOM      4  C   LIG    1        2.986  -6.463   2.308  0.00  0.00    +0.120 C 
ATOM      5  C   LIG    1        2.303  -6.033   3.609  0.00  0.00    +0.170 C 
ATOM      6  C   LIG    1        2.234  -4.504   3.655  0.00  0.00    +0.220 C 
ENDROOT
BRANCH   5   7
ATOM      7  O   LIG    1        3.055  -6.513   4.725  0.00  0.00    -0.550 OA
ATOM      8  H   LIG    1        3.143  -7.476   4.755  0.00  0.00    +0.390 HD
ENDBRANCH   5   7
BRANCH   4   9
ATOM      9  O   LIG    1        4.330  -5.979   2.290  0.00  0.00    -0.550 OA
ATOM     10  H   LIG    1        4.822  -6.212   1.490  0.00  0.00    +0.390 HD
ENDBRANCH   4   9
BRANCH   1  11
ATOM     11  O   LIG    1        0.153  -4.491   2.425  0.00  0.00    -0.540 OA
ATOM     12  H   LIG    1       -0.376  -4.209   1.666  0.00  0.00    +0.380 HD
ENDBRANCH   1  11
BRANCH   6  13
ATOM     13  O   LIG    1        1.534  -4.093   4.832  0.00  0.00    -0.550 OA
ATOM     14  H   LIG    1        1.947  -4.384   5.657  0.00  0.00    +0.410 HD
ENDBRANCH   6  13
BRANCH   1  15
ATOM     15  C   LIG    1        1.472  -2.466   2.424  0.00  0.00    +0.300 C 
BRANCH  15  16
ATOM     16  N   LIG    1        0.762  -1.980   1.234  0.00  0.00    -0.510 N 
ATOM     17  H   LIG    1        1.234  -2.305   0.403  0.00  0.00    +0.430 HD
ATOM     18  H   LIG    1       -0.185  -2.329   1.241  0.00  0.00    +0.420 HD
BRANCH  16  19
ATOM     19  C   LIG    1        0.742  -0.511   1.242  0.00  0.00    +0.260 C 
BRANCH  19  21
ATOM     20  C   LIG    1       -0.019   1.526   0.010  0.00  0.00    +0.060 C 
ATOM     21  C   LIG    1        0.002  -0.004   0.002  0.00  0.00    +0.030 C 
ENDBRANCH  19  21
ENDBRANCH  16  19
ENDBRANCH  15  16
ENDBRANCH   1  15
TORSDOF 8
ENDMDL
MODEL       84
REMARK  Name = ZINC000019687556
REMARK                            x       y       z     vdW  Elec       q    Type
REMARK                         _______ _______ _______ _____ _____    ______ ____
ROOT
ATOM      1  N   LIG    1        1.293  -2.756  -2.186  0.00  0.00    -0.510 NA
ATOM      2  C   LIG    1        0.932  -2.049  -3.422  0.00  0.00    +0.190 C 
ATOM      3  C   LIG    1        1.801  -2.566  -4.574  0.00  0.00    +0.310 C 
ATOM      4  N   LIG    1        1.674  -4.030  -4.635  0.00  0.00    -0.580 N 
ATOM      5  C   LIG    1        1.886  -4.798  -3.399  0.00  0.00    +0.280 C 
ATOM      6  C   LIG    1        1.371  -4.650  -5.792  0.00  0.00    +0.500 C 
ATOM      7  O   LIG    1        1.200  -4.001  -6.802  0.00  0.00    -0.530 OA
ATOM      8  C   LIG    1        1.014  -4.194  -2.293  0.00  0.00    +0.190 C 
ENDROOT
BRANCH   1   9
ATOM      9  C   LIG    1        0.606  -2.171  -1.026  0.00  0.00    +0.250 C 
BRANCH   9  13
ATOM     10  C   LIG    1       -3.170  -1.767  -0.540  0.00  0.00    +0.280 C 
ATOM     11  N   LIG    1       -1.721  -1.681  -0.344  0.00  0.00    -0.730 N 
ATOM     12  H   LIG    1       -1.363  -1.208   0.424  0.00  0.00    +0.410 HD
ATOM     13  C   LIG    1       -0.885  -2.260  -1.229  0.00  0.00    +0.480 C 
ATOM     14  O   LIG    1       -1.333  -2.852  -2.188  0.00  0.00    -0.550 OA
ENDBRANCH   9  13
ENDBRANCH   1   9
BRANCH   6  15
ATOM     15  C   LIG    1        1.246  -6.152  -5.832  0.00  0.00    +0.290 C 
BRANCH  15  16
ATOM     16  N   LIG    1        0.912  -6.579  -7.197  0.00  0.00    -0.620 N 
ATOM     17  H   LIG    1        0.828  -7.584  -7.223  0.00  0.00    +0.440 HD
ATOM     18  H   LIG    1        1.642  -6.286  -7.829  0.00  0.00    +0.440 HD
ATOM     19  H   LIG    1        0.038  -6.161  -7.476  0.00  0.00    +0.440 HD
ENDBRANCH  15  16
ENDBRANCH   6  15
TORSDOF 4
ENDMDL
MODEL       85
REMARK  Name = ZINC000058256213
REMARK                            x       y       z     vdW  Elec       q    Type
REMARK                         _______ _______ _______ _____ _____    ______ ____
ROOT
ATOM      1  S   LIG    1        1.455  -2.756  -2.519  0.00  0.00    +2.460 S 
ATOM      2  O   LIG    1        2.818  -2.363  -2.448  0.00  0.00    -0.900 OA
ATOM      3  O   LIG    1        0.684  -2.385  -3.653  0.00  0.00    -0.900 OA
ENDROOT
BRANCH   1   4
ATOM      4  C   LIG    1        1.362  -4.557  -2.321  0.00  0.00    -0.460 C 
ATOM      5  C   LIG    1       -0.106  -4.991  -2.267  0.00  0.00    +0.090 C 
ATOM      6  C   LIG    1       -0.178  -6.517  -2.180  0.00  0.00    +0.280 C 
ATOM      7  N   LIG    1        0.466  -7.109  -3.359  0.00  0.00    -0.510 N 
ATOM      8  C   LIG    1        1.890  -6.756  -3.379  0.00  0.00    +0.280 C 
ATOM      9  H   LIG    1        0.022  -6.758  -4.195  0.00  0.00    +0.430 HD
ATOM     10  H   LIG    1        0.370  -8.113  -3.325  0.00  0.00    +0.440 HD
ATOM     11  C   LIG    1        2.042  -5.239  -3.512  0.00  0.00    +0.100 C 
ENDBRANCH   1   4
BRANCH   1  12
ATOM     12  C   LIG    1        0.606  -2.171  -1.026  0.00  0.00    -0.330 C 
BRANCH  12  16
ATOM     13  C   LIG    1       -0.018   1.461   0.010  0.00  0.00    +0.310 C 
ATOM     14  N   LIG    1        0.002  -0.004   0.002  0.00  0.00    -0.720 N 
ATOM     15  H   LIG    1       -0.404  -0.499   0.731  0.00  0.00    +0.410 HD
ATOM     16  C   LIG    1        0.585  -0.664  -1.018  0.00  0.00    +0.540 C 
ATOM     17  O   LIG    1        1.093  -0.046  -1.929  0.00  0.00    -0.520 OA
ENDBRANCH  12  16
ENDBRANCH   1  12
TORSDOF 3
ENDMDL
MODEL       86
REMARK  Name = ZINC000096238282
REMARK                            x       y       z     vdW  Elec       q    Type
REMARK                         _______ _______ _______ _____ _____    ______ ____
ROOT
ATOM      1  C   LIG    1       -0.089   1.458   0.424  0.00  0.00    +0.320 C 
ATOM      2  N   LIG    1       -0.069  -0.007   0.415  0.00  0.00    -0.730 N 
ATOM      3  H   LIG    1        0.726  -0.483   0.703  0.00  0.00    +0.410 HD
ATOM      4  C   LIG    1       -1.156  -0.694   0.009  0.00  0.00    +0.720 C 
ATOM      5  N   LIG    1       -1.137  -2.041   0.002  0.00  0.00    -0.640 N 
ATOM      6  C   LIG    1        0.125  -2.788  -0.117  0.00  0.00    +0.340 C 
ATOM      7  C   LIG    1       -0.081  -3.946  -1.056  0.00  0.00    +0.510 C 
ATOM      8  N   LIG    1       -1.283  -4.363  -1.453  0.00  0.00    -0.720 N 
ATOM      9  H   LIG    1       -1.326  -5.161  -2.002  0.00  0.00    +0.410 HD
ATOM     10  C   LIG    1       -2.538  -3.701  -1.119  0.00  0.00    +0.300 C 
ATOM     11  O   LIG    1        0.897  -4.530  -1.471  0.00  0.00    -0.520 OA
ATOM     12  C   LIG    1       -2.373  -2.821   0.119  0.00  0.00    +0.160 C 
ATOM     13  C   LIG    1       -2.339  -3.687   1.392  0.00  0.00    +0.080 C 
ATOM     14  C   LIG    1       -3.143  -2.835   2.408  0.00  0.00    +0.270 C 
ATOM     15  N   LIG    1       -4.216  -2.232   1.576  0.00  0.00    -0.510 N 
ATOM     16  H   LIG    1       -4.576  -1.401   2.021  0.00  0.00    +0.440 HD
ATOM     17  H   LIG    1       -4.959  -2.898   1.429  0.00  0.00    +0.430 HD
ATOM     18  C   LIG    1       -3.579  -1.886   0.284  0.00  0.00    +0.280 C 
ATOM     19  O   LIG    1       -2.152  -0.097  -0.350  0.00  0.00    -0.560 OA
ENDROOT
TORSDOF 0
ENDMDL
MODEL       87
REMARK  Name = ZINC000096238283
REMARK                            x       y       z     vdW  Elec       q    Type
REMARK                         _______ _______ _______ _____ _____    ______ ____
ROOT
ATOM      1  C   LIG    1       -0.024   1.461  -0.102  0.00  0.00    +0.330 C 
ATOM      2  N   LIG    1       -0.004  -0.004  -0.110  0.00  0.00    -0.740 N 
ATOM      3  H   LIG    1        0.838  -0.477  -0.201  0.00  0.00    +0.400 HD
ATOM      4  C   LIG    1       -1.156  -0.694   0.009  0.00  0.00    +0.720 C 
ATOM      5  N   LIG    1       -1.137  -2.041   0.002  0.00  0.00    -0.630 N 
ATOM      6  C   LIG    1        0.125  -2.788  -0.118  0.00  0.00    +0.330 C 
ATOM      7  C   LIG    1       -0.081  -3.950  -1.050  0.00  0.00    +0.510 C 
ATOM      8  N   LIG    1       -1.284  -4.374  -1.440  0.00  0.00    -0.720 N 
ATOM      9  H   LIG    1       -1.326  -5.176  -1.984  0.00  0.00    +0.410 HD
ATOM     10  C   LIG    1       -2.540  -3.712  -1.106  0.00  0.00    +0.300 C 
ATOM     11  O   LIG    1        0.897  -4.533  -1.468  0.00  0.00    -0.520 OA
ATOM     12  C   LIG    1       -2.372  -2.819   0.118  0.00  0.00    +0.160 C 
ATOM     13  C   LIG    1       -3.584  -1.876   0.274  0.00  0.00    +0.120 C 
ATOM     14  C   LIG    1       -3.570  -1.600   1.799  0.00  0.00    +0.280 C 
ATOM     15  N   LIG    1       -3.145  -2.877   2.413  0.00  0.00    -0.510 N 
ATOM     16  H   LIG    1       -3.957  -3.404   2.696  0.00  0.00    +0.430 HD
ATOM     17  H   LIG    1       -2.563  -2.691   3.215  0.00  0.00    +0.430 HD
ATOM     18  C   LIG    1       -2.381  -3.647   1.411  0.00  0.00    +0.270 C 
ATOM     19  O   LIG    1       -2.211  -0.101   0.123  0.00  0.00    -0.570 OA
ENDROOT
TORSDOF 0
ENDMDL
MODEL       88
REMARK  Name = ZINC000096238331
REMARK                            x       y       z     vdW  Elec       q    Type
REMARK                         _______ _______ _______ _____ _____    ______ ____
ROOT
ATOM      1  C   LIG    1       -0.018   1.461   0.010  0.00  0.00    +0.320 C 
ATOM      2  N   LIG    1        0.002  -0.004   0.002  0.00  0.00    -0.740 N 
ATOM      3  H   LIG    1       -0.404  -0.499   0.731  0.00  0.00    +0.400 HD
ATOM      4  C   LIG    1        0.585  -0.664  -1.018  0.00  0.00    +0.700 C 
ATOM      5  N   LIG    1        0.603  -2.013  -1.025  0.00  0.00    -0.640 N 
ATOM      6  C   LIG    1        0.000  -2.761   0.045  0.00  0.00    +0.300 C 
ATOM      7  C   LIG    1        0.921  -3.065   1.251  0.00  0.00    +0.250 C 
ATOM      8  N   LIG    1        2.298  -3.394   0.778  0.00  0.00    -0.500 N 
ATOM      9  C   LIG    1        2.267  -4.245  -0.368  0.00  0.00    +0.290 C 
ATOM     10  C   LIG    1        2.450  -3.425  -1.628  0.00  0.00    -0.110 C 
ATOM     11  C   LIG    1        3.638  -2.445  -1.503  0.00  0.00    +0.280 C 
ATOM     12  N   LIG    1        4.833  -3.274  -1.714  0.00  0.00    -0.740 N 
ATOM     13  H   LIG    1        5.714  -3.062  -1.380  0.00  0.00    +0.420 HD
ATOM     14  C   LIG    1        4.520  -4.370  -2.429  0.00  0.00    +0.510 C 
ATOM     15  O   LIG    1        5.309  -5.217  -2.786  0.00  0.00    -0.500 OA
ATOM     16  C   LIG    1        3.034  -4.386  -2.717  0.00  0.00    +0.110 C 
ATOM     17  H   LIG    1        2.774  -3.897   1.530  0.00  0.00    +0.430 HD
ATOM     18  H   LIG    1        2.797  -2.544   0.628  0.00  0.00    +0.420 HD
ATOM     19  C   LIG    1        1.247  -2.770  -2.151  0.00  0.00    +0.380 C 
ATOM     20  O   LIG    1        1.095  -0.045  -1.931  0.00  0.00    -0.560 OA
ENDROOT
TORSDOF 0
ENDMDL
MODEL       89
REMARK  Name = ZINC000096238330
REMARK                            x       y       z     vdW  Elec       q    Type
REMARK                         _______ _______ _______ _____ _____    ______ ____
ROOT
ATOM      1  C   LIG    1       -0.018   1.461   0.010  0.00  0.00    +0.320 C 
ATOM      2  N   LIG    1        0.002  -0.004   0.002  0.00  0.00    -0.740 N 
ATOM      3  H   LIG    1       -0.404  -0.499   0.731  0.00  0.00    +0.400 HD
ATOM      4  C   LIG    1        0.585  -0.664  -1.018  0.00  0.00    +0.700 C 
ATOM      5  N   LIG    1        0.603  -2.012  -1.025  0.00  0.00    -0.640 N 
ATOM      6  C   LIG    1        0.000  -2.759   0.044  0.00  0.00    +0.300 C 
ATOM      7  C   LIG    1        0.913  -3.127   1.235  0.00  0.00    +0.250 C 
ATOM      8  N   LIG    1        2.251  -3.574   0.760  0.00  0.00    -0.520 N 
ATOM      9  C   LIG    1        2.115  -4.377  -0.425  0.00  0.00    +0.300 C 
ATOM     10  C   LIG    1        2.430  -3.434  -1.581  0.00  0.00    -0.120 C 
ATOM     11  C   LIG    1        3.222  -4.216  -2.657  0.00  0.00    +0.300 C 
ATOM     12  N   LIG    1        4.252  -3.289  -3.138  0.00  0.00    -0.730 N 
ATOM     13  H   LIG    1        4.744  -3.400  -3.966  0.00  0.00    +0.430 HD
ATOM     14  C   LIG    1        4.427  -2.268  -2.283  0.00  0.00    +0.530 C 
ATOM     15  O   LIG    1        5.221  -1.363  -2.435  0.00  0.00    -0.500 OA
ATOM     16  C   LIG    1        3.491  -2.409  -1.104  0.00  0.00    +0.040 C 
ATOM     17  H   LIG    1        2.696  -4.120   1.482  0.00  0.00    +0.430 HD
ATOM     18  H   LIG    1        2.819  -2.766   0.554  0.00  0.00    +0.430 HD
ATOM     19  C   LIG    1        1.250  -2.764  -2.156  0.00  0.00    +0.370 C 
ATOM     20  O   LIG    1        1.095  -0.045  -1.931  0.00  0.00    -0.550 OA
ENDROOT
TORSDOF 0
ENDMDL
MODEL       90
REMARK  Name = ZINC000096532900
REMARK                            x       y       z     vdW  Elec       q    Type
REMARK                         _______ _______ _______ _____ _____    ______ ____
ROOT
ATOM      1  C   LIG    1       -2.135   0.949   1.227  0.00  0.00    -0.010 C 
ATOM      2  C   LIG    1       -2.288  -0.502   1.796  0.00  0.00    +0.070 C 
ATOM      3  C   LIG    1       -1.949   0.197   3.084  0.00  0.00    -0.030 C 
ATOM      4  C   LIG    1       -2.589  -0.028   4.450  0.00  0.00    -0.280 C 
ATOM      5  S   LIG    1       -2.702   1.717   5.045  0.00  0.00    +2.370 S 
ATOM      6  C   LIG    1       -2.750   2.485   3.370  0.00  0.00    -0.290 C 
ATOM      7  O   LIG    1       -1.493   2.075   5.701  0.00  0.00    -0.920 OA
ATOM      8  O   LIG    1       -3.949   1.917   5.695  0.00  0.00    -0.920 OA
ATOM      9  C   LIG    1       -2.911   1.278   2.468  0.00  0.00    +0.030 C 
ENDROOT
BRANCH   1  10
ATOM     10  C   LIG    1       -0.699   1.479   1.216  0.00  0.00    +0.290 C 
BRANCH  10  11
ATOM     11  N   LIG    1       -0.100   1.243  -0.104  0.00  0.00    -0.640 N 
ATOM     12  H   LIG    1       -0.641   1.722  -0.809  0.00  0.00    +0.440 HD
ATOM     13  H   LIG    1        0.846   1.592  -0.111  0.00  0.00    +0.440 HD
ATOM     14  H   LIG    1       -0.095   0.253  -0.299  0.00  0.00    +0.430 HD
ENDBRANCH  10  11
ENDBRANCH   1  10
BRANCH   2  15
ATOM     15  C   LIG    1       -1.225  -1.490   1.311  0.00  0.00    +0.170 C 
BRANCH  15  16
ATOM     16  O   LIG    1       -1.617  -2.030   0.047  0.00  0.00    -0.570 OA
ATOM     17  H   LIG    1       -0.988  -2.665  -0.321  0.00  0.00    +0.390 HD
ENDBRANCH  15  16
ENDBRANCH   2  15
TORSDOF 4
ENDMDL
MODEL       91
REMARK  Name = ZINC000262265987
REMARK                            x       y       z     vdW  Elec       q    Type
REMARK                         _______ _______ _______ _____ _____    ______ ____
ROOT
ATOM      1  N   LIG    1       -0.737  -2.669  -1.131  0.00  0.00    -0.530 NA
ATOM      2  C   LIG    1       -1.694  -1.888  -0.337  0.00  0.00    +0.170 C 
ATOM      3  C   LIG    1       -3.112  -2.405  -0.599  0.00  0.00    +0.300 C 
ATOM      4  N   LIG    1       -3.135  -3.855  -0.351  0.00  0.00    -0.590 N 
ATOM      5  C   LIG    1       -2.116  -4.689  -1.007  0.00  0.00    +0.270 C 
ATOM      6  C   LIG    1       -4.065  -4.404   0.455  0.00  0.00    +0.520 C 
ATOM      7  O   LIG    1       -4.897  -3.701   0.987  0.00  0.00    -0.530 OA
ATOM      8  C   LIG    1       -0.737  -4.082  -0.728  0.00  0.00    +0.190 C 
ENDROOT
BRANCH   6   9
ATOM      9  C   LIG    1       -4.069  -5.892   0.695  0.00  0.00    -0.010 C 
ATOM     10  C   LIG    1       -3.090  -6.345   1.794  0.00  0.00    +0.330 C 
ATOM     11  N   LIG    1       -4.218  -6.165   2.735  0.00  0.00    -0.540 N 
ATOM     12  H   LIG    1       -4.256  -5.237   3.130  0.00  0.00    +0.440 HD
ATOM     13  H   LIG    1       -4.263  -6.888   3.437  0.00  0.00    +0.430 HD
ATOM     14  C   LIG    1       -5.191  -6.364   1.638  0.00  0.00    +0.340 C 
ENDBRANCH   6   9
BRANCH   1  15
ATOM     15  C   LIG    1        0.613  -2.097  -1.041  0.00  0.00    +0.250 C 
BRANCH  15  16
ATOM     16  C   LIG    1        0.955  -1.825   0.425  0.00  0.00    +0.130 C 
BRANCH  16  18
ATOM     17  C   LIG    1        1.346  -2.921   2.521  0.00  0.00    +0.210 C 
ATOM     18  O   LIG    1        1.031  -3.063   1.134  0.00  0.00    -0.390 OA
ENDBRANCH  16  18
ENDBRANCH  15  16
ENDBRANCH   1  15
TORSDOF 4
ENDMDL
MODEL       92
REMARK  Name = ZINC000019677068
REMARK                            x       y       z     vdW  Elec       q    Type
REMARK                         _______ _______ _______ _____ _____    ______ ____
ROOT
ATOM      1  N   LIG    1        0.796  -0.399  -1.397  0.00  0.00    -1.000 NA
ATOM      2  C   LIG    1        0.054  -0.583  -2.652  0.00  0.00    +0.300 C 
ATOM      3  C   LIG    1        0.651   0.347  -3.715  0.00  0.00    +0.290 C 
ATOM      4  N   LIG    1        2.111   0.175  -3.723  0.00  0.00    -0.590 N 
ATOM      5  C   LIG    1        2.853   0.359  -2.468  0.00  0.00    +0.270 C 
ATOM      6  C   LIG    1        2.757  -0.145  -4.862  0.00  0.00    +0.500 C 
ATOM      7  O   LIG    1        2.134  -0.294  -5.891  0.00  0.00    -0.530 OA
ATOM      8  C   LIG    1        2.256  -0.566  -1.406  0.00  0.00    +0.300 C 
ENDROOT
BRANCH   1  10
ATOM      9  C   LIG    1       -0.022   1.810   0.012  0.00  0.00    -0.280 C 
ATOM     10  S   LIG    1        0.002  -0.004   0.002  0.00  0.00    +2.610 S 
ATOM     11  O   LIG    1       -1.309  -0.519  -0.182  0.00  0.00    -0.940 OA
ATOM     12  O   LIG    1        0.845  -0.497   1.035  0.00  0.00    -0.940 OA
ENDBRANCH   1  10
BRANCH   6  13
ATOM     13  C   LIG    1        4.254  -0.319  -4.855  0.00  0.00    +0.290 C 
BRANCH  13  14
ATOM     14  N   LIG    1        4.713  -0.663  -6.207  0.00  0.00    -0.620 N 
ATOM     15  H   LIG    1        4.276  -1.524  -6.502  0.00  0.00    +0.440 HD
ATOM     16  H   LIG    1        5.715  -0.779  -6.203  0.00  0.00    +0.450 HD
ATOM     17  H   LIG    1        4.463   0.077  -6.846  0.00  0.00    +0.440 HD
ENDBRANCH  13  14
ENDBRANCH   6  13
TORSDOF 3
ENDMDL
MODEL       93
REMARK  Name = ZINC000019677493
REMARK                            x       y       z     vdW  Elec       q    Type
REMARK                         _______ _______ _______ _____ _____    ______ ____
ROOT
ATOM      1  N   LIG    1        0.796  -0.399  -1.397  0.00  0.00    -1.000 NA
ATOM      2  C   LIG    1        0.054  -0.583  -2.652  0.00  0.00    +0.300 C 
ATOM      3  C   LIG    1        0.651   0.347  -3.715  0.00  0.00    +0.280 C 
ATOM      4  N   LIG    1        2.111   0.175  -3.723  0.00  0.00    -0.600 N 
ATOM      5  C   LIG    1        2.853   0.359  -2.468  0.00  0.00    +0.280 C 
ATOM      6  C   LIG    1        2.757  -0.145  -4.862  0.00  0.00    +0.520 C 
ATOM      7  O   LIG    1        2.134  -0.294  -5.891  0.00  0.00    -0.530 OA
ATOM      8  C   LIG    1        2.256  -0.566  -1.406  0.00  0.00    +0.290 C 
ENDROOT
BRANCH   1  10
ATOM      9  C   LIG    1       -0.022   1.810   0.012  0.00  0.00    -0.280 C 
ATOM     10  S   LIG    1        0.002  -0.004   0.002  0.00  0.00    +2.610 S 
ATOM     11  O   LIG    1       -1.309  -0.519  -0.182  0.00  0.00    -0.940 OA
ATOM     12  O   LIG    1        0.845  -0.497   1.035  0.00  0.00    -0.950 OA
ENDBRANCH   1  10
BRANCH   6  13
ATOM     13  C   LIG    1        4.254  -0.319  -4.855  0.00  0.00    +0.060 C 
BRANCH  13  14
ATOM     14  C   LIG    1        4.732  -0.678  -6.263  0.00  0.00    +0.290 C 
BRANCH  14  15
ATOM     15  N   LIG    1        6.191  -0.847  -6.257  0.00  0.00    -0.640 N 
ATOM     16  H   LIG    1        6.507  -1.083  -7.186  0.00  0.00    +0.440 HD
ATOM     17  H   LIG    1        6.441  -1.587  -5.618  0.00  0.00    +0.440 HD
ATOM     18  H   LIG    1        6.628   0.014  -5.962  0.00  0.00    +0.440 HD
ENDBRANCH  14  15
ENDBRANCH  13  14
ENDBRANCH   6  13
TORSDOF 4
ENDMDL
MODEL       94
REMARK  Name = ZINC000257276447
REMARK                            x       y       z     vdW  Elec       q    Type
REMARK                         _______ _______ _______ _____ _____    ______ ____
ROOT
ATOM      1  C   LIG    1        0.876  -2.197   0.852  0.00  0.00    -0.020 C 
ATOM      2  C   LIG    1       -0.618  -2.586   0.870  0.00  0.00    +0.310 C 
ATOM      3  N   LIG    1       -0.695  -3.733   1.810  0.00  0.00    -0.390 N 
ATOM      4  C   LIG    1        0.241  -3.370   2.906  0.00  0.00    +0.280 C 
ATOM      5  C   LIG    1       -2.062  -3.883   2.327  0.00  0.00    +0.340 C 
ATOM      6  H   LIG    1       -0.394  -4.582   1.356  0.00  0.00    +0.430 HD
ATOM      7  C   LIG    1        1.443  -2.713   2.190  0.00  0.00    +0.290 C 
ENDROOT
BRANCH   1  11
ATOM      8  C   LIG    1        2.343   1.292   0.276  0.00  0.00    +0.300 C 
ATOM      9  N   LIG    1        2.196  -0.163   0.362  0.00  0.00    -0.720 N 
ATOM     10  H   LIG    1        2.941  -0.740   0.132  0.00  0.00    +0.400 HD
ATOM     11  C   LIG    1        1.027  -0.700   0.762  0.00  0.00    +0.530 C 
ATOM     12  O   LIG    1        0.095   0.021   1.050  0.00  0.00    -0.520 OA
ENDBRANCH   1  11
BRANCH   7  13
ATOM     13  N   LIG    1        1.964  -1.600   2.987  0.00  0.00    -1.120 NA
ATOM     14  H   LIG    1        1.427  -0.803   3.116  0.00  0.00    +0.430 HD
BRANCH  13  15
ATOM     15  S   LIG    1        3.470  -1.704   3.668  0.00  0.00    +2.600 S 
ATOM     16  O   LIG    1        3.459  -2.947   4.356  0.00  0.00    -0.940 OA
ATOM     17  O   LIG    1        3.621  -0.478   4.372  0.00  0.00    -0.930 OA
ATOM     18  C   LIG    1        4.604  -1.769   2.253  0.00  0.00    -0.270 C 
ENDBRANCH  13  15
ENDBRANCH   7  13
TORSDOF 3
ENDMDL
MODEL       95
REMARK  Name = ZINC000072344439
REMARK                            x       y       z     vdW  Elec       q    Type
REMARK                         _______ _______ _______ _____ _____    ______ ____
ROOT
ATOM      1  C   LIG    1       -1.135  -2.201   0.001  0.00  0.00    -0.030 C 
ATOM      2  C   LIG    1       -0.368  -2.667  -1.230  0.00  0.00    +0.300 C 
ATOM      3  N   LIG    1        0.295  -3.877  -0.816  0.00  0.00    -0.510 N 
ATOM      4  C   LIG    1       -0.465  -5.067  -1.282  0.00  0.00    +0.260 C 
ATOM      5  C   LIG    1       -1.987  -4.834  -1.156  0.00  0.00    +0.330 C 
ATOM      6  N   LIG    1       -2.443  -4.188   0.044  0.00  0.00    -1.010 NA
ATOM      7  H   LIG    1        0.358  -3.896   0.191  0.00  0.00    +0.420 HD
ATOM      8  H   LIG    1        1.224  -3.899  -1.209  0.00  0.00    +0.440 HD
ATOM      9  C   LIG    1       -2.518  -2.686   0.068  0.00  0.00    +0.370 C 
ENDROOT
BRANCH   1  13
ATOM     10  C   LIG    1       -0.018   1.461   0.010  0.00  0.00    +0.310 C 
ATOM     11  N   LIG    1        0.002  -0.004   0.002  0.00  0.00    -0.730 N 
ATOM     12  H   LIG    1        0.849  -0.478  -0.009  0.00  0.00    +0.400 HD
ATOM     13  C   LIG    1       -1.156  -0.694   0.009  0.00  0.00    +0.510 C 
ATOM     14  O   LIG    1       -2.214  -0.102   0.023  0.00  0.00    -0.500 OA
ENDBRANCH   1  13
BRANCH   6  15
ATOM     15  S   LIG    1       -2.879  -5.080   1.370  0.00  0.00    +2.600 S 
ATOM     16  O   LIG    1       -3.276  -6.335   0.833  0.00  0.00    -0.930 OA
ATOM     17  O   LIG    1       -3.805  -4.252   2.060  0.00  0.00    -0.920 OA
ATOM     18  C   LIG    1       -1.345  -5.253   2.323  0.00  0.00    -0.280 C 
ENDBRANCH   6  15
TORSDOF 2
ENDMDL
MODEL       96
REMARK  Name = ZINC000257230778
REMARK                            x       y       z     vdW  Elec       q    Type
REMARK                         _______ _______ _______ _____ _____    ______ ____
ROOT
ATOM      1  C   LIG    1        0.606  -2.171  -1.026  0.00  0.00    +0.090 C 
ATOM      2  C   LIG    1        1.792  -2.663  -1.864  0.00  0.00    +0.320 C 
ATOM      3  N   LIG    1        1.901  -4.121  -1.703  0.00  0.00    -0.590 N 
ATOM      4  C   LIG    1        1.908  -4.668  -0.337  0.00  0.00    +0.260 C 
ATOM      5  C   LIG    1        0.716  -4.079   0.426  0.00  0.00    +0.230 C 
ATOM      6  C   LIG    1        1.991  -4.933  -2.776  0.00  0.00    +0.500 C 
ATOM      7  O   LIG    1        1.984  -4.463  -3.894  0.00  0.00    -0.520 OA
ATOM      8  C   LIG    1       -0.699  -2.697  -1.628  0.00  0.00    +0.060 C 
ATOM      9  O   LIG    1        0.742  -2.654   0.312  0.00  0.00    -0.360 OA
ENDROOT
BRANCH   1  13
ATOM     10  C   LIG    1       -0.018   1.461   0.010  0.00  0.00    +0.300 C 
ATOM     11  N   LIG    1        0.002  -0.004   0.002  0.00  0.00    -0.710 N 
ATOM     12  H   LIG    1       -0.404  -0.499   0.731  0.00  0.00    +0.410 HD
ATOM     13  C   LIG    1        0.585  -0.664  -1.018  0.00  0.00    +0.530 C 
ATOM     14  O   LIG    1        1.093  -0.046  -1.929  0.00  0.00    -0.520 OA
ENDBRANCH   1  13
BRANCH   6  15
ATOM     15  C   LIG    1        2.102  -6.423  -2.586  0.00  0.00    +0.290 C 
BRANCH  15  16
ATOM     16  N   LIG    1        2.186  -7.079  -3.898  0.00  0.00    -0.370 N 
ATOM     17  C   LIG    1        2.173  -8.537  -3.718  0.00  0.00    +0.320 C 
ATOM     18  C   LIG    1        3.432  -6.679  -4.566  0.00  0.00    +0.330 C 
ATOM     19  H   LIG    1        1.398  -6.803  -4.463  0.00  0.00    +0.430 HD
ENDBRANCH  15  16
ENDBRANCH   6  15
TORSDOF 3
ENDMDL
MODEL       97
REMARK  Name = ZINC000001692430
REMARK                            x       y       z     vdW  Elec       q    Type
REMARK                         _______ _______ _______ _____ _____    ______ ____
ROOT
ATOM      1  C   LIG    1       -1.268  -0.761   0.010  0.00  0.00    -0.140 A 
ATOM      2  C   LIG    1       -2.496  -0.089   0.019  0.00  0.00    +0.200 A 
ATOM      3  C   LIG    1       -3.656  -0.844   0.026  0.00  0.00    +0.070 A 
ATOM      4  C   LIG    1       -3.566  -2.224   0.024  0.00  0.00    +0.370 A 
ATOM      5  N   LIG    1       -2.394  -2.830   0.015  0.00  0.00    -0.340 N 
ATOM      6  C   LIG    1       -1.263  -2.156   0.003  0.00  0.00    +0.390 A 
ENDROOT
BRANCH   1  10
ATOM      7  N   LIG    1       -0.016   1.344   0.009  0.00  0.00    -0.830 N 
ATOM      8  H   LIG    1       -0.863   1.817   0.016  0.00  0.00    +0.410 HD
ATOM      9  H   LIG    1        0.817   1.840   0.004  0.00  0.00    +0.420 HD
ATOM     10  C   LIG    1        0.002  -0.004   0.002  0.00  0.00    +0.570 C 
ATOM     11  O   LIG    1        1.063  -0.597  -0.011  0.00  0.00    -0.510 OA
ENDBRANCH   1  10
BRANCH   5  12
ATOM     12  C   LIG    1       -2.350  -4.294   0.013  0.00  0.00    +0.430 C 
BRANCH  12  13
ATOM     13  C   LIG    1       -2.344  -4.795  -1.409  0.00  0.00    -0.350 A 
ATOM     14  C   LIG    1       -1.180  -5.088  -2.026  0.00  0.00    +0.440 A 
ATOM     15  N   LIG    1       -1.193  -5.541  -3.317  0.00  0.00    -0.630 N 
ATOM     16  H   LIG    1       -0.356  -5.752  -3.761  0.00  0.00    +0.450 HD
ATOM     17  C   LIG    1       -2.355  -5.697  -3.977  0.00  0.00    +0.690 A 
ATOM     18  N   LIG    1       -3.530  -5.413  -3.385  0.00  0.00    -0.650 N 
ATOM     19  H   LIG    1       -4.358  -5.531  -3.876  0.00  0.00    +0.440 HD
ATOM     20  O   LIG    1       -2.343  -6.101  -5.124  0.00  0.00    -0.500 OA
ATOM     21  C   LIG    1       -3.560  -4.969  -2.112  0.00  0.00    +0.570 A 
ATOM     22  O   LIG    1       -4.623  -4.712  -1.576  0.00  0.00    -0.510 OA
ENDBRANCH  12  13
ENDBRANCH   5  12
TORSDOF 3
ENDMDL
MODEL       98
REMARK  Name = ZINC000096515972
REMARK                            x       y       z     vdW  Elec       q    Type
REMARK                         _______ _______ _______ _____ _____    ______ ____
ROOT
ATOM      1  N   LIG    1       -0.776  -2.556  -1.119  0.00  0.00    -0.560 N 
ATOM      2  C   LIG    1       -1.577  -2.714  -0.057  0.00  0.00    +0.700 C 
ATOM      3  N   LIG    1       -2.808  -3.147  -0.402  0.00  0.00    -0.720 N 
ATOM      4  H   LIG    1       -3.550  -3.331   0.195  0.00  0.00    +0.450 HD
ATOM      5  C   LIG    1       -2.797  -3.283  -1.858  0.00  0.00    +0.100 C 
ATOM      6  C   LIG    1       -3.860  -2.389  -2.514  0.00  0.00    +0.110 C 
ATOM      7  C   LIG    1       -4.357  -3.262  -3.696  0.00  0.00    +0.300 C 
ATOM      8  N   LIG    1       -4.331  -4.640  -3.140  0.00  0.00    -0.510 N 
ATOM      9  H   LIG    1       -4.280  -5.316  -3.887  0.00  0.00    +0.440 HD
ATOM     10  H   LIG    1       -5.154  -4.804  -2.578  0.00  0.00    +0.440 HD
ATOM     11  C   LIG    1       -3.114  -4.714  -2.298  0.00  0.00    +0.310 C 
ATOM     12  O   LIG    1       -1.235  -2.493   1.088  0.00  0.00    -0.480 OA
ATOM     13  C   LIG    1       -1.410  -2.867  -2.271  0.00  0.00    +0.530 C 
ATOM     14  O   LIG    1       -0.957  -2.825  -3.395  0.00  0.00    -0.450 OA
ENDROOT
BRANCH   1  15
ATOM     15  C   LIG    1        0.613  -2.097  -1.041  0.00  0.00    +0.360 C 
BRANCH  15  16
ATOM     16  C   LIG    1        0.652  -0.570  -1.138  0.00  0.00    +0.170 C 
BRANCH  16  18
ATOM     17  C   LIG    1       -0.017   1.425   0.010  0.00  0.00    +0.210 C 
ATOM     18  O   LIG    1        0.002  -0.004   0.002  0.00  0.00    -0.380 OA
ENDBRANCH  16  18
ENDBRANCH  15  16
ENDBRANCH   1  15
TORSDOF 3
ENDMDL
MODEL       99
REMARK  Name = ZINC000096515971
REMARK                            x       y       z     vdW  Elec       q    Type
REMARK                         _______ _______ _______ _____ _____    ______ ____
ROOT
ATOM      1  N   LIG    1       -0.776  -2.556  -1.119  0.00  0.00    -0.560 N 
ATOM      2  C   LIG    1       -1.577  -2.714  -0.057  0.00  0.00    +0.700 C 
ATOM      3  N   LIG    1       -2.807  -3.147  -0.402  0.00  0.00    -0.720 N 
ATOM      4  H   LIG    1       -3.549  -3.331   0.195  0.00  0.00    +0.450 HD
ATOM      5  C   LIG    1       -2.797  -3.284  -1.858  0.00  0.00    +0.100 C 
ATOM      6  C   LIG    1       -3.101  -4.726  -2.289  0.00  0.00    +0.110 C 
ATOM      7  C   LIG    1       -4.598  -4.653  -2.689  0.00  0.00    +0.290 C 
ATOM      8  N   LIG    1       -4.719  -3.313  -3.321  0.00  0.00    -0.510 N 
ATOM      9  H   LIG    1       -5.679  -3.002  -3.295  0.00  0.00    +0.440 HD
ATOM     10  H   LIG    1       -4.391  -3.348  -4.275  0.00  0.00    +0.440 HD
ATOM     11  C   LIG    1       -3.864  -2.408  -2.518  0.00  0.00    +0.310 C 
ATOM     12  O   LIG    1       -1.235  -2.493   1.088  0.00  0.00    -0.480 OA
ATOM     13  C   LIG    1       -1.410  -2.867  -2.271  0.00  0.00    +0.530 C 
ATOM     14  O   LIG    1       -0.957  -2.825  -3.395  0.00  0.00    -0.450 OA
ENDROOT
BRANCH   1  15
ATOM     15  C   LIG    1        0.613  -2.097  -1.041  0.00  0.00    +0.360 C 
BRANCH  15  16
ATOM     16  C   LIG    1        0.652  -0.570  -1.138  0.00  0.00    +0.170 C 
BRANCH  16  18
ATOM     17  C   LIG    1       -0.017   1.425   0.010  0.00  0.00    +0.210 C 
ATOM     18  O   LIG    1        0.002  -0.004   0.002  0.00  0.00    -0.380 OA
ENDBRANCH  16  18
ENDBRANCH  15  16
ENDBRANCH   1  15
TORSDOF 3
ENDMDL
MODEL      100
REMARK  Name = ZINC000050242619
REMARK                            x       y       z     vdW  Elec       q    Type
REMARK                         _______ _______ _______ _____ _____    ______ ____
ROOT
ATOM      1  C   LIG    1       -0.699   1.479   1.216  0.00  0.00    +0.170 C 
ATOM      2  C   LIG    1       -2.128   0.880   1.305  0.00  0.00    +0.060 C 
ATOM      3  C   LIG    1       -2.385   0.910   2.832  0.00  0.00    +0.210 C 
ATOM      4  N   LIG    1       -1.079   0.580   3.441  0.00  0.00    -0.490 NA
ATOM      5  C   LIG    1       -0.010   0.933   2.485  0.00  0.00    +0.210 C 
ENDROOT
BRANCH   1   6
ATOM      6  N   LIG    1       -0.012   1.005   0.008  0.00  0.00    -0.630 N 
ATOM      7  H   LIG    1       -0.500   1.339  -0.810  0.00  0.00    +0.440 HD
ATOM      8  H   LIG    1        0.935   1.354   0.000  0.00  0.00    +0.440 HD
ATOM      9  H   LIG    1        0.002  -0.004   0.002  0.00  0.00    +0.430 HD
ENDBRANCH   1   6
BRANCH   4  10
ATOM     10  C   LIG    1       -0.898   1.290   4.714  0.00  0.00    +0.260 C 
BRANCH  10  11
ATOM     11  C   LIG    1       -0.715   2.762   4.447  0.00  0.00    +0.490 C 
ATOM     12  N   LIG    1       -0.530   3.616   5.473  0.00  0.00    -0.600 N 
ATOM     13  C   LIG    1       -0.498   3.134   6.863  0.00  0.00    +0.250 C 
ATOM     14  C   LIG    1        0.759   3.692   7.540  0.00  0.00    +0.230 C 
ATOM     15  O   LIG    1        0.801   5.110   7.358  0.00  0.00    -0.370 OA
ATOM     16  C   LIG    1        0.896   5.522   5.993  0.00  0.00    +0.220 C 
ATOM     17  C   LIG    1       -0.349   5.057   5.237  0.00  0.00    +0.250 C 
ATOM     18  O   LIG    1       -0.733   3.178   3.308  0.00  0.00    -0.560 OA
ENDBRANCH  10  11
ENDBRANCH   4  10
TORSDOF 3
ENDMDL
MODEL      101
REMARK  Name = ZINC000072344440
REMARK                            x       y       z     vdW  Elec       q    Type
REMARK                         _______ _______ _______ _____ _____    ______ ____
ROOT
ATOM      1  C   LIG    1       -1.135  -2.201   0.001  0.00  0.00    -0.010 C 
ATOM      2  C   LIG    1       -0.404  -2.702   1.227  0.00  0.00    +0.280 C 
ATOM      3  N   LIG    1        0.304  -3.936   0.895  0.00  0.00    -0.480 N 
ATOM      4  C   LIG    1       -0.454  -5.118   1.051  0.00  0.00    +0.230 C 
ATOM      5  C   LIG    1       -1.649  -5.121   0.070  0.00  0.00    +0.340 C 
ATOM      6  N   LIG    1       -2.626  -4.133   0.481  0.00  0.00    -1.010 NA
ATOM      7  H   LIG    1        1.120  -4.004   1.484  0.00  0.00    +0.430 HD
ATOM      8  H   LIG    1        0.610  -3.879  -0.065  0.00  0.00    +0.430 HD
ATOM      9  C   LIG    1       -2.580  -2.734   0.012  0.00  0.00    +0.340 C 
ENDROOT
BRANCH   1  13
ATOM     10  C   LIG    1       -0.018   1.461   0.010  0.00  0.00    +0.310 C 
ATOM     11  N   LIG    1        0.002  -0.004   0.002  0.00  0.00    -0.730 N 
ATOM     12  H   LIG    1        0.849  -0.478  -0.009  0.00  0.00    +0.400 HD
ATOM     13  C   LIG    1       -1.156  -0.694   0.009  0.00  0.00    +0.510 C 
ATOM     14  O   LIG    1       -2.214  -0.102   0.023  0.00  0.00    -0.500 OA
ENDBRANCH   1  13
BRANCH   6  15
ATOM     15  S   LIG    1       -3.836  -4.590   1.514  0.00  0.00    +2.590 S 
ATOM     16  O   LIG    1       -3.986  -5.984   1.284  0.00  0.00    -0.930 OA
ATOM     17  O   LIG    1       -4.894  -3.683   1.237  0.00  0.00    -0.920 OA
ATOM     18  C   LIG    1       -3.157  -4.288   3.169  0.00  0.00    -0.280 C 
ENDBRANCH   6  15
TORSDOF 2
ENDMDL
MODEL      102
REMARK  Name = ZINC000049812296
REMARK                            x       y       z     vdW  Elec       q    Type
REMARK                         _______ _______ _______ _____ _____    ______ ____
ROOT
ATOM      1  N   LIG    1        1.394  -2.646  -0.124  0.00  0.00    -0.530 NA
ATOM      2  C   LIG    1        1.172  -1.844  -1.335  0.00  0.00    +0.180 C 
ATOM      3  C   LIG    1        2.117  -2.324  -2.442  0.00  0.00    +0.300 C 
ATOM      4  N   LIG    1        1.936  -3.774  -2.614  0.00  0.00    -0.580 N 
ATOM      5  C   LIG    1        2.008  -4.631  -1.421  0.00  0.00    +0.280 C 
ATOM      6  C   LIG    1        1.710  -4.302  -3.833  0.00  0.00    +0.490 C 
ATOM      7  O   LIG    1        1.655  -3.581  -4.807  0.00  0.00    -0.530 OA
ATOM      8  C   LIG    1        1.067  -4.060  -0.354  0.00  0.00    +0.190 C 
ENDROOT
BRANCH   1   9
ATOM      9  C   LIG    1        0.633  -2.108   1.011  0.00  0.00    +0.250 C 
BRANCH   9  10
ATOM     10  C   LIG    1       -0.812  -1.850   0.579  0.00  0.00    +0.130 C 
BRANCH  10  12
ATOM     11  C   LIG    1       -2.805  -2.963  -0.152  0.00  0.00    +0.210 C 
ATOM     12  O   LIG    1       -1.445  -3.092   0.265  0.00  0.00    -0.390 OA
ENDBRANCH  10  12
ENDBRANCH   9  10
ENDBRANCH   1   9
BRANCH   6  13
ATOM     13  C   LIG    1        1.528  -5.790  -3.987  0.00  0.00    +0.290 C 
BRANCH  13  14
ATOM     14  N   LIG    1        1.298  -6.112  -5.402  0.00  0.00    -0.620 N 
ATOM     15  H   LIG    1        1.176  -7.108  -5.505  0.00  0.00    +0.450 HD
ATOM     16  H   LIG    1        2.092  -5.812  -5.948  0.00  0.00    +0.440 HD
ATOM     17  H   LIG    1        0.469  -5.636  -5.725  0.00  0.00    +0.440 HD
ENDBRANCH  13  14
ENDBRANCH   6  13
TORSDOF 5
ENDMDL
MODEL      103
REMARK  Name = ZINC000257230779
REMARK                            x       y       z     vdW  Elec       q    Type
REMARK                         _______ _______ _______ _____ _____    ______ ____
ROOT
ATOM      1  C   LIG    1        0.606  -2.171  -1.026  0.00  0.00    +0.090 C 
ATOM      2  C   LIG    1        0.718  -2.674  -2.470  0.00  0.00    +0.320 C 
ATOM      3  N   LIG    1       -0.529  -2.341  -3.176  0.00  0.00    -0.590 N 
ATOM      4  C   LIG    1       -1.803  -2.718  -2.544  0.00  0.00    +0.260 C 
ATOM      5  C   LIG    1       -1.793  -2.213  -1.097  0.00  0.00    +0.220 C 
ATOM      6  C   LIG    1       -0.505  -1.709  -4.366  0.00  0.00    +0.510 C 
ATOM      7  O   LIG    1        0.555  -1.406  -4.871  0.00  0.00    -0.510 OA
ATOM      8  C   LIG    1        1.803  -2.671  -0.215  0.00  0.00    +0.120 C 
ATOM      9  O   LIG    1       -0.604  -2.668  -0.448  0.00  0.00    -0.350 OA
ENDROOT
BRANCH   1  13
ATOM     10  C   LIG    1       -0.018   1.461   0.010  0.00  0.00    +0.290 C 
ATOM     11  N   LIG    1        0.002  -0.004   0.002  0.00  0.00    -0.730 N 
ATOM     12  H   LIG    1       -0.404  -0.499   0.731  0.00  0.00    +0.410 HD
ATOM     13  C   LIG    1        0.585  -0.664  -1.018  0.00  0.00    +0.490 C 
ATOM     14  O   LIG    1        1.093  -0.046  -1.929  0.00  0.00    -0.520 OA
ENDBRANCH   1  13
BRANCH   6  15
ATOM     15  C   LIG    1       -1.796  -1.378  -5.070  0.00  0.00    +0.290 C 
BRANCH  15  16
ATOM     16  N   LIG    1       -1.502  -0.696  -6.338  0.00  0.00    -0.370 N 
ATOM     17  C   LIG    1       -2.759  -0.268  -6.966  0.00  0.00    +0.320 C 
ATOM     18  C   LIG    1       -0.794  -1.617  -7.237  0.00  0.00    +0.330 C 
ATOM     19  H   LIG    1       -0.923   0.111  -6.159  0.00  0.00    +0.440 HD
ENDBRANCH  15  16
ENDBRANCH   6  15
TORSDOF 3
ENDMDL
MODEL      104
REMARK  Name = ZINC000044528471
REMARK                            x       y       z     vdW  Elec       q    Type
REMARK                         _______ _______ _______ _____ _____    ______ ____
ROOT
ATOM      1  C   LIG    1       -0.720   3.008   1.225  0.00  0.00    -0.040 C 
ATOM      2  C   LIG    1       -1.325   3.504   2.540  0.00  0.00    +0.050 C 
ATOM      3  C   LIG    1       -1.317   5.034   2.563  0.00  0.00    +0.040 C 
ATOM      4  C   LIG    1       -2.172   5.563   1.408  0.00  0.00    +0.280 C 
ATOM      5  N   LIG    1       -1.685   4.976   0.152  0.00  0.00    -0.610 N 
ATOM      6  C   LIG    1       -1.353   5.763  -0.891  0.00  0.00    +0.510 C 
ATOM      7  O   LIG    1       -0.952   5.266  -1.922  0.00  0.00    -0.500 OA
ATOM      8  C   LIG    1       -1.568   3.515   0.053  0.00  0.00    +0.280 C 
ENDROOT
BRANCH   1   9
ATOM      9  C   LIG    1       -0.699   1.479   1.216  0.00  0.00    +0.280 C 
BRANCH   9  10
ATOM     10  N   LIG    1       -0.012   1.005   0.008  0.00  0.00    -0.640 N 
ATOM     11  H   LIG    1       -0.500   1.339  -0.810  0.00  0.00    +0.430 HD
ATOM     12  H   LIG    1        0.935   1.354   0.000  0.00  0.00    +0.440 HD
ATOM     13  H   LIG    1        0.002  -0.004   0.002  0.00  0.00    +0.440 HD
ENDBRANCH   9  10
ENDBRANCH   1   9
BRANCH   6  14
ATOM     14  C   LIG    1       -1.478   7.260  -0.775  0.00  0.00    +0.390 C 
BRANCH  14  15
ATOM     15  N   LIG    1       -1.058   7.884  -2.032  0.00  0.00    -0.310 N 
ATOM     16  C   LIG    1       -1.778   8.743  -2.777  0.00  0.00    +0.410 A 
ATOM     17  N   LIG    1       -1.037   9.057  -3.812  0.00  0.00    -0.300 NA
ATOM     18  N   LIG    1        0.080   8.423  -3.707  0.00  0.00    -0.070 NA
ATOM     19  N   LIG    1        0.072   7.718  -2.630  0.00  0.00    -0.070 NA
ENDBRANCH  14  15
ENDBRANCH   6  14
TORSDOF 4
ENDMDL
MODEL      105
REMARK  Name = ZINC000044528470
REMARK                            x       y       z     vdW  Elec       q    Type
REMARK                         _______ _______ _______ _____ _____    ______ ____
ROOT
ATOM      1  C   LIG    1       -0.720   3.008   1.225  0.00  0.00    -0.030 C 
ATOM      2  C   LIG    1       -1.542   3.502   2.418  0.00  0.00    +0.050 C 
ATOM      3  C   LIG    1       -1.590   5.031   2.409  0.00  0.00    +0.040 C 
ATOM      4  C   LIG    1       -0.168   5.584   2.539  0.00  0.00    +0.280 C 
ATOM      5  N   LIG    1        0.666   5.001   1.480  0.00  0.00    -0.610 N 
ATOM      6  C   LIG    1        1.375   5.791   0.650  0.00  0.00    +0.510 C 
ATOM      7  O   LIG    1        2.059   5.297  -0.221  0.00  0.00    -0.500 OA
ATOM      8  C   LIG    1        0.713   3.539   1.341  0.00  0.00    +0.280 C 
ENDROOT
BRANCH   1   9
ATOM      9  C   LIG    1       -0.699   1.479   1.216  0.00  0.00    +0.280 C 
BRANCH   9  10
ATOM     10  N   LIG    1       -0.012   1.005   0.008  0.00  0.00    -0.640 N 
ATOM     11  H   LIG    1       -0.500   1.339  -0.810  0.00  0.00    +0.440 HD
ATOM     12  H   LIG    1        0.935   1.354   0.000  0.00  0.00    +0.430 HD
ATOM     13  H   LIG    1        0.002  -0.004   0.002  0.00  0.00    +0.440 HD
ENDBRANCH   9  10
ENDBRANCH   1   9
BRANCH   6  14
ATOM     14  C   LIG    1        1.317   7.289   0.804  0.00  0.00    +0.390 C 
BRANCH  14  15
ATOM     15  N   LIG    1        2.167   7.918  -0.210  0.00  0.00    -0.310 N 
ATOM     16  C   LIG    1        1.792   8.856  -1.099  0.00  0.00    +0.400 A 
ATOM     17  N   LIG    1        2.852   9.142  -1.815  0.00  0.00    -0.300 NA
ATOM     18  N   LIG    1        3.827   8.417  -1.388  0.00  0.00    -0.070 NA
ATOM     19  N   LIG    1        3.419   7.680  -0.415  0.00  0.00    -0.070 NA
ENDBRANCH  14  15
ENDBRANCH   6  14
TORSDOF 4
ENDMDL
MODEL      106
REMARK  Name = ZINC000253495431
REMARK                            x       y       z     vdW  Elec       q    Type
REMARK                         _______ _______ _______ _____ _____    ______ ____
ROOT
ATOM      1  N   LIG    1        1.484  -2.447  -0.138  0.00  0.00    -0.510 NA
ATOM      2  C   LIG    1        1.251  -1.523  -1.256  0.00  0.00    +0.230 C 
ATOM      3  C   LIG    1        2.209  -1.885  -2.396  0.00  0.00    +0.290 C 
ATOM      4  N   LIG    1        1.924  -3.252  -2.841  0.00  0.00    -0.510 N 
ATOM      5  C   LIG    1        2.159  -4.206  -1.748  0.00  0.00    +0.230 C 
ATOM      6  C   LIG    1        1.713  -5.603  -2.243  0.00  0.00    -0.290 C 
ATOM      7  S   LIG    1       -0.053  -5.724  -1.781  0.00  0.00    +2.400 S 
ATOM      8  C   LIG    1       -0.171  -4.109  -0.920  0.00  0.00    -0.350 C 
ATOM      9  O   LIG    1       -0.223  -6.776  -0.840  0.00  0.00    -0.890 OA
ATOM     10  O   LIG    1       -0.851  -5.691  -2.957  0.00  0.00    -0.910 OA
ATOM     11  H   LIG    1        2.526  -3.483  -3.618  0.00  0.00    +0.440 HD
ATOM     12  H   LIG    1        0.961  -3.314  -3.136  0.00  0.00    +0.420 HD
ATOM     13  C   LIG    1        1.300  -3.839  -0.531  0.00  0.00    +0.220 C 
ENDROOT
BRANCH   1  14
ATOM     14  C   LIG    1        0.633  -2.108   1.011  0.00  0.00    +0.230 C 
BRANCH  14  15
ATOM     15  C   LIG    1        1.091  -2.900   2.237  0.00  0.00    +0.170 C 
BRANCH  15  17
ATOM     16  C   LIG    1        2.945  -3.189   3.729  0.00  0.00    +0.210 C 
ATOM     17  O   LIG    1        2.419  -2.505   2.590  0.00  0.00    -0.380 OA
ENDBRANCH  15  17
ENDBRANCH  14  15
ENDBRANCH   1  14
TORSDOF 3
ENDMDL
MODEL      107
REMARK  Name = ZINC000253495434
REMARK                            x       y       z     vdW  Elec       q    Type
REMARK                         _______ _______ _______ _____ _____    ______ ____
ROOT
ATOM      1  N   LIG    1        1.394  -2.646  -0.124  0.00  0.00    -0.510 NA
ATOM      2  C   LIG    1        1.124  -1.878  -1.354  0.00  0.00    +0.210 C 
ATOM      3  C   LIG    1        1.917  -2.447  -2.529  0.00  0.00    +0.290 C 
ATOM      4  N   LIG    1        1.618  -3.877  -2.718  0.00  0.00    -0.490 N 
ATOM      5  C   LIG    1        1.970  -4.581  -1.486  0.00  0.00    +0.200 C 
ATOM      6  C   LIG    1        1.711  -6.098  -1.574  0.00  0.00    -0.300 C 
ATOM      7  S   LIG    1        1.705  -6.587   0.197  0.00  0.00    +2.410 S 
ATOM      8  C   LIG    1        1.278  -4.939   0.880  0.00  0.00    -0.260 C 
ATOM      9  O   LIG    1        3.024  -6.937   0.594  0.00  0.00    -0.900 OA
ATOM     10  O   LIG    1        0.632  -7.487   0.434  0.00  0.00    -0.900 OA
ATOM     11  H   LIG    1        2.162  -4.240  -3.486  0.00  0.00    +0.440 HD
ATOM     12  H   LIG    1        0.635  -3.997  -2.911  0.00  0.00    +0.430 HD
ATOM     13  C   LIG    1        1.069  -4.053  -0.353  0.00  0.00    +0.170 C 
ENDROOT
BRANCH   1  14
ATOM     14  C   LIG    1        0.633  -2.108   1.011  0.00  0.00    +0.260 C 
BRANCH  14  15
ATOM     15  C   LIG    1       -0.812  -1.847   0.578  0.00  0.00    +0.140 C 
BRANCH  15  17
ATOM     16  C   LIG    1       -2.804  -2.957  -0.161  0.00  0.00    +0.200 C 
ATOM     17  O   LIG    1       -1.444  -3.088   0.257  0.00  0.00    -0.400 OA
ENDBRANCH  15  17
ENDBRANCH  14  15
ENDBRANCH   1  14
TORSDOF 3
ENDMDL
MODEL      108
REMARK  Name = ZINC000253495433
REMARK                            x       y       z     vdW  Elec       q    Type
REMARK                         _______ _______ _______ _____ _____    ______ ____
ROOT
ATOM      1  N   LIG    1        1.403  -2.533  -0.165  0.00  0.00    -0.500 NA
ATOM      2  C   LIG    1        2.843  -2.280   0.027  0.00  0.00    +0.210 C 
ATOM      3  C   LIG    1        3.636  -2.722  -1.202  0.00  0.00    +0.290 C 
ATOM      4  N   LIG    1        3.381  -4.141  -1.506  0.00  0.00    -0.500 N 
ATOM      5  C   LIG    1        1.948  -4.304  -1.741  0.00  0.00    +0.210 C 
ATOM      6  C   LIG    1        1.553  -5.730  -2.137  0.00  0.00    -0.310 C 
ATOM      7  S   LIG    1       -0.164  -5.917  -1.520  0.00  0.00    +2.410 S 
ATOM      8  C   LIG    1       -0.287  -4.274  -0.707  0.00  0.00    -0.250 C 
ATOM      9  O   LIG    1       -0.201  -6.939  -0.533  0.00  0.00    -0.900 OA
ATOM     10  O   LIG    1       -1.058  -5.965  -2.623  0.00  0.00    -0.900 OA
ATOM     11  H   LIG    1        3.666  -4.713  -0.726  0.00  0.00    +0.430 HD
ATOM     12  H   LIG    1        3.894  -4.410  -2.332  0.00  0.00    +0.440 HD
ATOM     13  C   LIG    1        1.196  -3.955  -0.443  0.00  0.00    +0.150 C 
ENDROOT
BRANCH   1  14
ATOM     14  C   LIG    1        0.633  -2.108   1.011  0.00  0.00    +0.220 C 
BRANCH  14  15
ATOM     15  C   LIG    1        0.673  -0.582   1.123  0.00  0.00    +0.180 C 
BRANCH  15  17
ATOM     16  C   LIG    1       -0.017   1.425   0.010  0.00  0.00    +0.210 C 
ATOM     17  O   LIG    1        0.002  -0.004   0.002  0.00  0.00    -0.380 OA
ENDBRANCH  15  17
ENDBRANCH  14  15
ENDBRANCH   1  14
TORSDOF 3
ENDMDL
MODEL      109
REMARK  Name = ZINC000096530292
REMARK                            x       y       z     vdW  Elec       q    Type
REMARK                         _______ _______ _______ _____ _____    ______ ____
ROOT
ATOM      1  C   LIG    1       -2.591  -5.470  -0.011  0.00  0.00    +0.340 C 
ENDROOT
BRANCH   1   2
ATOM      2  C   LIG    1       -2.192  -6.347  -1.199  0.00  0.00    +0.110 C 
ATOM      3  C   LIG    1       -0.714  -6.730  -1.079  0.00  0.00    +0.050 C 
ATOM      4  C   LIG    1       -0.341  -7.670  -2.227  0.00  0.00    +0.270 C 
ATOM      5  N   LIG    1       -1.169  -8.881  -2.161  0.00  0.00    -0.510 N 
ATOM      6  C   LIG    1       -2.582  -8.529  -2.347  0.00  0.00    +0.280 C 
ATOM      7  H   LIG    1       -1.050  -9.320  -1.260  0.00  0.00    +0.430 HD
ATOM      8  H   LIG    1       -0.884  -9.522  -2.886  0.00  0.00    +0.430 HD
ATOM      9  C   LIG    1       -3.041  -7.621  -1.204  0.00  0.00    +0.110 C 
BRANCH   2  10
ATOM     10  O   LIG    1       -2.403  -5.628  -2.416  0.00  0.00    -0.550 OA
ATOM     11  H   LIG    1       -1.893  -4.808  -2.482  0.00  0.00    +0.390 HD
ENDBRANCH   2  10
ENDBRANCH   1   2
BRANCH   1  14
ATOM     12  C   LIG    1       -1.136  -2.169   0.001  0.00  0.00    -0.090 A 
ATOM     13  C   LIG    1       -2.233  -2.982   0.002  0.00  0.00    +0.320 A 
ATOM     14  N   LIG    1       -1.779  -4.251  -0.008  0.00  0.00    -0.370 N 
ATOM     15  N   LIG    1       -0.378  -4.181  -0.014  0.00  0.00    -0.080 NA
ATOM     16  N   LIG    1       -0.035  -2.939  -0.014  0.00  0.00    -0.190 NA
BRANCH  12  20
ATOM     17  C   LIG    1       -0.018   1.461   0.010  0.00  0.00    +0.300 C 
ATOM     18  N   LIG    1        0.002  -0.004   0.002  0.00  0.00    -0.720 N 
ATOM     19  H   LIG    1        0.849  -0.478  -0.009  0.00  0.00    +0.410 HD
ATOM     20  C   LIG    1       -1.156  -0.694   0.009  0.00  0.00    +0.600 C 
ATOM     21  O   LIG    1       -2.217  -0.100   0.023  0.00  0.00    -0.530 OA
ENDBRANCH  12  20
ENDBRANCH   1  14
TORSDOF 4
ENDMDL
MODEL      110
REMARK  Name = ZINC000257319874
REMARK                            x       y       z     vdW  Elec       q    Type
REMARK                         _______ _______ _______ _____ _____    ______ ____
ROOT
ATOM      1  C   LIG    1        2.422   1.187  -0.015  0.00  0.00    +0.280 C 
ATOM      2  C   LIG    1        3.540   2.078   0.558  0.00  0.00    +0.280 C 
ATOM      3  N   LIG    1        4.524   2.290  -0.526  0.00  0.00    -0.390 N 
ATOM      4  C   LIG    1        4.381   1.125  -1.436  0.00  0.00    +0.240 C 
ATOM      5  H   LIG    1        4.318   3.145  -1.020  0.00  0.00    +0.440 HD
ATOM      6  C   LIG    1        2.849   0.884  -1.469  0.00  0.00    +0.180 C 
ENDROOT
BRANCH   1   9
ATOM      7  O   LIG    1        0.002  -0.004   0.002  0.00  0.00    -0.480 OA
ATOM      8  C   LIG    1       -0.014   1.212   0.009  0.00  0.00    +0.600 C 
ATOM      9  N   LIG    1        1.143   1.902   0.001  0.00  0.00    -0.740 N 
ATOM     10  H   LIG    1        1.130   2.872   0.007  0.00  0.00    +0.400 HD
BRANCH   8  11
ATOM     11  C   LIG    1       -1.299   1.931   0.019  0.00  0.00    -0.060 A 
ATOM     12  C   LIG    1       -2.564   1.370   0.027  0.00  0.00    +0.040 A 
ATOM     13  C   LIG    1       -3.448   2.451   0.035  0.00  0.00    +0.210 A 
ATOM     14  N   LIG    1       -2.737   3.550   0.032  0.00  0.00    -0.260 NA
ATOM     15  N   LIG    1       -1.481   3.284   0.027  0.00  0.00    -0.380 N 
ATOM     16  H   LIG    1       -0.770   3.944   0.025  0.00  0.00    +0.440 HD
ENDBRANCH   8  11
ENDBRANCH   1   9
BRANCH   6  17
ATOM     17  O   LIG    1        2.558  -0.471  -1.817  0.00  0.00    -0.520 OA
ATOM     18  H   LIG    1        2.876  -0.730  -2.693  0.00  0.00    +0.400 HD
ENDBRANCH   6  17
BRANCH   3  19
ATOM     19  C   LIG    1        5.884   2.339   0.027  0.00  0.00    +0.290 C 
BRANCH  19  20
ATOM     20  C   LIG    1        6.875   2.682  -1.087  0.00  0.00    +0.220 C 
BRANCH  20  21
ATOM     21  O   LIG    1        6.614   4.003  -1.567  0.00  0.00    -0.580 OA
ATOM     22  H   LIG    1        7.206   4.288  -2.276  0.00  0.00    +0.410 HD
ENDBRANCH  20  21
ENDBRANCH  19  20
ENDBRANCH   3  19
TORSDOF 6
ENDMDL
MODEL      111
REMARK  Name = ZINC000257217807
REMARK                            x       y       z     vdW  Elec       q    Type
REMARK                         _______ _______ _______ _____ _____    ______ ____
ROOT
ATOM      1  N   LIG    1        1.403  -2.533  -0.165  0.00  0.00    -0.390 N 
ATOM      2  C   LIG    1        0.720  -2.110  -1.415  0.00  0.00    +0.260 C 
ATOM      3  C   LIG    1        1.276  -3.056  -2.501  0.00  0.00    +0.180 C 
ATOM      4  C   LIG    1        1.751  -4.309  -1.737  0.00  0.00    +0.280 C 
ATOM      5  C   LIG    1        1.444  -4.015  -0.252  0.00  0.00    +0.280 C 
ATOM      6  H   LIG    1        2.338  -2.155  -0.130  0.00  0.00    +0.430 HD
ENDROOT
BRANCH   4   7
ATOM      7  N   LIG    1        1.012  -5.491  -2.189  0.00  0.00    -0.730 N 
ATOM      8  H   LIG    1        0.213  -5.773  -1.717  0.00  0.00    +0.410 HD
ATOM      9  C   LIG    1        1.443  -6.186  -3.261  0.00  0.00    +0.520 C 
ATOM     10  O   LIG    1        2.442  -5.833  -3.851  0.00  0.00    -0.490 OA
BRANCH   9  11
ATOM     11  C   LIG    1        0.683  -7.401  -3.725  0.00  0.00    +0.220 C 
BRANCH  11  12
ATOM     12  O   LIG    1        1.332  -7.960  -4.869  0.00  0.00    -0.370 OA
ATOM     13  C   LIG    1        0.688  -9.124  -5.392  0.00  0.00    +0.230 C 
ENDBRANCH  11  12
ENDBRANCH   9  11
ENDBRANCH   4   7
BRANCH   3  14
ATOM     14  O   LIG    1        2.373  -2.441  -3.180  0.00  0.00    -0.540 OA
ATOM     15  H   LIG    1        2.141  -1.623  -3.642  0.00  0.00    +0.400 HD
ENDBRANCH   3  14
BRANCH   1  16
ATOM     16  C   LIG    1        0.633  -2.108   1.011  0.00  0.00    +0.290 C 
BRANCH  16  17
ATOM     17  C   LIG    1        0.673  -0.582   1.123  0.00  0.00    +0.210 C 
BRANCH  17  19
ATOM     18  C   LIG    1       -0.017   1.425   0.010  0.00  0.00    +0.240 C 
ATOM     19  O   LIG    1        0.002  -0.004   0.002  0.00  0.00    -0.400 OA
ENDBRANCH  17  19
ENDBRANCH  16  17
ENDBRANCH   1  16
TORSDOF 7
ENDMDL
MODEL      112
REMARK  Name = ZINC000161537807
REMARK                            x       y       z     vdW  Elec       q    Type
REMARK                         _______ _______ _______ _____ _____    ______ ____
ROOT
ATOM      1  N   LIG    1       -2.521  -5.807  -1.042  0.00  0.00    -0.560 N 
ATOM      2  C   LIG    1       -2.433  -6.572  -2.279  0.00  0.00    +0.280 C 
ATOM      3  C   LIG    1       -2.949  -7.996  -2.066  0.00  0.00    +0.070 C 
ATOM      4  C   LIG    1       -2.252  -8.591  -0.836  0.00  0.00    +0.060 C 
ATOM      5  C   LIG    1       -2.730  -7.833   0.405  0.00  0.00    +0.190 C 
ATOM      6  C   LIG    1       -2.628  -6.354   0.170  0.00  0.00    +0.500 C 
ATOM      7  O   LIG    1       -2.651  -5.617   1.133  0.00  0.00    -0.530 OA
ENDROOT
BRANCH   5   8
ATOM      8  N   LIG    1       -1.891  -8.199   1.554  0.00  0.00    -0.620 N 
ATOM      9  H   LIG    1       -1.960  -9.193   1.718  0.00  0.00    +0.440 HD
ATOM     10  H   LIG    1       -2.205  -7.700   2.373  0.00  0.00    +0.450 HD
ATOM     11  H   LIG    1       -0.931  -7.957   1.360  0.00  0.00    +0.440 HD
ENDBRANCH   5   8
BRANCH   1  12
ATOM     12  C   LIG    1       -2.484  -4.345  -1.134  0.00  0.00    +0.330 C 
BRANCH  12  15
ATOM     13  N   LIG    1       -0.776  -2.556  -1.119  0.00  0.00    -0.720 N 
ATOM     14  H   LIG    1       -1.495  -1.912  -1.217  0.00  0.00    +0.410 HD
ATOM     15  C   LIG    1       -1.055  -3.873  -1.054  0.00  0.00    +0.500 C 
ATOM     16  O   LIG    1       -0.156  -4.678  -0.932  0.00  0.00    -0.540 OA
BRANCH  13  17
ATOM     17  C   LIG    1        0.613  -2.097  -1.041  0.00  0.00    +0.290 C 
BRANCH  17  18
ATOM     18  C   LIG    1        0.652  -0.570  -1.138  0.00  0.00    +0.170 C 
BRANCH  18  20
ATOM     19  C   LIG    1       -0.017   1.425   0.010  0.00  0.00    +0.220 C 
ATOM     20  O   LIG    1        0.002  -0.004   0.002  0.00  0.00    -0.390 OA
ENDBRANCH  18  20
ENDBRANCH  17  18
ENDBRANCH  13  17
ENDBRANCH  12  15
ENDBRANCH   1  12
TORSDOF 6
ENDMDL
MODEL      113
REMARK  Name = ZINC000161537688
REMARK                            x       y       z     vdW  Elec       q    Type
REMARK                         _______ _______ _______ _____ _____    ______ ____
ROOT
ATOM      1  N   LIG    1       -2.521  -5.807  -1.042  0.00  0.00    -0.560 N 
ATOM      2  C   LIG    1       -2.433  -6.572  -2.279  0.00  0.00    +0.290 C 
ATOM      3  C   LIG    1       -2.016  -8.014  -1.988  0.00  0.00    +0.070 C 
ATOM      4  C   LIG    1       -2.929  -8.578  -0.892  0.00  0.00    +0.060 C 
ATOM      5  C   LIG    1       -2.633  -7.835   0.413  0.00  0.00    +0.190 C 
ATOM      6  C   LIG    1       -2.628  -6.354   0.170  0.00  0.00    +0.500 C 
ATOM      7  O   LIG    1       -2.734  -5.615   1.126  0.00  0.00    -0.530 OA
ENDROOT
BRANCH   5   8
ATOM      8  N   LIG    1       -3.665  -8.164   1.406  0.00  0.00    -0.620 N 
ATOM      9  H   LIG    1       -4.569  -7.885   1.056  0.00  0.00    +0.440 HD
ATOM     10  H   LIG    1       -3.471  -7.676   2.267  0.00  0.00    +0.450 HD
ATOM     11  H   LIG    1       -3.663  -9.159   1.576  0.00  0.00    +0.440 HD
ENDBRANCH   5   8
BRANCH   1  12
ATOM     12  C   LIG    1       -2.484  -4.345  -1.134  0.00  0.00    +0.330 C 
BRANCH  12  15
ATOM     13  N   LIG    1       -0.776  -2.556  -1.119  0.00  0.00    -0.720 N 
ATOM     14  H   LIG    1       -1.495  -1.912  -1.217  0.00  0.00    +0.410 HD
ATOM     15  C   LIG    1       -1.055  -3.873  -1.054  0.00  0.00    +0.500 C 
ATOM     16  O   LIG    1       -0.156  -4.678  -0.932  0.00  0.00    -0.540 OA
BRANCH  13  17
ATOM     17  C   LIG    1        0.613  -2.097  -1.041  0.00  0.00    +0.290 C 
BRANCH  17  18
ATOM     18  C   LIG    1        0.652  -0.570  -1.138  0.00  0.00    +0.170 C 
BRANCH  18  20
ATOM     19  C   LIG    1       -0.017   1.425   0.010  0.00  0.00    +0.210 C 
ATOM     20  O   LIG    1        0.002  -0.004   0.002  0.00  0.00    -0.390 OA
ENDBRANCH  18  20
ENDBRANCH  17  18
ENDBRANCH  13  17
ENDBRANCH  12  15
ENDBRANCH   1  12
TORSDOF 6
ENDMDL
MODEL      114
REMARK  Name = ZINC000001596849
REMARK                            x       y       z     vdW  Elec       q    Type
REMARK                         _______ _______ _______ _____ _____    ______ ____
ROOT
ATOM      1  C   LIG    1       -0.018   1.461   0.010  0.00  0.00    +0.340 C 
ATOM      2  N   LIG    1        0.002  -0.004   0.002  0.00  0.00    -0.520 N 
ATOM      3  C   LIG    1       -1.185  -0.700   0.004  0.00  0.00    +0.330 A 
ATOM      4  C   LIG    1       -1.156  -2.089  -0.004  0.00  0.00    -0.090 A 
ATOM      5  C   LIG    1        0.147  -2.756  -0.014  0.00  0.00    +0.590 A 
ATOM      6  N   LIG    1        1.262  -1.993  -0.015  0.00  0.00    -0.550 N 
ATOM      7  C   LIG    1        2.578  -2.637  -0.025  0.00  0.00    +0.370 C 
ATOM      8  O   LIG    1        0.225  -3.971  -0.021  0.00  0.00    -0.470 OA
ATOM      9  N   LIG    1       -2.440  -2.521   0.001  0.00  0.00    -0.350 NA
ATOM     10  C   LIG    1       -3.235  -1.491   0.010  0.00  0.00    +0.120 A 
ATOM     11  N   LIG    1       -2.497  -0.344   0.013  0.00  0.00    -0.550 N 
ATOM     12  H   LIG    1       -2.844   0.562   0.020  0.00  0.00    +0.440 HD
ATOM     13  C   LIG    1        1.180  -0.652  -0.013  0.00  0.00    +0.710 A 
ATOM     14  O   LIG    1        2.208  -0.002  -0.014  0.00  0.00    -0.500 OA
ENDROOT
BRANCH  10  15
ATOM     15  C   LIG    1       -4.741  -1.556   0.018  0.00  0.00    +0.440 C 
BRANCH  15  16
ATOM     16  N   LIG    1       -5.232  -1.689  -1.360  0.00  0.00    -0.640 N 
ATOM     17  H   LIG    1       -4.932  -0.893  -1.903  0.00  0.00    +0.430 HD
ATOM     18  H   LIG    1       -6.240  -1.732  -1.355  0.00  0.00    +0.450 HD
ATOM     19  H   LIG    1       -4.861  -2.534  -1.769  0.00  0.00    +0.450 HD
ENDBRANCH  15  16
ENDBRANCH  10  15
TORSDOF 2
ENDMDL
MODEL      115
REMARK  Name = ZINC000217542321
REMARK                            x       y       z     vdW  Elec       q    Type
REMARK                         _______ _______ _______ _____ _____    ______ ____
ROOT
ATOM      1  N   LIG    1        0.711  -0.489   1.189  0.00  0.00    -0.590 N 
ATOM      2  C   LIG    1       -0.018  -1.344   2.118  0.00  0.00    +0.290 C 
ATOM      3  C   LIG    1        0.954  -2.123   3.004  0.00  0.00    +0.160 C 
ATOM      4  C   LIG    1        1.957  -1.137   3.616  0.00  0.00    +0.070 C 
ATOM      5  C   LIG    1        2.839  -0.585   2.494  0.00  0.00    +0.110 C 
ATOM      6  C   LIG    1        1.984  -0.126   1.349  0.00  0.00    +0.520 C 
ATOM      7  O   LIG    1        2.474   0.622   0.530  0.00  0.00    -0.500 OA
ENDROOT
BRANCH   3   8
ATOM      8  N   LIG    1        0.211  -2.802   4.074  0.00  0.00    -0.630 N 
ATOM      9  H   LIG    1       -0.277  -2.117   4.632  0.00  0.00    +0.440 HD
ATOM     10  H   LIG    1        0.854  -3.315   4.657  0.00  0.00    +0.440 HD
ATOM     11  H   LIG    1       -0.456  -3.441   3.666  0.00  0.00    +0.440 HD
ENDBRANCH   3   8
BRANCH   1  13
ATOM     12  C   LIG    1       -0.019   1.526   0.010  0.00  0.00    +0.070 C 
ATOM     13  C   LIG    1        0.002  -0.004   0.002  0.00  0.00    +0.250 C 
BRANCH  13  14
ATOM     14  C   LIG    1        0.707  -0.490  -1.238  0.00  0.00    +0.510 C 
ATOM     15  N   LIG    1        0.231  -0.164  -2.456  0.00  0.00    -0.710 N 
ATOM     16  H   LIG    1       -0.566   0.383  -2.534  0.00  0.00    +0.410 HD
ATOM     17  O   LIG    1        1.704  -1.174  -1.140  0.00  0.00    -0.520 OA
BRANCH  15  18
ATOM     18  C   LIG    1        0.917  -0.637  -3.661  0.00  0.00    +0.180 C 
ATOM     19  C   LIG    1        0.144  -1.725  -4.430  0.00  0.00    +0.220 C 
ATOM     20  O   LIG    1       -0.429  -0.632  -5.175  0.00  0.00    -0.380 OA
ATOM     21  C   LIG    1        0.678   0.248  -4.899  0.00  0.00    +0.230 C 
ENDBRANCH  15  18
ENDBRANCH  13  14
ENDBRANCH   1  13
TORSDOF 4
ENDMDL
MODEL      116
REMARK  Name = ZINC000217542520
REMARK                            x       y       z     vdW  Elec       q    Type
REMARK                         _______ _______ _______ _____ _____    ______ ____
ROOT
ATOM      1  C   LIG    1       -0.699   1.479   1.216  0.00  0.00    +0.160 C 
ATOM      2  C   LIG    1       -2.136   0.943   1.234  0.00  0.00    +0.060 C 
ATOM      3  C   LIG    1       -2.881   1.596   2.401  0.00  0.00    +0.120 C 
ATOM      4  C   LIG    1       -2.059   1.493   3.654  0.00  0.00    +0.510 C 
ATOM      5  N   LIG    1       -0.752   1.229   3.657  0.00  0.00    -0.590 N 
ATOM      6  O   LIG    1       -2.615   1.659   4.719  0.00  0.00    -0.510 OA
ATOM      7  C   LIG    1        0.033   0.967   2.457  0.00  0.00    +0.290 C 
ENDROOT
BRANCH   1   8
ATOM      8  N   LIG    1       -0.012   1.005   0.008  0.00  0.00    -0.630 N 
ATOM      9  H   LIG    1       -0.500   1.339  -0.810  0.00  0.00    +0.440 HD
ATOM     10  H   LIG    1        0.935   1.354   0.000  0.00  0.00    +0.440 HD
ATOM     11  H   LIG    1        0.002  -0.004   0.002  0.00  0.00    +0.440 HD
ENDBRANCH   1   8
BRANCH   5  12
ATOM     12  C   LIG    1       -0.060   1.205   4.948  0.00  0.00    +0.340 C 
BRANCH  12  13
ATOM     13  C   LIG    1       -0.103  -0.190   5.515  0.00  0.00    +0.500 C 
ATOM     14  N   LIG    1        0.474  -0.452   6.705  0.00  0.00    -0.710 N 
ATOM     15  H   LIG    1        0.917   0.257   7.195  0.00  0.00    +0.410 HD
ATOM     16  O   LIG    1       -0.657  -1.077   4.902  0.00  0.00    -0.530 OA
BRANCH  14  17
ATOM     17  C   LIG    1        0.432  -1.809   7.256  0.00  0.00    +0.180 C 
ATOM     18  C   LIG    1        1.793  -2.531   7.235  0.00  0.00    +0.220 C 
ATOM     19  O   LIG    1        1.973  -1.990   8.559  0.00  0.00    -0.380 OA
ATOM     20  C   LIG    1        0.556  -1.861   8.791  0.00  0.00    +0.230 C 
ENDBRANCH  14  17
ENDBRANCH  12  13
ENDBRANCH   5  12
TORSDOF 4
ENDMDL
MODEL      117
REMARK  Name = ZINC000019368989
REMARK                            x       y       z     vdW  Elec       q    Type
REMARK                         _______ _______ _______ _____ _____    ______ ____
ROOT
ATOM      1  C   LIG    1       -3.509  -6.390   0.493  0.00  0.00    +0.260 C 
ENDROOT
BRANCH   1   2
ATOM      2  N   LIG    1       -4.820  -7.041   0.625  0.00  0.00    -0.500 N 
ATOM      3  H   LIG    1       -5.382  -6.833  -0.186  0.00  0.00    +0.430 HD
ATOM      4  H   LIG    1       -5.284  -6.698   1.453  0.00  0.00    +0.430 HD
BRANCH   2   5
ATOM      5  C   LIG    1       -4.636  -8.495   0.734  0.00  0.00    +0.250 C 
BRANCH   5   6
ATOM      6  C   LIG    1       -6.000  -9.173   0.871  0.00  0.00    +0.210 C 
BRANCH   6   7
ATOM      7  O   LIG    1       -6.753  -8.976  -0.327  0.00  0.00    -0.550 OA
ATOM      8  H   LIG    1       -6.333  -9.338  -1.120  0.00  0.00    +0.390 HD
ENDBRANCH   6   7
BRANCH   6   9
ATOM      9  C   LIG    1       -5.803 -10.671   1.109  0.00  0.00    +0.160 C 
BRANCH   9  10
ATOM     10  O   LIG    1       -7.070 -11.285   1.353  0.00  0.00    -0.380 OA
ATOM     11  C   LIG    1       -6.998 -12.693   1.589  0.00  0.00    +0.230 C 
ENDBRANCH   9  10
ENDBRANCH   6   9
ENDBRANCH   5   6
ENDBRANCH   2   5
ENDBRANCH   1   2
BRANCH   1  12
ATOM     12  C   LIG    1       -3.701  -4.877   0.380  0.00  0.00    +0.180 C 
BRANCH  12  13
ATOM     13  N   LIG    1       -2.391  -4.225   0.248  0.00  0.00    -0.680 NA
ATOM     14  H   LIG    1       -1.879  -4.599  -0.537  0.00  0.00    +0.360 HD
BRANCH  13  15
ATOM     15  C   LIG    1       -2.536  -2.768   0.137  0.00  0.00    +0.170 C 
BRANCH  15  16
ATOM     16  C   LIG    1       -1.154  -2.126   0.002  0.00  0.00    +0.230 C 
BRANCH  16  17
ATOM     17  O   LIG    1       -0.554  -2.542  -1.227  0.00  0.00    -0.550 OA
ATOM     18  H   LIG    1       -1.061  -2.297  -2.014  0.00  0.00    +0.370 HD
ENDBRANCH  16  17
BRANCH  16  19
ATOM     19  C   LIG    1       -1.295  -0.603   0.011  0.00  0.00    +0.140 C 
BRANCH  19  21
ATOM     20  C   LIG    1       -0.017   1.425   0.010  0.00  0.00    +0.200 C 
ATOM     21  O   LIG    1        0.002  -0.004   0.002  0.00  0.00    -0.380 OA
ENDBRANCH  19  21
ENDBRANCH  16  19
ENDBRANCH  15  16
ENDBRANCH  13  15
ENDBRANCH  12  13
ENDBRANCH   1  12
TORSDOF 13
ENDMDL
MODEL      118
REMARK  Name = ZINC000036730059
REMARK                            x       y       z     vdW  Elec       q    Type
REMARK                         _______ _______ _______ _____ _____    ______ ____
ROOT
ATOM      1  C   LIG    1        0.759  -1.934  -1.088  0.00  0.00    +0.180 C 
ATOM      2  C   LIG    1        1.520  -2.498  -2.291  0.00  0.00    +0.340 C 
ATOM      3  O   LIG    1        1.527  -3.925  -2.221  0.00  0.00    -0.360 OA
ATOM      4  C   LIG    1        0.228  -4.518  -2.257  0.00  0.00    +0.150 C 
ATOM      5  C   LIG    1       -0.585  -4.035  -1.053  0.00  0.00    +0.150 C 
ATOM      6  C   LIG    1       -0.662  -2.505  -1.077  0.00  0.00    +0.200 C 
ENDROOT
BRANCH   1   7
ATOM      7  N   LIG    1        0.698  -0.469  -1.188  0.00  0.00    -0.370 N 
ATOM      8  H   LIG    1        1.629  -0.102  -1.320  0.00  0.00    +0.430 HD
BRANCH   7  10
ATOM      9  C   LIG    1       -0.088   1.425  -2.526  0.00  0.00    +0.090 C 
ATOM     10  C   LIG    1       -0.144  -0.091  -2.331  0.00  0.00    +0.230 C 
ENDBRANCH   7  10
BRANCH   7  11
ATOM     11  C   LIG    1        0.125   0.083   0.047  0.00  0.00    +0.260 C 
ATOM     12  C   LIG    1        1.010  -0.299   1.235  0.00  0.00    +0.070 C 
ENDBRANCH   7  11
ENDBRANCH   1   7
BRANCH   5  13
ATOM     13  O   LIG    1        0.050  -4.462   0.154  0.00  0.00    -0.540 OA
ATOM     14  H   LIG    1        0.136  -5.422   0.235  0.00  0.00    +0.390 HD
ENDBRANCH   5  13
BRANCH   2  15
ATOM     15  O   LIG    1        2.864  -2.012  -2.275  0.00  0.00    -0.540 OA
ATOM     16  H   LIG    1        3.383  -2.267  -3.050  0.00  0.00    +0.420 HD
ENDBRANCH   2  15
BRANCH   6  17
ATOM     17  O   LIG    1       -1.358  -2.043   0.082  0.00  0.00    -0.540 OA
ATOM     18  H   LIG    1       -2.265  -2.373   0.154  0.00  0.00    +0.400 HD
ENDBRANCH   6  17
BRANCH   4  19
ATOM     19  C   LIG    1        0.360  -6.041  -2.206  0.00  0.00    +0.210 C 
BRANCH  19  20
ATOM     20  O   LIG    1        1.018  -6.502  -3.388  0.00  0.00    -0.560 OA
ATOM     21  H   LIG    1        1.136  -7.461  -3.423  0.00  0.00    +0.390 HD
ENDBRANCH  19  20
ENDBRANCH   4  19
TORSDOF 8
ENDMDL
MODEL      119
REMARK  Name = ZINC000306482675
REMARK                            x       y       z     vdW  Elec       q    Type
REMARK                         _______ _______ _______ _____ _____    ______ ____
ROOT
ATOM      1  N   LIG    1        1.580  -1.046  -1.877  0.00  0.00    -1.020 NA
ATOM      2  C   LIG    1        2.431  -0.148  -2.693  0.00  0.00    +0.340 C 
ATOM      3  C   LIG    1        3.816  -0.199  -2.014  0.00  0.00    +0.000 C 
ATOM      4  C   LIG    1        4.803  -1.276  -2.468  0.00  0.00    +0.130 C 
ATOM      5  C   LIG    1        3.839  -1.543  -1.257  0.00  0.00    +0.010 C 
ATOM      6  C   LIG    1        2.467  -2.183  -1.540  0.00  0.00    +0.340 C 
ENDROOT
BRANCH   4   7
ATOM      7  N   LIG    1        6.223  -1.068  -2.155  0.00  0.00    -0.600 N 
ATOM      8  H   LIG    1        6.542  -0.214  -2.587  0.00  0.00    +0.440 HD
ATOM      9  H   LIG    1        6.762  -1.845  -2.507  0.00  0.00    +0.450 HD
ATOM     10  H   LIG    1        6.341  -1.003  -1.155  0.00  0.00    +0.430 HD
ENDBRANCH   4   7
BRANCH   1  11
ATOM     11  S   LIG    1       -0.000  -0.824  -1.437  0.00  0.00    +2.800 S 
ATOM     12  O   LIG    1       -0.566   0.055  -2.399  0.00  0.00    -0.960 OA
ATOM     13  O   LIG    1       -0.525  -2.116  -1.161  0.00  0.00    -0.950 OA
BRANCH  11  15
ATOM     14  C   LIG    1       -0.018   1.461   0.010  0.00  0.00    +0.290 C 
ATOM     15  N   LIG    1        0.002  -0.004   0.002  0.00  0.00    -1.010 NA
ATOM     16  C   LIG    1        0.024  -0.743   1.267  0.00  0.00    +0.310 C 
ENDBRANCH  11  15
ENDBRANCH   1  11
TORSDOF 3
ENDMDL
MODEL      120
REMARK  Name = ZINC000037497005
REMARK                            x       y       z     vdW  Elec       q    Type
REMARK                         _______ _______ _______ _____ _____    ______ ____
ROOT
ATOM      1  C   LIG    1       -1.356  -2.019   0.004  0.00  0.00    +0.500 C 
ATOM      2  N   LIG    1       -2.514  -2.709   0.011  0.00  0.00    -0.590 N 
ATOM      3  C   LIG    1       -3.804  -2.005   0.021  0.00  0.00    +0.280 C 
ATOM      4  C   LIG    1       -4.639  -2.496  -1.167  0.00  0.00    +0.300 C 
ATOM      5  N   LIG    1       -4.634  -3.966  -1.170  0.00  0.00    -1.010 NA
ATOM      6  C   LIG    1       -3.344  -4.670  -1.180  0.00  0.00    +0.300 C 
ATOM      7  C   LIG    1       -2.509  -4.179   0.004  0.00  0.00    +0.300 C 
ATOM      8  O   LIG    1       -0.297  -2.611  -0.009  0.00  0.00    -0.530 OA
ENDROOT
BRANCH   5   9
ATOM      9  S   LIG    1       -6.057  -4.813  -1.162  0.00  0.00    +2.610 S 
ATOM     10  O   LIG    1       -6.987  -3.930  -0.549  0.00  0.00    -0.950 OA
ATOM     11  O   LIG    1       -5.721  -6.056  -0.560  0.00  0.00    -0.940 OA
ATOM     12  C   LIG    1       -6.457  -5.042  -2.916  0.00  0.00    -0.280 C 
ENDBRANCH   5   9
BRANCH   1  13
ATOM     13  C   LIG    1       -1.376  -0.512   0.012  0.00  0.00    +0.290 C 
BRANCH  13  15
ATOM     14  C   LIG    1       -0.018   1.465   0.010  0.00  0.00    +0.340 C 
ATOM     15  N   LIG    1        0.002  -0.004   0.002  0.00  0.00    -0.500 N 
ATOM     16  H   LIG    1        0.490  -0.338   0.820  0.00  0.00    +0.440 HD
ATOM     17  H   LIG    1        0.474  -0.330  -0.828  0.00  0.00    +0.440 HD
ENDBRANCH  13  15
ENDBRANCH   1  13
TORSDOF 3
ENDMDL
MODEL      121
REMARK  Name = ZINC000237191812
REMARK                            x       y       z     vdW  Elec       q    Type
REMARK                         _______ _______ _______ _____ _____    ______ ____
ROOT
ATOM      1  C   LIG    1       -1.356  -2.019   0.004  0.00  0.00    +0.500 C 
ATOM      2  N   LIG    1       -2.514  -2.709   0.011  0.00  0.00    -0.590 N 
ATOM      3  C   LIG    1       -3.808  -2.011   0.021  0.00  0.00    +0.290 C 
ATOM      4  C   LIG    1       -4.677  -2.580  -1.105  0.00  0.00    +0.180 C 
ATOM      5  N   LIG    1       -4.758  -4.040  -0.967  0.00  0.00    -0.530 NA
ATOM      6  C   LIG    1       -3.436  -4.664  -1.116  0.00  0.00    +0.170 C 
ATOM      7  C   LIG    1       -2.516  -4.180   0.004  0.00  0.00    +0.300 C 
ATOM      8  O   LIG    1       -0.297  -2.611  -0.009  0.00  0.00    -0.530 OA
ENDROOT
BRANCH   1   9
ATOM      9  C   LIG    1       -1.376  -0.512   0.012  0.00  0.00    +0.290 C 
BRANCH   9  11
ATOM     10  C   LIG    1       -0.018   1.465   0.010  0.00  0.00    +0.340 C 
ATOM     11  N   LIG    1        0.002  -0.004   0.002  0.00  0.00    -0.500 N 
ATOM     12  H   LIG    1        0.490  -0.338   0.820  0.00  0.00    +0.440 HD
ATOM     13  H   LIG    1        0.474  -0.330  -0.828  0.00  0.00    +0.440 HD
ENDBRANCH   9  11
ENDBRANCH   1   9
BRANCH   5  14
ATOM     14  C   LIG    1       -5.718  -4.607  -1.923  0.00  0.00    +0.200 C 
BRANCH  14  15
ATOM     15  C   LIG    1       -5.962  -6.080  -1.588  0.00  0.00    +0.170 C 
BRANCH  15  16
ATOM     16  O   LIG    1       -6.596  -6.180  -0.311  0.00  0.00    -0.380 OA
ATOM     17  C   LIG    1       -6.870  -7.521   0.099  0.00  0.00    +0.200 C 
ENDBRANCH  15  16
ENDBRANCH  14  15
ENDBRANCH   5  14
TORSDOF 5
ENDMDL
MODEL      122
REMARK  Name = ZINC000409428903
REMARK                            x       y       z     vdW  Elec       q    Type
REMARK                         _______ _______ _______ _____ _____    ______ ____
ROOT
ATOM      1  N   LIG    1       -0.776  -2.556  -1.119  0.00  0.00    -0.990 NA
ATOM      2  C   LIG    1       -1.745  -2.657  -0.016  0.00  0.00    +0.290 C 
ATOM      3  C   LIG    1       -3.164  -2.676  -0.594  0.00  0.00    +0.250 C 
ATOM      4  N   LIG    1       -3.121  -3.399  -1.880  0.00  0.00    -1.010 NA
ATOM      5  S   LIG    1       -1.597  -3.069  -2.479  0.00  0.00    +2.770 S 
ATOM      6  O   LIG    1       -1.021  -4.309  -2.863  0.00  0.00    -0.960 OA
ATOM      7  O   LIG    1       -1.723  -1.951  -3.347  0.00  0.00    -0.950 OA
ENDROOT
BRANCH   4   8
ATOM      8  C   LIG    1       -4.175  -4.213  -2.491  0.00  0.00    +0.310 C 
ATOM      9  C   LIG    1       -4.996  -5.028  -1.476  0.00  0.00    +0.320 C 
ATOM     10  N   LIG    1       -5.900  -3.857  -1.417  0.00  0.00    -0.540 N 
ATOM     11  H   LIG    1       -5.641  -3.196  -0.701  0.00  0.00    +0.430 HD
ATOM     12  H   LIG    1       -6.875  -4.114  -1.374  0.00  0.00    +0.430 HD
ATOM     13  C   LIG    1       -5.474  -3.436  -2.771  0.00  0.00    +0.310 C 
ENDBRANCH   4   8
BRANCH   1  14
ATOM     14  C   LIG    1        0.613  -2.097  -1.041  0.00  0.00    +0.360 C 
BRANCH  14  15
ATOM     15  C   LIG    1        0.652  -0.570  -1.138  0.00  0.00    +0.160 C 
BRANCH  15  17
ATOM     16  C   LIG    1       -0.017   1.425   0.010  0.00  0.00    +0.210 C 
ATOM     17  O   LIG    1        0.002  -0.004   0.002  0.00  0.00    -0.390 OA
ENDBRANCH  15  17
ENDBRANCH  14  15
ENDBRANCH   1  14
TORSDOF 4
ENDMDL
MODEL      123
REMARK  Name = ZINC000019437272
REMARK                            x       y       z     vdW  Elec       q    Type
REMARK                         _______ _______ _______ _____ _____    ______ ____
ROOT
ATOM      1  C   LIG    1        0.710  -1.985  -1.215  0.00  0.00    +0.258 C 
ATOM      2  N   LIG    1        1.293  -2.645  -2.235  0.00  0.00    -0.310 N 
ATOM      3  H   LIG    1        1.700  -2.151  -2.964  0.00  0.00    +0.149 HD
ATOM      4  O   LIG    1        0.202  -2.603  -0.304  0.00  0.00    -0.270 OA
ENDROOT
BRANCH   1   5
ATOM      5  C   LIG    1        0.690  -0.478  -1.207  0.00  0.00    +0.226 C 
BRANCH   5   7
ATOM      6  C   LIG    1       -0.018   1.465   0.010  0.00  0.00    +0.189 C 
ATOM      7  N   LIG    1        0.002  -0.004   0.002  0.00  0.00    +0.231 N 
ATOM      8  H   LIG    1       -0.945  -0.353   0.009  0.00  0.00    +0.202 HD
ATOM      9  H   LIG    1        0.490  -0.338   0.820  0.00  0.00    +0.202 HD
ENDBRANCH   5   7
ENDBRANCH   1   5
BRANCH   2  10
ATOM     10  C   LIG    1        1.313  -4.110  -2.243  0.00  0.00    +0.119 C 
BRANCH  10  11
ATOM     11  C   LIG    1        2.029  -4.603  -3.502  0.00  0.00    +0.103 C 
BRANCH  11  12
ATOM     12  N   LIG    1        2.049  -6.072  -3.510  0.00  0.00    -0.297 NA
ATOM     13  C   LIG    1        2.455  -6.601  -2.200  0.00  0.00    +0.112 C 
ATOM     14  C   LIG    1        2.405  -8.130  -2.235  0.00  0.00    +0.175 C 
ATOM     15  O   LIG    1        3.241  -8.606  -3.293  0.00  0.00    -0.377 OA
ATOM     16  C   LIG    1        2.873  -8.111  -4.584  0.00  0.00    +0.175 C 
ATOM     17  C   LIG    1        2.928  -6.581  -4.572  0.00  0.00    +0.112 C 
ENDBRANCH  11  12
ENDBRANCH  10  11
ENDBRANCH   2  10
TORSDOF 5
ENDMDL
MODEL      124
REMARK  Name = ZINC000225765608
REMARK                            x       y       z     vdW  Elec       q    Type
REMARK                         _______ _______ _______ _____ _____    ______ ____
ROOT
ATOM      1  CA  LIG    1       -1.358   2.041   0.464  0.00  0.00    +0.100 C 
ATOM      2  C   LIG    1       -1.542   1.877  -1.061  0.00  0.00    +0.090 C 
ATOM      3  C   LIG    1       -3.053   1.642  -1.259  0.00  0.00    +0.080 C 
ATOM      4  C   LIG    1       -3.656   1.683   0.162  0.00  0.00    +0.160 C 
ATOM      5  N   LIG    1       -2.523   1.339   1.061  0.00  0.00    -0.480 N 
ATOM      6  H1  LIG    1       -2.701   1.674   1.996  0.00  0.00    +0.430 HD
ATOM      7  H2  LIG    1       -2.367   0.342   1.067  0.00  0.00    +0.440 HD
ENDROOT
BRANCH   4   8
ATOM      8  C   LIG    1       -4.762   0.669   0.293  0.00  0.00    +0.520 C 
ATOM      9  N   LIG    1       -6.015   0.985  -0.090  0.00  0.00    -0.620 N 
ATOM     10  C   LIG    1       -6.304   2.268  -0.749  0.00  0.00    +0.310 C 
ATOM     11  C   LIG    1       -7.106   1.991  -2.024  0.00  0.00    +0.270 C 
ATOM     12  N   LIG    1       -8.297   1.200  -1.689  0.00  0.00    -0.510 N 
ATOM     13  C   LIG    1       -7.896  -0.118  -1.180  0.00  0.00    +0.270 C 
ATOM     14  H   LIG    1       -8.863   1.080  -2.516  0.00  0.00    +0.440 HD
ATOM     15  H   LIG    1       -8.833   1.683  -0.984  0.00  0.00    +0.430 HD
ATOM     16  C   LIG    1       -7.132   0.053   0.132  0.00  0.00    +0.340 C 
ATOM     17  O   LIG    1       -4.525  -0.432   0.744  0.00  0.00    -0.480 OA
ENDBRANCH   4   8
BRANCH   1  19
ATOM     18  O   LIG    1       -0.049   0.212   1.196  0.00  0.00    -0.660 OA
ATOM     19  C   LIG    1       -0.071   1.397   0.910  0.00  0.00    +0.490 C 
ATOM     20  OXT LIG    1        0.950   2.059   0.980  0.00  0.00    -0.630 OA
ENDBRANCH   1  19
TORSDOF 2
ENDMDL
MODEL      125
REMARK  Name = ZINC000225765471
REMARK                            x       y       z     vdW  Elec       q    Type
REMARK                         _______ _______ _______ _____ _____    ______ ____
ROOT
ATOM      1  CA  LIG    1       -1.330   1.951   0.019  0.00  0.00    +0.090 C 
ATOM      2  C   LIG    1       -1.844   2.156  -1.428  0.00  0.00    +0.100 C 
ATOM      3  C   LIG    1       -3.370   2.311  -1.199  0.00  0.00    +0.080 C 
ATOM      4  C   LIG    1       -3.647   1.339  -0.033  0.00  0.00    +0.160 C 
ATOM      5  N   LIG    1       -2.371   1.135   0.680  0.00  0.00    -0.480 N 
ATOM      6  H1  LIG    1       -2.469   1.423   1.642  0.00  0.00    +0.430 HD
ATOM      7  H2  LIG    1       -2.112   0.160   0.641  0.00  0.00    +0.440 HD
ENDROOT
BRANCH   4   8
ATOM      8  C   LIG    1       -4.667   1.936   0.902  0.00  0.00    +0.520 C 
ATOM      9  N   LIG    1       -5.906   2.221   0.454  0.00  0.00    -0.620 N 
ATOM     10  C   LIG    1       -6.287   1.951  -0.941  0.00  0.00    +0.310 C 
ATOM     11  C   LIG    1       -7.602   1.165  -0.942  0.00  0.00    +0.280 C 
ATOM     12  N   LIG    1       -8.612   1.900  -0.170  0.00  0.00    -0.510 N 
ATOM     13  C   LIG    1       -8.202   1.983   1.237  0.00  0.00    +0.270 C 
ATOM     14  H   LIG    1       -9.497   1.420  -0.233  0.00  0.00    +0.440 HD
ATOM     15  H   LIG    1       -8.708   2.832  -0.546  0.00  0.00    +0.430 HD
ATOM     16  C   LIG    1       -6.918   2.804   1.348  0.00  0.00    +0.340 C 
ATOM     17  O   LIG    1       -4.373   2.161   2.057  0.00  0.00    -0.490 OA
ENDBRANCH   4   8
BRANCH   1  19
ATOM     18  O   LIG    1        0.002  -0.004   0.002  0.00  0.00    -0.660 OA
ATOM     19  C   LIG    1       -0.015   1.215   0.009  0.00  0.00    +0.490 C 
ATOM     20  OXT LIG    1        1.033   1.839   0.002  0.00  0.00    -0.620 OA
ENDBRANCH   1  19
TORSDOF 2
ENDMDL
MODEL      126
REMARK  Name = ZINC000026510086
REMARK                            x       y       z     vdW  Elec       q    Type
REMARK                         _______ _______ _______ _____ _____    ______ ____
ROOT
ATOM      1  C   LIG    1       -0.512   1.409   0.038  0.00  0.00    +0.380 C 
ATOM      2  N   LIG    1       -0.229  -0.028   0.015  0.00  0.00    -0.430 N 
ATOM      3  N   LIG    1       -0.229  -0.712  -1.206  0.00  0.00    -0.250 NA
ATOM      4  C   LIG    1        0.023  -1.995  -1.234  0.00  0.00    +0.310 A 
ATOM      5  C   LIG    1        0.303  -2.693   0.032  0.00  0.00    +0.540 A 
ATOM      6  N   LIG    1        0.292  -1.991   1.184  0.00  0.00    -0.540 N 
ATOM      7  C   LIG    1        0.568  -2.666   2.455  0.00  0.00    +0.360 C 
ATOM      8  O   LIG    1        0.542  -3.886   0.038  0.00  0.00    -0.480 OA
ATOM      9  C   LIG    1        0.033  -0.670   1.167  0.00  0.00    +0.670 A 
ATOM     10  O   LIG    1        0.026  -0.049   2.213  0.00  0.00    -0.520 OA
ENDROOT
BRANCH   4  11
ATOM     11  N   LIG    1        0.027  -2.691  -2.443  0.00  0.00    -0.590 N 
ATOM     12  C   LIG    1        0.151  -4.156  -2.472  0.00  0.00    +0.340 C 
ATOM     13  C   LIG    1       -0.967  -4.721  -3.355  0.00  0.00    +0.260 C 
ATOM     14  N   LIG    1       -0.915  -4.082  -4.676  0.00  0.00    -0.510 N 
ATOM     15  C   LIG    1       -1.198  -2.647  -4.549  0.00  0.00    +0.270 C 
ATOM     16  H   LIG    1       -1.603  -4.506  -5.281  0.00  0.00    +0.430 HD
ATOM     17  H   LIG    1        0.004  -4.208  -5.074  0.00  0.00    +0.430 HD
ATOM     18  C   LIG    1       -0.098  -1.980  -3.725  0.00  0.00    +0.340 C 
ENDBRANCH   4  11
TORSDOF 1
ENDMDL
MODEL      127
REMARK  Name = ZINC000257221706
REMARK                            x       y       z     vdW  Elec       q    Type
REMARK                         _______ _______ _______ _____ _____    ______ ____
ROOT
ATOM      1  C   LIG    1       -2.883  -2.333   0.017  0.00  0.00    +0.510 C 
ATOM      2  N   LIG    1       -3.215  -3.639   0.013  0.00  0.00    -0.630 N 
ATOM      3  C   LIG    1       -2.133  -4.642   0.004  0.00  0.00    +0.310 C 
ATOM      4  C   LIG    1       -2.425  -5.811   0.960  0.00  0.00    +0.260 C 
ATOM      5  N   LIG    1       -3.015  -5.297   2.181  0.00  0.00    -0.370 N 
ATOM      6  C   LIG    1       -4.469  -5.366   2.072  0.00  0.00    +0.280 C 
ATOM      7  C   LIG    1       -5.105  -4.171   1.481  0.00  0.00    -0.020 C 
ATOM      8  C   LIG    1       -2.566  -6.106   3.322  0.00  0.00    +0.340 C 
ATOM      9  H   LIG    1       -2.731  -4.338   2.314  0.00  0.00    +0.420 HD
ATOM     10  C   LIG    1       -4.619  -3.996   0.025  0.00  0.00    +0.330 C 
ATOM     11  O   LIG    1       -3.751  -1.486   0.030  0.00  0.00    -0.480 OA
ENDROOT
BRANCH   7  12
ATOM     12  C   LIG    1       -6.602  -4.341   1.496  0.00  0.00    +0.540 C 
ATOM     13  O   LIG    1       -7.094  -5.352   1.952  0.00  0.00    -0.530 OA
ATOM     14  N   LIG    1       -7.395  -3.369   1.003  0.00  0.00    -0.840 N 
ATOM     15  H   LIG    1       -8.359  -3.478   1.012  0.00  0.00    +0.420 HD
ATOM     16  H   LIG    1       -7.002  -2.560   0.638  0.00  0.00    +0.410 HD
ENDBRANCH   7  12
BRANCH   1  17
ATOM     17  C   LIG    1       -1.432  -1.925   0.005  0.00  0.00    +0.210 C 
BRANCH  17  18
ATOM     18  O   LIG    1       -1.339  -0.499   0.012  0.00  0.00    -0.360 OA
BRANCH  18  20
ATOM     19  C   LIG    1       -0.019   1.526   0.010  0.00  0.00    +0.060 C 
ATOM     20  C   LIG    1        0.002  -0.004   0.002  0.00  0.00    +0.170 C 
ENDBRANCH  18  20
ENDBRANCH  17  18
ENDBRANCH   1  17
TORSDOF 4
ENDMDL
MODEL      128
REMARK  Name = ZINC000257221705
REMARK                            x       y       z     vdW  Elec       q    Type
REMARK                         _______ _______ _______ _____ _____    ______ ____
ROOT
ATOM      1  C   LIG    1       -2.586  -2.456  -0.388  0.00  0.00    +0.510 C 
ATOM      2  N   LIG    1       -3.002  -3.734  -0.290  0.00  0.00    -0.620 N 
ATOM      3  C   LIG    1       -2.025  -4.797  -0.395  0.00  0.00    +0.320 C 
ATOM      4  C   LIG    1       -1.882  -5.234  -1.872  0.00  0.00    +0.230 C 
ATOM      5  N   LIG    1       -3.043  -5.919  -2.293  0.00  0.00    -0.380 N 
ATOM      6  C   LIG    1       -4.264  -5.116  -2.299  0.00  0.00    +0.300 C 
ATOM      7  C   LIG    1       -4.915  -5.187  -0.935  0.00  0.00    +0.010 C 
ATOM      8  C   LIG    1       -2.817  -6.422  -3.655  0.00  0.00    +0.330 C 
ATOM      9  H   LIG    1       -3.185  -6.710  -1.683  0.00  0.00    +0.410 HD
ATOM     10  C   LIG    1       -4.439  -4.000  -0.073  0.00  0.00    +0.340 C 
ATOM     11  O   LIG    1       -3.385  -1.549  -0.298  0.00  0.00    -0.480 OA
ENDROOT
BRANCH   7  12
ATOM     12  C   LIG    1       -4.530  -6.479  -0.262  0.00  0.00    +0.480 C 
ATOM     13  O   LIG    1       -4.002  -6.460   0.830  0.00  0.00    -0.490 OA
ATOM     14  N   LIG    1       -4.773  -7.656  -0.872  0.00  0.00    -0.850 N 
ATOM     15  H   LIG    1       -4.526  -8.488  -0.438  0.00  0.00    +0.420 HD
ATOM     16  H   LIG    1       -5.196  -7.671  -1.745  0.00  0.00    +0.410 HD
ENDBRANCH   7  12
BRANCH   1  17
ATOM     17  C   LIG    1       -1.126  -2.154  -0.610  0.00  0.00    +0.210 C 
BRANCH  17  18
ATOM     18  O   LIG    1       -0.937  -0.740  -0.679  0.00  0.00    -0.360 OA
BRANCH  18  20
ATOM     19  C   LIG    1        0.503   1.183  -0.946  0.00  0.00    +0.060 C 
ATOM     20  C   LIG    1        0.420  -0.344  -0.889  0.00  0.00    +0.170 C 
ENDBRANCH  18  20
ENDBRANCH  17  18
ENDBRANCH   1  17
TORSDOF 4
ENDMDL
MODEL      129
REMARK  Name = ZINC000036753454
REMARK                            x       y       z     vdW  Elec       q    Type
REMARK                         _______ _______ _______ _____ _____    ______ ____
ROOT
ATOM      1  C   LIG    1       -0.699   1.479   1.216  0.00  0.00    +0.180 C 
ATOM      2  C   LIG    1       -2.135   0.950   1.226  0.00  0.00    +0.040 C 
ATOM      3  C   LIG    1       -2.860   1.474   2.470  0.00  0.00    +0.330 C 
ATOM      4  N   LIG    1       -2.076   1.115   3.660  0.00  0.00    -0.620 N 
ATOM      5  C   LIG    1       -0.658   1.496   3.714  0.00  0.00    +0.310 C 
ATOM      6  C   LIG    1       -2.648   0.448   4.682  0.00  0.00    +0.510 C 
ATOM      7  O   LIG    1       -3.819   0.139   4.626  0.00  0.00    -0.480 OA
ATOM      8  C   LIG    1        0.041   0.972   2.456  0.00  0.00    +0.050 C 
ENDROOT
BRANCH   1   9
ATOM      9  N   LIG    1       -0.012   1.005   0.008  0.00  0.00    -0.640 N 
ATOM     10  H   LIG    1       -0.500   1.339  -0.810  0.00  0.00    +0.440 HD
ATOM     11  H   LIG    1        0.935   1.354   0.000  0.00  0.00    +0.440 HD
ATOM     12  H   LIG    1        0.002  -0.004   0.002  0.00  0.00    +0.430 HD
ENDBRANCH   1   9
BRANCH   6  13
ATOM     13  C   LIG    1       -1.831   0.087   5.896  0.00  0.00    +0.380 C 
BRANCH  13  14
ATOM     14  N   LIG    1       -2.674  -0.628   6.857  0.00  0.00    -0.310 N 
ATOM     15  C   LIG    1       -2.427  -1.838   7.393  0.00  0.00    +0.400 A 
ATOM     16  N   LIG    1       -3.427  -2.105   8.198  0.00  0.00    -0.300 NA
ATOM     17  N   LIG    1       -4.246  -1.111   8.158  0.00  0.00    -0.060 NA
ATOM     18  N   LIG    1       -3.791  -0.215   7.353  0.00  0.00    -0.070 NA
ENDBRANCH  13  14
ENDBRANCH   6  13
TORSDOF 3
ENDMDL
MODEL      130
REMARK  Name = ZINC000019677001
REMARK                            x       y       z     vdW  Elec       q    Type
REMARK                         _______ _______ _______ _____ _____    ______ ____
ROOT
ATOM      1  C   LIG    1        0.030   0.979   2.437  0.00  0.00    +0.500 C 
ATOM      2  N   LIG    1       -0.423   1.292   3.667  0.00  0.00    -0.590 N 
ATOM      3  C   LIG    1       -1.631   2.114   3.833  0.00  0.00    +0.280 C 
ATOM      4  C   LIG    1       -2.626   1.350   4.715  0.00  0.00    +0.300 C 
ATOM      5  N   LIG    1       -1.922   0.875   5.915  0.00  0.00    -0.620 N 
ATOM      6  C   LIG    1       -0.715   0.053   5.749  0.00  0.00    +0.280 C 
ATOM      7  C   LIG    1       -2.376   1.187   7.145  0.00  0.00    +0.510 C 
ATOM      8  O   LIG    1       -3.373   1.865   7.269  0.00  0.00    -0.510 OA
ATOM      9  C   LIG    1        0.277   0.812   4.867  0.00  0.00    +0.300 C 
ATOM     10  O   LIG    1        1.024   0.296   2.313  0.00  0.00    -0.530 OA
ENDROOT
BRANCH   7  11
ATOM     11  C   LIG    1       -1.644   0.693   8.366  0.00  0.00    +0.180 C 
ATOM     12  C   LIG    1       -1.723  -0.848   8.436  0.00  0.00    +0.020 C 
ATOM     13  C   LIG    1       -1.917  -1.099   9.956  0.00  0.00    +0.020 C 
ATOM     14  C   LIG    1       -2.769   0.134  10.351  0.00  0.00    +0.220 C 
ATOM     15  O   LIG    1       -2.263   1.214   9.548  0.00  0.00    -0.350 OA
ENDBRANCH   7  11
BRANCH   1  16
ATOM     16  C   LIG    1       -0.699   1.479   1.216  0.00  0.00    +0.300 C 
BRANCH  16  17
ATOM     17  N   LIG    1       -0.012   1.005   0.008  0.00  0.00    -0.620 N 
ATOM     18  H   LIG    1       -0.500   1.339  -0.810  0.00  0.00    +0.450 HD
ATOM     19  H   LIG    1        0.935   1.354   0.000  0.00  0.00    +0.440 HD
ATOM     20  H   LIG    1        0.002  -0.004   0.002  0.00  0.00    +0.440 HD
ENDBRANCH  16  17
ENDBRANCH   1  16
TORSDOF 3
ENDMDL
MODEL      131
REMARK  Name = ZINC000019677002
REMARK                            x       y       z     vdW  Elec       q    Type
REMARK                         _______ _______ _______ _____ _____    ______ ____
ROOT
ATOM      1  C   LIG    1        0.029   0.961   2.438  0.00  0.00    +0.500 C 
ATOM      2  N   LIG    1       -0.421   1.277   3.668  0.00  0.00    -0.590 N 
ATOM      3  C   LIG    1       -1.621   2.110   3.834  0.00  0.00    +0.280 C 
ATOM      4  C   LIG    1       -2.623   1.355   4.715  0.00  0.00    +0.300 C 
ATOM      5  N   LIG    1       -1.925   0.872   5.915  0.00  0.00    -0.620 N 
ATOM      6  C   LIG    1       -0.725   0.039   5.748  0.00  0.00    +0.280 C 
ATOM      7  C   LIG    1       -2.376   1.187   7.145  0.00  0.00    +0.520 C 
ATOM      8  O   LIG    1       -3.317   1.942   7.271  0.00  0.00    -0.500 OA
ATOM      9  C   LIG    1        0.274   0.790   4.867  0.00  0.00    +0.300 C 
ATOM     10  O   LIG    1        1.017   0.269   2.313  0.00  0.00    -0.530 OA
ENDROOT
BRANCH   7  11
ATOM     11  C   LIG    1       -1.711   0.601   8.364  0.00  0.00    +0.160 C 
ATOM     12  C   LIG    1       -0.344   1.286   8.613  0.00  0.00    +0.030 C 
ATOM     13  C   LIG    1       -0.170   1.051  10.138  0.00  0.00    +0.030 C 
ATOM     14  C   LIG    1       -1.624   1.134  10.651  0.00  0.00    +0.210 C 
ATOM     15  O   LIG    1       -2.491   0.877   9.538  0.00  0.00    -0.350 OA
ENDBRANCH   7  11
BRANCH   1  16
ATOM     16  C   LIG    1       -0.694   1.468   1.217  0.00  0.00    +0.300 C 
BRANCH  16  17
ATOM     17  N   LIG    1       -0.011   0.990   0.008  0.00  0.00    -0.620 N 
ATOM     18  H   LIG    1       -0.495   1.329  -0.809  0.00  0.00    +0.450 HD
ATOM     19  H   LIG    1        0.939   1.330   0.002  0.00  0.00    +0.440 HD
ATOM     20  H   LIG    1       -0.006  -0.019   0.002  0.00  0.00    +0.440 HD
ENDBRANCH  16  17
ENDBRANCH   1  16
TORSDOF 3
ENDMDL
MODEL      132
REMARK  Name = ZINC000004879758
REMARK                            x       y       z     vdW  Elec       q    Type
REMARK                         _______ _______ _______ _____ _____    ______ ____
ROOT
ATOM      1  C   LIG    1       -1.293  -0.775   0.010  0.00  0.00    +0.260 C 
ENDROOT
BRANCH   1   5
ATOM      2  N   LIG    1       -0.016   1.344   0.009  0.00  0.00    -0.840 N 
ATOM      3  H   LIG    1       -0.863   1.817   0.016  0.00  0.00    +0.410 HD
ATOM      4  H   LIG    1        0.817   1.840   0.004  0.00  0.00    +0.410 HD
ATOM      5  C   LIG    1        0.002  -0.004   0.002  0.00  0.00    +0.510 C 
ATOM      6  O   LIG    1        1.060  -0.596  -0.011  0.00  0.00    -0.540 OA
ENDBRANCH   1   5
BRANCH   1   7
ATOM      7  N   LIG    1       -1.005  -2.212  -0.000  0.00  0.00    -0.680 N 
ATOM      8  H   LIG    1       -0.974  -2.706   0.834  0.00  0.00    +0.410 HD
ATOM      9  C   LIG    1       -0.785  -2.846  -1.169  0.00  0.00    +0.500 C 
ATOM     10  O   LIG    1       -0.824  -2.228  -2.211  0.00  0.00    -0.530 OA
BRANCH   9  11
ATOM     11  C   LIG    1       -0.489  -4.324  -1.179  0.00  0.00    +0.310 C 
BRANCH  11  12
ATOM     12  N   LIG    1       -0.288  -4.773  -2.563  0.00  0.00    -0.620 N 
ATOM     13  H   LIG    1       -0.090  -5.763  -2.571  0.00  0.00    +0.440 HD
ATOM     14  H   LIG    1        0.488  -4.272  -2.970  0.00  0.00    +0.440 HD
ATOM     15  H   LIG    1       -1.123  -4.593  -3.100  0.00  0.00    +0.440 HD
ENDBRANCH  11  12
ENDBRANCH   9  11
ENDBRANCH   1   7
BRANCH   1  16
ATOM     16  C   LIG    1       -2.088  -0.423   1.269  0.00  0.00    +0.150 C 
BRANCH  16  17
ATOM     17  C   LIG    1       -3.434  -1.099   1.218  0.00  0.00    -0.010 A 
ATOM     18  C   LIG    1       -3.949  -1.910   2.162  0.00  0.00    +0.140 A 
ATOM     19  N   LIG    1       -5.183  -2.300   1.718  0.00  0.00    -0.570 N 
ATOM     20  H   LIG    1       -5.801  -2.889   2.179  0.00  0.00    +0.430 HD
ATOM     21  C   LIG    1       -5.380  -1.714   0.517  0.00  0.00    +0.400 A 
ATOM     22  N   LIG    1       -4.332  -0.992   0.227  0.00  0.00    -0.490 NA
ENDBRANCH  16  17
ENDBRANCH   1  16
TORSDOF 6
ENDMDL
MODEL      133
REMARK  Name = ZINC000061709104
REMARK                            x       y       z     vdW  Elec       q    Type
REMARK                         _______ _______ _______ _____ _____    ______ ____
ROOT
ATOM      1  C   LIG    1        1.280   1.980   0.001  0.00  0.00    +0.300 C 
ENDROOT
BRANCH   1   3
ATOM      2  O   LIG    1        0.002  -0.004   0.002  0.00  0.00    -0.530 OA
ATOM      3  C   LIG    1       -0.014   1.209   0.009  0.00  0.00    +0.500 C 
ATOM      4  N   LIG    1       -1.191   1.867   0.018  0.00  0.00    -0.590 N 
ATOM      5  C   LIG    1       -1.236   3.337   0.020  0.00  0.00    +0.250 C 
ATOM      6  C   LIG    1       -2.182   3.793  -1.096  0.00  0.00    +0.220 C 
ATOM      7  O   LIG    1       -3.435   3.120  -0.956  0.00  0.00    -0.370 OA
ATOM      8  C   LIG    1       -3.354   1.699  -1.091  0.00  0.00    +0.230 C 
ATOM      9  C   LIG    1       -2.468   1.135   0.020  0.00  0.00    +0.270 C 
ENDBRANCH   1   3
BRANCH   1  10
ATOM     10  N   LIG    1        2.410   1.040  -0.015  0.00  0.00    -0.380 N 
ATOM     11  C   LIG    1        2.493   0.306   1.274  0.00  0.00    +0.280 C 
ATOM     12  C   LIG    1        3.956  -0.180   1.350  0.00  0.00    +0.050 C 
ATOM     13  C   LIG    1        4.748   0.787   0.447  0.00  0.00    +0.190 C 
ATOM     14  C   LIG    1        3.697   1.777  -0.103  0.00  0.00    +0.300 C 
ATOM     15  H   LIG    1        2.320   0.394  -0.785  0.00  0.00    +0.440 HD
BRANCH  13  16
ATOM     16  O   LIG    1        5.737   1.481   1.210  0.00  0.00    -0.550 OA
ATOM     17  H   LIG    1        6.399   0.904   1.614  0.00  0.00    +0.410 HD
ENDBRANCH  13  16
ENDBRANCH   1  10
TORSDOF 3
ENDMDL
MODEL      134
REMARK  Name = ZINC000061709103
REMARK                            x       y       z     vdW  Elec       q    Type
REMARK                         _______ _______ _______ _____ _____    ______ ____
ROOT
ATOM      1  C   LIG    1        1.280   1.980   0.001  0.00  0.00    +0.290 C 
ENDROOT
BRANCH   1   3
ATOM      2  O   LIG    1        0.002  -0.004   0.002  0.00  0.00    -0.530 OA
ATOM      3  C   LIG    1       -0.014   1.209   0.009  0.00  0.00    +0.500 C 
ATOM      4  N   LIG    1       -1.191   1.867   0.018  0.00  0.00    -0.590 N 
ATOM      5  C   LIG    1       -1.236   3.337   0.020  0.00  0.00    +0.250 C 
ATOM      6  C   LIG    1       -2.182   3.793  -1.096  0.00  0.00    +0.220 C 
ATOM      7  O   LIG    1       -3.435   3.120  -0.956  0.00  0.00    -0.370 OA
ATOM      8  C   LIG    1       -3.354   1.699  -1.091  0.00  0.00    +0.230 C 
ATOM      9  C   LIG    1       -2.468   1.135   0.020  0.00  0.00    +0.270 C 
ENDBRANCH   1   3
BRANCH   1  10
ATOM     10  N   LIG    1        2.410   1.040  -0.015  0.00  0.00    -0.370 N 
ATOM     11  C   LIG    1        2.447   0.285   1.255  0.00  0.00    +0.270 C 
ATOM     12  C   LIG    1        3.954   0.102   1.563  0.00  0.00    +0.050 C 
ATOM     13  C   LIG    1        4.539   1.455   1.079  0.00  0.00    +0.190 C 
ATOM     14  C   LIG    1        3.674   1.787  -0.152  0.00  0.00    +0.280 C 
ATOM     15  H   LIG    1        2.309   0.400  -0.788  0.00  0.00    +0.440 HD
BRANCH  13  16
ATOM     16  O   LIG    1        5.913   1.308   0.712  0.00  0.00    -0.550 OA
ATOM     17  H   LIG    1        6.486   1.027   1.438  0.00  0.00    +0.410 HD
ENDBRANCH  13  16
ENDBRANCH   1  10
TORSDOF 3
ENDMDL
MODEL      135
REMARK  Name = ZINC000205694857
REMARK                            x       y       z     vdW  Elec       q    Type
REMARK                         _______ _______ _______ _____ _____    ______ ____
ROOT
ATOM      1  C   LIG    1       -1.135  -2.201   0.001  0.00  0.00    +0.020 C 
ATOM      2  C   LIG    1       -0.372  -2.684   1.208  0.00  0.00    +0.220 C 
ATOM      3  N   LIG    1        0.333  -3.938   0.847  0.00  0.00    -0.530 NA
ATOM      4  C   LIG    1       -0.499  -5.061   0.837  0.00  0.00    +0.220 C 
ATOM      5  C   LIG    1       -1.635  -4.946  -0.197  0.00  0.00    +0.270 C 
ATOM      6  N   LIG    1       -2.691  -4.138   0.369  0.00  0.00    -0.380 N 
ATOM      7  C   LIG    1       -3.986  -4.662  -0.084  0.00  0.00    +0.320 C 
ATOM      8  H   LIG    1       -2.646  -4.201   1.375  0.00  0.00    +0.420 HD
ATOM      9  C   LIG    1       -2.583  -2.717  -0.026  0.00  0.00    +0.290 C 
ENDROOT
BRANCH   1  12
ATOM     10  C   LIG    1       -0.018   1.461   0.010  0.00  0.00    +0.300 C 
ATOM     11  N   LIG    1        0.002  -0.004   0.002  0.00  0.00    -0.610 N 
ATOM     12  C   LIG    1       -1.156  -0.694   0.009  0.00  0.00    +0.520 C 
ATOM     13  O   LIG    1       -2.214  -0.102   0.023  0.00  0.00    -0.530 OA
ATOM     14  C   LIG    1        1.281  -0.719  -0.014  0.00  0.00    +0.280 C 
ENDBRANCH   1  12
BRANCH   3  15
ATOM     15  C   LIG    1        1.499  -4.154   1.714  0.00  0.00    +0.240 C 
BRANCH  15  16
ATOM     16  C   LIG    1        2.325  -5.291   1.170  0.00  0.00    +0.520 C 
ATOM     17  O   LIG    1        1.977  -5.865   0.160  0.00  0.00    -0.530 OA
ATOM     18  N   LIG    1        3.451  -5.671   1.806  0.00  0.00    -0.850 N 
ATOM     19  H   LIG    1        3.983  -6.402   1.456  0.00  0.00    +0.410 HD
ATOM     20  H   LIG    1        3.730  -5.212   2.614  0.00  0.00    +0.410 HD
ENDBRANCH  15  16
ENDBRANCH   3  15
TORSDOF 3
ENDMDL
MODEL      136
REMARK  Name = ZINC000044512804
REMARK                            x       y       z     vdW  Elec       q    Type
REMARK                         _______ _______ _______ _____ _____    ______ ____
ROOT
ATOM      1  C   LIG    1       -2.135   0.949   1.227  0.00  0.00    -0.020 C 
ATOM      2  C   LIG    1       -2.114  -0.577   1.343  0.00  0.00    +0.010 C 
ATOM      3  C   LIG    1       -3.552  -1.106   1.318  0.00  0.00    +0.300 C 
ATOM      4  N   LIG    1       -4.322  -0.431   2.372  0.00  0.00    -0.620 N 
ATOM      5  C   LIG    1       -4.334   1.038   2.407  0.00  0.00    +0.290 C 
ATOM      6  C   LIG    1       -5.004  -1.146   3.289  0.00  0.00    +0.510 C 
ATOM      7  O   LIG    1       -4.985  -2.358   3.249  0.00  0.00    -0.490 OA
ATOM      8  C   LIG    1       -2.888   1.543   2.420  0.00  0.00    +0.040 C 
ENDROOT
BRANCH   1   9
ATOM      9  C   LIG    1       -0.699   1.479   1.216  0.00  0.00    +0.280 C 
BRANCH   9  10
ATOM     10  N   LIG    1       -0.012   1.005   0.008  0.00  0.00    -0.640 N 
ATOM     11  H   LIG    1       -0.500   1.339  -0.810  0.00  0.00    +0.440 HD
ATOM     12  H   LIG    1        0.935   1.354   0.000  0.00  0.00    +0.440 HD
ATOM     13  H   LIG    1        0.002  -0.004   0.002  0.00  0.00    +0.430 HD
ENDBRANCH   9  10
ENDBRANCH   1   9
BRANCH   6  14
ATOM     14  C   LIG    1       -5.789  -0.439   4.364  0.00  0.00    +0.380 C 
BRANCH  14  15
ATOM     15  N   LIG    1       -6.435  -1.430   5.228  0.00  0.00    -0.310 N 
ATOM     16  C   LIG    1       -6.324  -1.516   6.567  0.00  0.00    +0.400 A 
ATOM     17  N   LIG    1       -7.057  -2.537   6.940  0.00  0.00    -0.300 NA
ATOM     18  N   LIG    1       -7.591  -3.050   5.886  0.00  0.00    -0.070 NA
ATOM     19  N   LIG    1       -7.221  -2.381   4.850  0.00  0.00    -0.070 NA
ENDBRANCH  14  15
ENDBRANCH   6  14
TORSDOF 4
ENDMDL
MODEL      137
REMARK  Name = ZINC000050252338
REMARK                            x       y       z     vdW  Elec       q    Type
REMARK                         _______ _______ _______ _____ _____    ______ ____
ROOT
ATOM      1  S   LIG    1       -0.000  -0.824  -1.437  0.00  0.00    +0.064 S 
ATOM      2  O   LIG    1       -0.566   0.055  -2.399  0.00  0.00    -0.153 OA
ATOM      3  O   LIG    1       -0.525  -2.116  -1.161  0.00  0.00    -0.153 OA
ENDROOT
BRANCH   1   4
ATOM      4  C   LIG    1        1.682  -1.060  -1.906  0.00  0.00    +0.143 A 
ATOM      5  C   LIG    1        2.425  -0.213  -2.655  0.00  0.00    +0.136 A 
ATOM      6  N   LIG    1        3.655  -0.753  -2.788  0.00  0.00    -0.273 N 
ATOM      7  N   LIG    1        3.667  -1.972  -2.098  0.00  0.00    -0.178 NA
ATOM      8  C   LIG    1        4.778  -0.168  -3.524  0.00  0.00    +0.172 C 
ATOM      9  C   LIG    1        2.486  -2.152  -1.564  0.00  0.00    +0.162 A 
ENDBRANCH   1   4
BRANCH   1  11
ATOM     10  C   LIG    1       -0.018   1.461   0.010  0.00  0.00    +0.132 C 
ATOM     11  N   LIG    1        0.002  -0.004   0.002  0.00  0.00    -0.174 NA
BRANCH  11  12
ATOM     12  C   LIG    1        0.024  -0.743   1.267  0.00  0.00    +0.159 C 
BRANCH  12  13
ATOM     13  C   LIG    1       -1.406  -0.912   1.784  0.00  0.00    +0.145 C 
BRANCH  13  14
ATOM     14  N   LIG    1       -1.384  -1.653   3.052  0.00  0.00    +0.219 N 
ATOM     15  H   LIG    1       -2.327  -1.764   3.393  0.00  0.00    +0.199 HD
ATOM     16  H   LIG    1       -0.839  -1.143   3.731  0.00  0.00    +0.199 HD
ATOM     17  H   LIG    1       -0.971  -2.561   2.903  0.00  0.00    +0.199 HD
ENDBRANCH  13  14
ENDBRANCH  12  13
ENDBRANCH  11  12
ENDBRANCH   1  11
TORSDOF 5
ENDMDL
MODEL      138
REMARK  Name = ZINC000217404539
REMARK                            x       y       z     vdW  Elec       q    Type
REMARK                         _______ _______ _______ _____ _____    ______ ____
ROOT
ATOM      1  N   LIG    1        4.853   1.476  -0.036  0.00  0.00    -0.500 N 
ATOM      2  H   LIG    1        4.907   0.901  -0.864  0.00  0.00    +0.430 HD
ATOM      3  H   LIG    1        4.922   0.892   0.784  0.00  0.00    +0.440 HD
ENDROOT
BRANCH   1   4
ATOM      4  C   LIG    1        5.957   2.446  -0.042  0.00  0.00    +0.220 C 
ATOM      5  C   LIG    1        5.903   3.257  -1.352  0.00  0.00    -0.310 C 
ATOM      6  S   LIG    1        7.679   3.559  -1.719  0.00  0.00    +2.410 S 
ATOM      7  C   LIG    1        8.232   1.933  -1.064  0.00  0.00    -0.300 C 
ATOM      8  O   LIG    1        8.171   4.604  -0.892  0.00  0.00    -0.890 OA
ATOM      9  O   LIG    1        7.880   3.605  -3.125  0.00  0.00    -0.900 OA
ATOM     10  C   LIG    1        7.274   1.696   0.118  0.00  0.00    +0.190 C 
BRANCH  10  11
ATOM     11  O   LIG    1        7.906   2.135   1.322  0.00  0.00    -0.540 OA
ATOM     12  H   LIG    1        8.722   1.660   1.534  0.00  0.00    +0.410 HD
ENDBRANCH  10  11
ENDBRANCH   1   4
BRANCH   1  13
ATOM     13  C   LIG    1        3.571   2.193  -0.020  0.00  0.00    +0.260 C 
BRANCH  13  14
ATOM     14  C   LIG    1        2.422   1.183  -0.015  0.00  0.00    +0.270 C 
BRANCH  14  17
ATOM     15  O   LIG    1        0.002  -0.004   0.002  0.00  0.00    -0.540 OA
ATOM     16  C   LIG    1       -0.014   1.209   0.009  0.00  0.00    +0.650 C 
ATOM     17  N   LIG    1        1.143   1.898   0.001  0.00  0.00    -0.740 N 
ATOM     18  H   LIG    1        1.130   2.868   0.007  0.00  0.00    +0.410 HD
ENDBRANCH  14  17
ENDBRANCH  13  14
ENDBRANCH   1  13
TORSDOF 5
ENDMDL
MODEL      139
REMARK  Name = ZINC000217404391
REMARK                            x       y       z     vdW  Elec       q    Type
REMARK                         _______ _______ _______ _____ _____    ______ ____
ROOT
ATOM      1  N   LIG    1        4.853   1.476  -0.036  0.00  0.00    -0.480 N 
ATOM      2  H   LIG    1        4.907   0.901  -0.864  0.00  0.00    +0.440 HD
ATOM      3  H   LIG    1        4.922   0.892   0.784  0.00  0.00    +0.440 HD
ENDROOT
BRANCH   1   4
ATOM      4  C   LIG    1        5.957   2.446  -0.042  0.00  0.00    +0.210 C 
ATOM      5  C   LIG    1        5.971   3.227   1.298  0.00  0.00    -0.300 C 
ATOM      6  S   LIG    1        7.679   3.909   1.295  0.00  0.00    +2.410 S 
ATOM      7  C   LIG    1        8.444   2.446   0.499  0.00  0.00    -0.300 C 
ATOM      8  O   LIG    1        8.147   4.029   2.631  0.00  0.00    -0.890 OA
ATOM      9  O   LIG    1        7.746   5.021   0.414  0.00  0.00    -0.900 OA
ATOM     10  C   LIG    1        7.289   1.708  -0.190  0.00  0.00    +0.210 C 
BRANCH  10  11
ATOM     11  O   LIG    1        7.164   0.405   0.382  0.00  0.00    -0.580 OA
ATOM     12  H   LIG    1        7.947  -0.151   0.269  0.00  0.00    +0.420 HD
ENDBRANCH  10  11
ENDBRANCH   1   4
BRANCH   1  13
ATOM     13  C   LIG    1        3.571   2.193  -0.020  0.00  0.00    +0.250 C 
BRANCH  13  14
ATOM     14  C   LIG    1        2.422   1.183  -0.015  0.00  0.00    +0.270 C 
BRANCH  14  17
ATOM     15  O   LIG    1        0.002  -0.004   0.002  0.00  0.00    -0.540 OA
ATOM     16  C   LIG    1       -0.014   1.209   0.009  0.00  0.00    +0.650 C 
ATOM     17  N   LIG    1        1.143   1.898   0.001  0.00  0.00    -0.740 N 
ATOM     18  H   LIG    1        1.130   2.868   0.007  0.00  0.00    +0.410 HD
ENDBRANCH  14  17
ENDBRANCH  13  14
ENDBRANCH   1  13
TORSDOF 5
ENDMDL
MODEL      140
REMARK  Name = ZINC000217404465
REMARK                            x       y       z     vdW  Elec       q    Type
REMARK                         _______ _______ _______ _____ _____    ______ ____
ROOT
ATOM      1  N   LIG    1        4.853   1.476  -0.036  0.00  0.00    -0.490 N 
ATOM      2  H   LIG    1        4.907   0.901  -0.864  0.00  0.00    +0.440 HD
ATOM      3  H   LIG    1        4.922   0.892   0.784  0.00  0.00    +0.430 HD
ENDROOT
BRANCH   1   4
ATOM      4  C   LIG    1        5.957   2.446  -0.042  0.00  0.00    +0.210 C 
ATOM      5  C   LIG    1        5.971   3.227   1.298  0.00  0.00    -0.300 C 
ATOM      6  S   LIG    1        7.679   3.909   1.295  0.00  0.00    +2.420 S 
ATOM      7  C   LIG    1        8.444   2.446   0.499  0.00  0.00    -0.300 C 
ATOM      8  O   LIG    1        8.147   4.029   2.631  0.00  0.00    -0.890 OA
ATOM      9  O   LIG    1        7.746   5.021   0.414  0.00  0.00    -0.890 OA
ATOM     10  C   LIG    1        7.289   1.708  -0.190  0.00  0.00    +0.200 C 
BRANCH  10  11
ATOM     11  O   LIG    1        7.586   1.579  -1.582  0.00  0.00    -0.550 OA
ATOM     12  H   LIG    1        8.385   1.067  -1.767  0.00  0.00    +0.410 HD
ENDBRANCH  10  11
ENDBRANCH   1   4
BRANCH   1  13
ATOM     13  C   LIG    1        3.571   2.193  -0.020  0.00  0.00    +0.260 C 
BRANCH  13  14
ATOM     14  C   LIG    1        2.422   1.183  -0.015  0.00  0.00    +0.270 C 
BRANCH  14  17
ATOM     15  O   LIG    1        0.002  -0.004   0.002  0.00  0.00    -0.540 OA
ATOM     16  C   LIG    1       -0.014   1.209   0.009  0.00  0.00    +0.650 C 
ATOM     17  N   LIG    1        1.143   1.898   0.001  0.00  0.00    -0.740 N 
ATOM     18  H   LIG    1        1.130   2.868   0.007  0.00  0.00    +0.410 HD
ENDBRANCH  14  17
ENDBRANCH  13  14
ENDBRANCH   1  13
TORSDOF 5
ENDMDL
MODEL      141
REMARK  Name = ZINC000217399724
REMARK                            x       y       z     vdW  Elec       q    Type
REMARK                         _______ _______ _______ _____ _____    ______ ____
ROOT
ATOM      1  N   LIG    1        6.010   2.416  -0.042  0.00  0.00    -0.500 N 
ATOM      2  H   LIG    1        5.957   2.991   0.785  0.00  0.00    +0.440 HD
ATOM      3  H   LIG    1        5.941   3.000  -0.863  0.00  0.00    +0.430 HD
ENDROOT
BRANCH   1   4
ATOM      4  C   LIG    1        7.292   1.699  -0.058  0.00  0.00    +0.200 C 
ATOM      5  C   LIG    1        7.444   0.942  -1.389  0.00  0.00    +0.090 C 
ATOM      6  C   LIG    1        8.926   0.494  -1.478  0.00  0.00    -0.280 C 
ATOM      7  S   LIG    1        9.827   1.977  -0.887  0.00  0.00    +2.410 S 
ATOM      8  O   LIG    1       10.129   2.816  -1.994  0.00  0.00    -0.900 OA
ATOM      9  O   LIG    1       10.861   1.578   0.001  0.00  0.00    -0.900 OA
ATOM     10  C   LIG    1        8.451   2.707   0.069  0.00  0.00    -0.320 C 
ENDBRANCH   1   4
BRANCH   1  11
ATOM     11  C   LIG    1        4.907   1.446  -0.037  0.00  0.00    +0.270 C 
BRANCH  11  12
ATOM     12  C   LIG    1        3.571   2.193  -0.020  0.00  0.00    +0.040 C 
BRANCH  12  13
ATOM     13  C   LIG    1        2.422   1.183  -0.015  0.00  0.00    +0.280 C 
BRANCH  13  16
ATOM     14  O   LIG    1        0.002  -0.004   0.002  0.00  0.00    -0.540 OA
ATOM     15  C   LIG    1       -0.014   1.209   0.009  0.00  0.00    +0.640 C 
ATOM     16  N   LIG    1        1.143   1.898   0.001  0.00  0.00    -0.750 N 
ATOM     17  H   LIG    1        1.130   2.868   0.007  0.00  0.00    +0.410 HD
ENDBRANCH  13  16
ENDBRANCH  12  13
ENDBRANCH  11  12
ENDBRANCH   1  11
TORSDOF 5
ENDMDL
MODEL      142
REMARK  Name = ZINC000217399649
REMARK                            x       y       z     vdW  Elec       q    Type
REMARK                         _______ _______ _______ _____ _____    ______ ____
ROOT
ATOM      1  N   LIG    1        6.010   2.416  -0.042  0.00  0.00    -0.500 N 
ATOM      2  H   LIG    1        5.957   2.991   0.785  0.00  0.00    +0.430 HD
ATOM      3  H   LIG    1        5.941   3.000  -0.863  0.00  0.00    +0.440 HD
ENDROOT
BRANCH   1   4
ATOM      4  C   LIG    1        7.292   1.699  -0.058  0.00  0.00    +0.200 C 
ATOM      5  C   LIG    1        7.490   0.943   1.267  0.00  0.00    +0.090 C 
ATOM      6  C   LIG    1        8.960   0.491   1.364  0.00  0.00    -0.270 C 
ATOM      7  S   LIG    1        9.900   1.715   0.383  0.00  0.00    +2.410 S 
ATOM      8  O   LIG    1       10.491   1.069  -0.736  0.00  0.00    -0.900 OA
ATOM      9  O   LIG    1       10.705   2.498   1.254  0.00  0.00    -0.900 OA
ATOM     10  C   LIG    1        8.463   2.708  -0.174  0.00  0.00    -0.310 C 
ENDBRANCH   1   4
BRANCH   1  11
ATOM     11  C   LIG    1        4.907   1.446  -0.037  0.00  0.00    +0.270 C 
BRANCH  11  12
ATOM     12  C   LIG    1        3.571   2.193  -0.020  0.00  0.00    +0.040 C 
BRANCH  12  13
ATOM     13  C   LIG    1        2.422   1.183  -0.015  0.00  0.00    +0.280 C 
BRANCH  13  16
ATOM     14  O   LIG    1        0.002  -0.004   0.002  0.00  0.00    -0.540 OA
ATOM     15  C   LIG    1       -0.014   1.209   0.009  0.00  0.00    +0.640 C 
ATOM     16  N   LIG    1        1.143   1.898   0.001  0.00  0.00    -0.750 N 
ATOM     17  H   LIG    1        1.130   2.868   0.007  0.00  0.00    +0.410 HD
ENDBRANCH  13  16
ENDBRANCH  12  13
ENDBRANCH  11  12
ENDBRANCH   1  11
TORSDOF 5
ENDMDL
MODEL      143
REMARK  Name = ZINC000217392875
REMARK                            x       y       z     vdW  Elec       q    Type
REMARK                         _______ _______ _______ _____ _____    ______ ____
ROOT
ATOM      1  N   LIG    1        4.853   1.476  -0.036  0.00  0.00    -0.500 N 
ATOM      2  H   LIG    1        4.907   0.901  -0.864  0.00  0.00    +0.440 HD
ATOM      3  H   LIG    1        4.922   0.892   0.784  0.00  0.00    +0.430 HD
ENDROOT
BRANCH   1   4
ATOM      4  C   LIG    1        5.957   2.446  -0.042  0.00  0.00    +0.200 C 
ATOM      5  C   LIG    1        5.971   3.221   1.288  0.00  0.00    +0.090 C 
ATOM      6  C   LIG    1        7.327   3.969   1.351  0.00  0.00    -0.280 C 
ATOM      7  S   LIG    1        8.508   2.706   0.742  0.00  0.00    +2.410 S 
ATOM      8  O   LIG    1        8.999   1.951   1.841  0.00  0.00    -0.900 OA
ATOM      9  O   LIG    1        9.420   3.312  -0.164  0.00  0.00    -0.900 OA
ATOM     10  C   LIG    1        7.299   1.703  -0.192  0.00  0.00    -0.320 C 
ENDBRANCH   1   4
BRANCH   1  11
ATOM     11  C   LIG    1        3.571   2.193  -0.020  0.00  0.00    +0.250 C 
BRANCH  11  12
ATOM     12  C   LIG    1        2.422   1.183  -0.015  0.00  0.00    +0.270 C 
BRANCH  12  15
ATOM     13  O   LIG    1        0.002  -0.004   0.002  0.00  0.00    -0.530 OA
ATOM     14  C   LIG    1       -0.014   1.209   0.009  0.00  0.00    +0.650 C 
ATOM     15  N   LIG    1        1.143   1.898   0.001  0.00  0.00    -0.740 N 
ATOM     16  H   LIG    1        1.130   2.868   0.007  0.00  0.00    +0.410 HD
ENDBRANCH  12  15
ENDBRANCH  11  12
ENDBRANCH   1  11
TORSDOF 4
ENDMDL
MODEL      144
REMARK  Name = ZINC000217404608
REMARK                            x       y       z     vdW  Elec       q    Type
REMARK                         _______ _______ _______ _____ _____    ______ ____
ROOT
ATOM      1  N   LIG    1        4.853   1.476  -0.036  0.00  0.00    -0.490 N 
ATOM      2  H   LIG    1        4.907   0.901  -0.864  0.00  0.00    +0.440 HD
ATOM      3  H   LIG    1        4.922   0.892   0.784  0.00  0.00    +0.440 HD
ENDROOT
BRANCH   1   4
ATOM      4  C   LIG    1        5.957   2.446  -0.042  0.00  0.00    +0.220 C 
ATOM      5  C   LIG    1        5.903   3.257  -1.352  0.00  0.00    -0.310 C 
ATOM      6  S   LIG    1        7.679   3.559  -1.719  0.00  0.00    +2.410 S 
ATOM      7  C   LIG    1        8.232   1.933  -1.064  0.00  0.00    -0.310 C 
ATOM      8  O   LIG    1        8.171   4.604  -0.892  0.00  0.00    -0.890 OA
ATOM      9  O   LIG    1        7.880   3.605  -3.125  0.00  0.00    -0.890 OA
ATOM     10  C   LIG    1        7.274   1.696   0.118  0.00  0.00    +0.210 C 
BRANCH  10  11
ATOM     11  O   LIG    1        7.000   0.298   0.220  0.00  0.00    -0.580 OA
ATOM     12  H   LIG    1        7.781  -0.245   0.391  0.00  0.00    +0.430 HD
ENDBRANCH  10  11
ENDBRANCH   1   4
BRANCH   1  13
ATOM     13  C   LIG    1        3.571   2.193  -0.020  0.00  0.00    +0.250 C 
BRANCH  13  14
ATOM     14  C   LIG    1        2.422   1.183  -0.015  0.00  0.00    +0.270 C 
BRANCH  14  17
ATOM     15  O   LIG    1        0.002  -0.004   0.002  0.00  0.00    -0.540 OA
ATOM     16  C   LIG    1       -0.014   1.209   0.009  0.00  0.00    +0.650 C 
ATOM     17  N   LIG    1        1.143   1.898   0.001  0.00  0.00    -0.740 N 
ATOM     18  H   LIG    1        1.130   2.868   0.007  0.00  0.00    +0.410 HD
ENDBRANCH  14  17
ENDBRANCH  13  14
ENDBRANCH   1  13
TORSDOF 5
ENDMDL
MODEL      145
REMARK  Name = ZINC000217392797
REMARK                            x       y       z     vdW  Elec       q    Type
REMARK                         _______ _______ _______ _____ _____    ______ ____
ROOT
ATOM      1  N   LIG    1        4.853   1.476  -0.036  0.00  0.00    -0.490 N 
ATOM      2  H   LIG    1        4.907   0.901  -0.864  0.00  0.00    +0.430 HD
ATOM      3  H   LIG    1        4.922   0.892   0.784  0.00  0.00    +0.440 HD
ENDROOT
BRANCH   1   4
ATOM      4  C   LIG    1        5.957   2.446  -0.042  0.00  0.00    +0.200 C 
ATOM      5  C   LIG    1        5.968   3.224  -1.369  0.00  0.00    +0.090 C 
ATOM      6  C   LIG    1        7.309   3.974  -1.491  0.00  0.00    -0.270 C 
ATOM      7  S   LIG    1        8.503   2.975  -0.529  0.00  0.00    +2.410 S 
ATOM      8  O   LIG    1        8.965   3.733   0.580  0.00  0.00    -0.900 OA
ATOM      9  O   LIG    1        9.438   2.376  -1.416  0.00  0.00    -0.900 OA
ATOM     10  C   LIG    1        7.315   1.704   0.051  0.00  0.00    -0.310 C 
ENDBRANCH   1   4
BRANCH   1  11
ATOM     11  C   LIG    1        3.571   2.193  -0.020  0.00  0.00    +0.250 C 
BRANCH  11  12
ATOM     12  C   LIG    1        2.422   1.183  -0.015  0.00  0.00    +0.270 C 
BRANCH  12  15
ATOM     13  O   LIG    1        0.002  -0.004   0.002  0.00  0.00    -0.530 OA
ATOM     14  C   LIG    1       -0.014   1.209   0.009  0.00  0.00    +0.650 C 
ATOM     15  N   LIG    1        1.143   1.898   0.001  0.00  0.00    -0.740 N 
ATOM     16  H   LIG    1        1.130   2.868   0.007  0.00  0.00    +0.410 HD
ENDBRANCH  12  15
ENDBRANCH  11  12
ENDBRANCH   1  11
TORSDOF 4
ENDMDL
MODEL      146
REMARK  Name = ZINC000217451513
REMARK                            x       y       z     vdW  Elec       q    Type
REMARK                         _______ _______ _______ _____ _____    ______ ____
ROOT
ATOM      1  C   LIG    1       -2.135   0.949   1.227  0.00  0.00    +0.010 C 
ATOM      2  C   LIG    1       -3.174   1.872   0.504  0.00  0.00    +0.050 C 
ATOM      3  C   LIG    1       -4.128   1.149   1.416  0.00  0.00    +0.000 C 
ATOM      4  C   LIG    1       -5.291   1.753   2.196  0.00  0.00    -0.290 C 
ATOM      5  S   LIG    1       -5.117   0.842   3.793  0.00  0.00    +2.370 S 
ATOM      6  C   LIG    1       -3.311   0.512   3.626  0.00  0.00    -0.300 C 
ATOM      7  O   LIG    1       -5.835  -0.382   3.722  0.00  0.00    -0.920 OA
ATOM      8  O   LIG    1       -5.338   1.735   4.876  0.00  0.00    -0.920 OA
ATOM      9  C   LIG    1       -2.940   1.357   2.425  0.00  0.00    +0.010 C 
ENDROOT
BRANCH   1  10
ATOM     10  C   LIG    1       -0.699   1.479   1.216  0.00  0.00    +0.280 C 
BRANCH  10  11
ATOM     11  N   LIG    1       -0.012   1.005   0.008  0.00  0.00    -0.640 N 
ATOM     12  H   LIG    1       -0.500   1.339  -0.810  0.00  0.00    +0.440 HD
ATOM     13  H   LIG    1        0.935   1.354   0.000  0.00  0.00    +0.440 HD
ATOM     14  H   LIG    1        0.002  -0.004   0.002  0.00  0.00    +0.430 HD
ENDBRANCH  10  11
ENDBRANCH   1  10
BRANCH   2  15
ATOM     15  C   LIG    1       -3.365   1.567  -0.983  0.00  0.00    +0.200 C 
BRANCH  15  16
ATOM     16  O   LIG    1       -2.359   2.243  -1.741  0.00  0.00    -0.590 OA
ATOM     17  H   LIG    1       -2.418   2.095  -2.694  0.00  0.00    +0.400 HD
ENDBRANCH  15  16
ENDBRANCH   2  15
TORSDOF 4
ENDMDL
MODEL      147
REMARK  Name = ZINC000100498598
REMARK                            x       y       z     vdW  Elec       q    Type
REMARK                         _______ _______ _______ _____ _____    ______ ____
ROOT
ATOM      1  C   LIG    1       -1.456   5.009   2.492  0.00  0.00    +0.460 C 
ATOM      2  O   LIG    1       -0.950   5.625   1.584  0.00  0.00    -0.490 OA
ENDROOT
BRANCH   1   3
ATOM      3  C   LIG    1       -1.436   3.502   2.483  0.00  0.00    +0.130 C 
BRANCH   3   4
ATOM      4  C   LIG    1       -0.720   3.008   1.225  0.00  0.00    +0.050 C 
BRANCH   4   5
ATOM      5  C   LIG    1       -0.699   1.479   1.216  0.00  0.00    +0.270 C 
BRANCH   5   6
ATOM      6  N   LIG    1       -0.012   1.005   0.008  0.00  0.00    -0.640 N 
ATOM      7  H   LIG    1       -0.500   1.339  -0.810  0.00  0.00    +0.440 HD
ATOM      8  H   LIG    1        0.935   1.354   0.000  0.00  0.00    +0.440 HD
ATOM      9  H   LIG    1        0.002  -0.004   0.002  0.00  0.00    +0.440 HD
ENDBRANCH   5   6
ENDBRANCH   4   5
ENDBRANCH   3   4
ENDBRANCH   1   3
BRANCH   1  10
ATOM     10  O   LIG    1       -2.037   5.666   3.507  0.00  0.00    -0.330 OA
BRANCH  10  11
ATOM     11  C   LIG    1       -2.019   7.117   3.449  0.00  0.00    +0.200 C 
ATOM     12  C   LIG    1       -2.053   7.718   4.870  0.00  0.00    +0.130 C 
ATOM     13  C   LIG    1       -3.338   8.517   4.886  0.00  0.00    +0.530 C 
ATOM     14  N   LIG    1       -3.942   8.404   3.697  0.00  0.00    -0.680 N 
ATOM     15  H   LIG    1       -4.784   8.840   3.492  0.00  0.00    +0.420 HD
ATOM     16  O   LIG    1       -3.754   9.158   5.827  0.00  0.00    -0.460 OA
ATOM     17  C   LIG    1       -3.287   7.640   2.809  0.00  0.00    +0.520 C 
ATOM     18  O   LIG    1       -3.654   7.405   1.678  0.00  0.00    -0.460 OA
ENDBRANCH  10  11
ENDBRANCH   1  10
TORSDOF 6
ENDMDL
MODEL      148
REMARK  Name = ZINC000034248194
REMARK                            x       y       z     vdW  Elec       q    Type
REMARK                         _______ _______ _______ _____ _____    ______ ____
ROOT
ATOM      1  C   LIG    1       -0.142   2.059   1.453  0.00  0.00    +0.180 C 
ATOM      2  C   LIG    1        0.042   3.348   2.291  0.00  0.00    +0.190 C 
ATOM      3  C   LIG    1       -0.291   2.854   3.722  0.00  0.00    +0.160 C 
ATOM      4  O   LIG    1        0.262   1.521   3.756  0.00  0.00    -0.310 OA
ATOM      5  C   LIG    1       -0.019   0.916   2.479  0.00  0.00    +0.440 C 
ENDROOT
BRANCH   5   6
ATOM      6  N   LIG    1        1.076   0.019   2.101  0.00  0.00    -0.570 N 
ATOM      7  C   LIG    1        0.828  -1.042   1.274  0.00  0.00    +0.300 A 
ATOM      8  C   LIG    1        1.837  -1.869   0.926  0.00  0.00    -0.050 A 
ATOM      9  C   LIG    1        3.137  -1.617   1.426  0.00  0.00    +0.540 A 
ATOM     10  N   LIG    1        3.341  -0.560   2.238  0.00  0.00    -0.660 N 
ATOM     11  H   LIG    1        4.229  -0.382   2.585  0.00  0.00    +0.440 HD
ATOM     12  O   LIG    1        4.064  -2.349   1.125  0.00  0.00    -0.480 OA
ATOM     13  C   LIG    1        2.317   0.250   2.566  0.00  0.00    +0.670 A 
ATOM     14  O   LIG    1        2.516   1.200   3.299  0.00  0.00    -0.480 OA
ENDBRANCH   5   6
BRANCH   1  15
ATOM     15  N   LIG    1        0.912   1.952   0.436  0.00  0.00    -0.620 N 
ATOM     16  H   LIG    1        0.872   2.754  -0.176  0.00  0.00    +0.450 HD
ATOM     17  H   LIG    1        1.814   1.920   0.888  0.00  0.00    +0.440 HD
ATOM     18  H   LIG    1        0.776   1.111  -0.103  0.00  0.00    +0.430 HD
ENDBRANCH   1  15
BRANCH   2  19
ATOM     19  O   LIG    1        1.389   3.818   2.213  0.00  0.00    -0.560 OA
ATOM     20  H   LIG    1        1.554   4.624   2.722  0.00  0.00    +0.420 HD
ENDBRANCH   2  19
BRANCH   3  21
ATOM     21  C   LIG    1        0.379   3.746   4.769  0.00  0.00    +0.220 C 
BRANCH  21  22
ATOM     22  O   LIG    1       -0.036   3.342   6.075  0.00  0.00    -0.560 OA
ATOM     23  H   LIG    1        0.351   3.866   6.790  0.00  0.00    +0.400 HD
ENDBRANCH  21  22
ENDBRANCH   3  21
TORSDOF 5
ENDMDL
MODEL      149
REMARK  Name = ZINC000001569726
REMARK                            x       y       z     vdW  Elec       q    Type
REMARK                         _______ _______ _______ _____ _____    ______ ____
ROOT
ATOM      1  CA  LYS A  1       -5.002   1.406   3.756  0.00  0.00    +0.180 C 
ENDROOT
BRANCH   1   2
ATOM      2  C   LYS A  1       -6.374   0.786   3.829  0.00  0.00    +0.480 C 
ATOM      3  N   GLY A  2       -6.520  -0.475   4.281  0.00  0.00    -0.660 N 
ATOM      4  H   GLY A  2       -5.742  -0.984   4.559  0.00  0.00    +0.420 HD
ATOM      5  O   LYS A  1       -7.346   1.422   3.481  0.00  0.00    -0.540 OA
BRANCH   3   6
ATOM      6  CA  GLY A  2       -7.853  -1.078   4.352  0.00  0.00    +0.200 C 
BRANCH   6   7
ATOM      7  C   GLY A  2       -7.742  -2.482   4.887  0.00  0.00    +0.490 C 
ATOM      8  OXT GLY A  2       -8.744  -3.163   5.025  0.00  0.00    -0.660 OA
ATOM      9  O   GLY A  2       -6.650  -2.938   5.181  0.00  0.00    -0.690 OA
ENDBRANCH   6   7
ENDBRANCH   3   6
ENDBRANCH   1   2
BRANCH   1  10
ATOM     10  N   LYS A  1       -5.128   2.869   3.706  0.00  0.00    -0.620 N 
ATOM     11  H1  LYS A  1       -5.660   3.133   2.890  0.00  0.00    +0.440 HD
ATOM     12  H2  LYS A  1       -4.210   3.284   3.657  0.00  0.00    +0.430 HD
ATOM     13  H3  LYS A  1       -5.600   3.194   4.536  0.00  0.00    +0.450 HD
ENDBRANCH   1  10
BRANCH   1  14
ATOM     14  CB  LYS A  1       -4.286   0.913   2.497  0.00  0.00    +0.080 C 
BRANCH  14  15
ATOM     15  CG  LYS A  1       -2.851   1.442   2.486  0.00  0.00    +0.040 C 
BRANCH  15  16
ATOM     16  CD  LYS A  1       -2.135   0.949   1.227  0.00  0.00    +0.030 C 
BRANCH  16  17
ATOM     17  CE  LYS A  1       -0.699   1.479   1.216  0.00  0.00    +0.260 C 
BRANCH  17  18
ATOM     18  NZ  LYS A  1       -0.012   1.005   0.008  0.00  0.00    -0.640 N 
ATOM     19  HZ1 LYS A  1       -0.500   1.339  -0.810  0.00  0.00    +0.440 HD
ATOM     20  HZ2 LYS A  1        0.935   1.354   0.000  0.00  0.00    +0.440 HD
ATOM     21  HZ3 LYS A  1        0.002  -0.004   0.002  0.00  0.00    +0.440 HD
ENDBRANCH  17  18
ENDBRANCH  16  17
ENDBRANCH  15  16
ENDBRANCH  14  15
ENDBRANCH   1  14
TORSDOF 9
ENDMDL
MODEL      150
REMARK  Name = ZINC000002579078
REMARK                            x       y       z     vdW  Elec       q    Type
REMARK                         _______ _______ _______ _____ _____    ______ ____
ROOT
ATOM      1  CA  LYS A  1       -5.002   1.406   3.756  0.00  0.00    +0.180 C 
ENDROOT
BRANCH   1   2
ATOM      2  C   LYS A  1       -6.449   0.988   3.707  0.00  0.00    +0.480 C 
ATOM      3  N   GLY A  2       -7.330   1.694   2.970  0.00  0.00    -0.660 N 
ATOM      4  H   GLY A  2       -7.033   2.470   2.471  0.00  0.00    +0.420 HD
ATOM      5  O   LYS A  1       -6.821   0.017   4.330  0.00  0.00    -0.540 OA
BRANCH   3   6
ATOM      6  CA  GLY A  2       -8.737   1.287   2.922  0.00  0.00    +0.200 C 
BRANCH   6   7
ATOM      7  C   GLY A  2       -9.504   2.234   2.036  0.00  0.00    +0.490 C 
ATOM      8  OXT GLY A  2      -10.699   2.072   1.861  0.00  0.00    -0.660 OA
ATOM      9  O   GLY A  2       -8.928   3.163   1.494  0.00  0.00    -0.690 OA
ENDBRANCH   6   7
ENDBRANCH   3   6
ENDBRANCH   1   2
BRANCH   1  10
ATOM     10  N   LYS A  1       -4.364   0.823   4.943  0.00  0.00    -0.620 N 
ATOM     11  H1  LYS A  1       -4.422  -0.184   4.895  0.00  0.00    +0.440 HD
ATOM     12  H2  LYS A  1       -4.836   1.148   5.773  0.00  0.00    +0.450 HD
ATOM     13  H3  LYS A  1       -3.395   1.103   4.975  0.00  0.00    +0.430 HD
ENDBRANCH   1  10
BRANCH   1  14
ATOM     14  CB  LYS A  1       -4.286   0.913   2.497  0.00  0.00    +0.080 C 
BRANCH  14  15
ATOM     15  CG  LYS A  1       -2.851   1.442   2.486  0.00  0.00    +0.040 C 
BRANCH  15  16
ATOM     16  CD  LYS A  1       -2.135   0.949   1.227  0.00  0.00    +0.030 C 
BRANCH  16  17
ATOM     17  CE  LYS A  1       -0.699   1.479   1.216  0.00  0.00    +0.260 C 
BRANCH  17  18
ATOM     18  NZ  LYS A  1       -0.012   1.005   0.008  0.00  0.00    -0.640 N 
ATOM     19  HZ1 LYS A  1       -0.500   1.339  -0.810  0.00  0.00    +0.440 HD
ATOM     20  HZ2 LYS A  1        0.935   1.354   0.000  0.00  0.00    +0.440 HD
ATOM     21  HZ3 LYS A  1        0.002  -0.004   0.002  0.00  0.00    +0.440 HD
ENDBRANCH  17  18
ENDBRANCH  16  17
ENDBRANCH  15  16
ENDBRANCH  14  15
ENDBRANCH   1  14
TORSDOF 9
ENDMDL
MODEL      151
REMARK  Name = ZINC000585263552
REMARK                            x       y       z     vdW  Elec       q    Type
REMARK                         _______ _______ _______ _____ _____    ______ ____
ROOT
ATOM      1  C   LIG    1        0.002  -0.004   0.002  0.00  0.00    +0.150 C 
ATOM      2  C   LIG    1        0.749  -0.489  -1.255  0.00  0.00    +0.030 C 
ATOM      3  C   LIG    1        0.427  -1.929  -1.567  0.00  0.00    +0.280 C 
ATOM      4  N   LIG    1       -0.653  -1.955  -2.572  0.00  0.00    -0.480 N 
ATOM      5  C   LIG    1       -1.928  -1.827  -2.018  0.00  0.00    +0.180 C 
ATOM      6  C   LIG    1       -2.117  -0.471  -1.307  0.00  0.00    +0.200 C 
ATOM      7  H   LIG    1       -0.607  -2.828  -3.075  0.00  0.00    +0.430 HD
ATOM      8  H   LIG    1       -0.507  -1.199  -3.224  0.00  0.00    +0.430 HD
ATOM      9  C   LIG    1       -1.448  -0.527   0.041  0.00  0.00    +0.170 C 
ENDROOT
BRANCH   6  10
ATOM     10  N   LIG    1       -3.551  -0.201  -1.136  0.00  0.00    -0.490 NA
ATOM     11  C   LIG    1       -4.174  -1.202  -0.258  0.00  0.00    +0.160 C 
ATOM     12  C   LIG    1       -5.651  -0.849  -0.060  0.00  0.00    +0.230 C 
ATOM     13  O   LIG    1       -6.293  -0.773  -1.335  0.00  0.00    -0.380 OA
ATOM     14  C   LIG    1       -5.712   0.192  -2.216  0.00  0.00    +0.240 C 
ATOM     15  C   LIG    1       -4.236  -0.150  -2.436  0.00  0.00    +0.140 C 
ENDBRANCH   6  10
BRANCH   1  16
ATOM     16  O   LIG    1       -0.017   1.425   0.010  0.00  0.00    -0.540 OA
ATOM     17  H   LIG    1        0.861   1.830   0.004  0.00  0.00    +0.390 HD
ENDBRANCH   1  16
BRANCH   9  18
ATOM     18  O   LIG    1       -2.198   0.267   0.963  0.00  0.00    -0.520 OA
ATOM     19  H   LIG    1       -1.831   0.284   1.857  0.00  0.00    +0.380 HD
ENDBRANCH   9  18
TORSDOF 3
ENDMDL
MODEL      152
REMARK  Name = ZINC000585263549
REMARK                            x       y       z     vdW  Elec       q    Type
REMARK                         _______ _______ _______ _____ _____    ______ ____
ROOT
ATOM      1  C   LIG    1       -0.699   1.479   1.216  0.00  0.00    +0.150 C 
ATOM      2  C   LIG    1       -0.720   3.008   1.225  0.00  0.00    +0.070 C 
ATOM      3  C   LIG    1        0.715   3.538   1.214  0.00  0.00    +0.020 C 
ATOM      4  C   LIG    1        1.455   3.031   2.453  0.00  0.00    +0.060 C 
ATOM      5  C   LIG    1        1.476   1.501   2.445  0.00  0.00    +0.180 C 
ATOM      6  C   LIG    1        0.041   0.972   2.456  0.00  0.00    +0.150 C 
ENDROOT
BRANCH   5   7
ATOM      7  N   LIG    1        2.187   1.015   3.635  0.00  0.00    -0.510 NA
ATOM      8  C   LIG    1        2.265  -0.455   3.638  0.00  0.00    +0.200 C 
ATOM      9  C   LIG    1        3.264  -0.891   4.712  0.00  0.00    +0.280 C 
ATOM     10  N   LIG    1        2.956  -0.235   5.979  0.00  0.00    -0.720 N 
ATOM     11  H   LIG    1        3.324  -0.607   6.795  0.00  0.00    +0.410 HD
ATOM     12  C   LIG    1        2.188   0.857   6.064  0.00  0.00    +0.520 C 
ATOM     13  O   LIG    1        2.008   1.357   7.154  0.00  0.00    -0.540 OA
ATOM     14  C   LIG    1        1.540   1.491   4.865  0.00  0.00    +0.220 C 
ENDBRANCH   5   7
BRANCH   1  15
ATOM     15  N   LIG    1       -0.012   1.005   0.008  0.00  0.00    -0.630 N 
ATOM     16  H   LIG    1       -0.500   1.339  -0.810  0.00  0.00    +0.440 HD
ATOM     17  H   LIG    1        0.935   1.354   0.000  0.00  0.00    +0.430 HD
ATOM     18  H   LIG    1        0.002  -0.004   0.002  0.00  0.00    +0.440 HD
ENDBRANCH   1  15
BRANCH   6  19
ATOM     19  O   LIG    1        0.060  -0.457   2.448  0.00  0.00    -0.550 OA
ATOM     20  H   LIG    1       -0.818  -0.862   2.454  0.00  0.00    +0.390 HD
ENDBRANCH   6  19
TORSDOF 3
ENDMDL
MODEL      153
REMARK  Name = ZINC000071614022
REMARK                            x       y       z     vdW  Elec       q    Type
REMARK                         _______ _______ _______ _____ _____    ______ ____
ROOT
ATOM      1  C   LIG    1       -2.224  -0.476   1.281  0.00  0.00    +0.100 C 
ENDROOT
BRANCH   1   2
ATOM      2  C   LIG    1       -3.205  -1.620   1.294  0.00  0.00    -0.070 A 
ATOM      3  C   LIG    1       -3.836  -2.134   0.221  0.00  0.00    +0.230 A 
ATOM      4  N   LIG    1       -4.630  -3.151   0.678  0.00  0.00    -0.560 N 
ATOM      5  H   LIG    1       -5.209  -3.714   0.141  0.00  0.00    +0.430 HD
ATOM      6  C   LIG    1       -4.457  -3.223   2.015  0.00  0.00    +0.420 A 
ATOM      7  N   LIG    1       -3.599  -2.308   2.376  0.00  0.00    -0.500 NA
ENDBRANCH   1   2
BRANCH   1   8
ATOM      8  C   LIG    1       -1.412  -0.526   0.013  0.00  0.00    +0.360 C 
ATOM      9  O   LIG    1       -1.894  -0.983  -0.995  0.00  0.00    -0.380 OA
BRANCH   8  11
ATOM     10  C   LIG    1       -0.019   1.526   0.010  0.00  0.00    +0.130 C 
ATOM     11  C   LIG    1        0.002  -0.004   0.002  0.00  0.00    +0.160 C 
BRANCH  11  12
ATOM     12  N   LIG    1        0.690  -0.478  -1.207  0.00  0.00    -0.630 N 
ATOM     13  H   LIG    1        0.202  -0.144  -2.024  0.00  0.00    +0.440 HD
ATOM     14  H   LIG    1        0.703  -1.487  -1.212  0.00  0.00    +0.440 HD
ATOM     15  H   LIG    1        1.636  -0.129  -1.214  0.00  0.00    +0.440 HD
ENDBRANCH  11  12
ENDBRANCH   8  11
ENDBRANCH   1   8
BRANCH   1  16
ATOM     16  CA  LIG    1       -2.984   0.850   1.349  0.00  0.00    +0.090 C 
BRANCH  16  17
ATOM     17  N   LIG    1       -3.680   0.950   2.639  0.00  0.00    -0.610 N 
ATOM     18  H1  LIG    1       -4.181   1.824   2.683  0.00  0.00    +0.440 HD
ATOM     19  H2  LIG    1       -3.006   0.910   3.389  0.00  0.00    +0.420 HD
ATOM     20  H3  LIG    1       -4.330   0.184   2.730  0.00  0.00    +0.440 HD
ENDBRANCH  16  17
BRANCH  16  21
ATOM     21  C   LIG    1       -3.991   0.909   0.229  0.00  0.00    +0.490 C 
ATOM     22  OXT LIG    1       -3.675   1.380  -0.850  0.00  0.00    -0.640 OA
ATOM     23  O   LIG    1       -5.121   0.486   0.403  0.00  0.00    -0.640 OA
ENDBRANCH  16  21
ENDBRANCH   1  16
TORSDOF 7
ENDMDL
MODEL      154
REMARK  Name = ZINC000072344415
REMARK                            x       y       z     vdW  Elec       q    Type
REMARK                         _______ _______ _______ _____ _____    ______ ____
ROOT
ATOM      1  C   LIG    1       -1.167  -2.159   0.542  0.00  0.00    -0.040 C 
ATOM      2  C   LIG    1       -0.356  -2.892  -0.518  0.00  0.00    +0.300 C 
ATOM      3  N   LIG    1        0.281  -3.975   0.185  0.00  0.00    -0.510 N 
ATOM      4  C   LIG    1       -0.470  -5.241  -0.028  0.00  0.00    +0.270 C 
ATOM      5  C   LIG    1       -1.993  -4.987  -0.018  0.00  0.00    +0.330 C 
ATOM      6  N   LIG    1       -2.491  -4.086   0.984  0.00  0.00    -1.010 NA
ATOM      7  H   LIG    1        0.305  -3.765   1.171  0.00  0.00    +0.420 HD
ATOM      8  H   LIG    1        1.225  -4.085  -0.156  0.00  0.00    +0.440 HD
ATOM      9  C   LIG    1       -2.555  -2.617   0.663  0.00  0.00    +0.370 C 
ENDROOT
BRANCH   1  12
ATOM     10  C   LIG    1       -0.079   1.484   0.106  0.00  0.00    +0.310 C 
ATOM     11  N   LIG    1       -0.047   0.037   0.331  0.00  0.00    -0.620 N 
ATOM     12  C   LIG    1       -1.176  -0.690   0.207  0.00  0.00    +0.510 C 
ATOM     13  O   LIG    1       -2.198  -0.161  -0.174  0.00  0.00    -0.500 OA
ATOM     14  C   LIG    1        1.212  -0.621   0.689  0.00  0.00    +0.270 C 
ENDBRANCH   1  12
BRANCH   6  15
ATOM     15  S   LIG    1       -2.985  -4.653   2.460  0.00  0.00    +2.600 S 
ATOM     16  O   LIG    1       -3.371  -5.997   2.207  0.00  0.00    -0.930 OA
ATOM     17  O   LIG    1       -3.930  -3.691   2.906  0.00  0.00    -0.920 OA
ATOM     18  C   LIG    1       -1.491  -4.603   3.487  0.00  0.00    -0.280 C 
ENDBRANCH   6  15
TORSDOF 2
ENDMDL
MODEL      155
REMARK  Name = ZINC000072344416
REMARK                            x       y       z     vdW  Elec       q    Type
REMARK                         _______ _______ _______ _____ _____    ______ ____
ROOT
ATOM      1  C   LIG    1       -1.135  -2.201   0.001  0.00  0.00    -0.010 C 
ATOM      2  C   LIG    1       -0.404  -2.702   1.227  0.00  0.00    +0.270 C 
ATOM      3  N   LIG    1        0.304  -3.936   0.895  0.00  0.00    -0.480 N 
ATOM      4  C   LIG    1       -0.454  -5.118   1.051  0.00  0.00    +0.230 C 
ATOM      5  C   LIG    1       -1.649  -5.121   0.070  0.00  0.00    +0.350 C 
ATOM      6  N   LIG    1       -2.626  -4.133   0.481  0.00  0.00    -1.010 NA
ATOM      7  H   LIG    1        1.120  -4.004   1.484  0.00  0.00    +0.430 HD
ATOM      8  H   LIG    1        0.610  -3.879  -0.065  0.00  0.00    +0.430 HD
ATOM      9  C   LIG    1       -2.580  -2.734   0.012  0.00  0.00    +0.340 C 
ENDROOT
BRANCH   1  12
ATOM     10  C   LIG    1       -0.018   1.461   0.010  0.00  0.00    +0.310 C 
ATOM     11  N   LIG    1        0.002  -0.004   0.002  0.00  0.00    -0.620 N 
ATOM     12  C   LIG    1       -1.156  -0.694   0.009  0.00  0.00    +0.510 C 
ATOM     13  O   LIG    1       -2.214  -0.102   0.023  0.00  0.00    -0.490 OA
ATOM     14  C   LIG    1        1.281  -0.719  -0.014  0.00  0.00    +0.270 C 
ENDBRANCH   1  12
BRANCH   6  15
ATOM     15  S   LIG    1       -3.836  -4.590   1.514  0.00  0.00    +2.590 S 
ATOM     16  O   LIG    1       -3.986  -5.984   1.284  0.00  0.00    -0.930 OA
ATOM     17  O   LIG    1       -4.894  -3.683   1.237  0.00  0.00    -0.920 OA
ATOM     18  C   LIG    1       -3.157  -4.288   3.169  0.00  0.00    -0.280 C 
ENDBRANCH   6  15
TORSDOF 2
ENDMDL
MODEL      156
REMARK  Name = ZINC000242687739
REMARK                            x       y       z     vdW  Elec       q    Type
REMARK                         _______ _______ _______ _____ _____    ______ ____
ROOT
ATOM      1  C   LIG    1       -2.179   1.048   1.195  0.00  0.00    -0.020 C 
ATOM      2  C   LIG    1       -2.947   1.554   2.418  0.00  0.00    +0.080 C 
ATOM      3  C   LIG    1       -2.109   1.831   3.668  0.00  0.00    -0.280 C 
ATOM      4  S   LIG    1       -1.037   3.238   3.212  0.00  0.00    +2.380 S 
ATOM      5  C   LIG    1       -1.990   3.805   1.762  0.00  0.00    -0.300 C 
ATOM      6  O   LIG    1        0.225   2.745   2.783  0.00  0.00    -0.950 OA
ATOM      7  O   LIG    1       -1.101   4.226   4.231  0.00  0.00    -0.910 OA
ATOM      8  C   LIG    1       -3.168   2.861   1.650  0.00  0.00    +0.030 C 
ATOM      9  C   LIG    1       -3.073   1.993   0.370  0.00  0.00    +0.030 C 
ENDROOT
BRANCH   1  10
ATOM     10  C   LIG    1       -0.700   1.437   1.191  0.00  0.00    +0.260 C 
BRANCH  10  11
ATOM     11  N   LIG    1       -0.066   0.941  -0.038  0.00  0.00    -0.630 N 
ATOM     12  H   LIG    1       -0.585   1.268  -0.840  0.00  0.00    +0.430 HD
ATOM     13  H   LIG    1        0.882   1.283  -0.089  0.00  0.00    +0.450 HD
ATOM     14  H   LIG    1       -0.061  -0.068  -0.030  0.00  0.00    +0.440 HD
ENDBRANCH  10  11
ENDBRANCH   1  10
BRANCH   9  15
ATOM     15  C   LIG    1       -2.374   2.693  -0.797  0.00  0.00    +0.160 C 
BRANCH  15  16
ATOM     16  O   LIG    1       -3.106   3.866  -1.157  0.00  0.00    -0.550 OA
ATOM     17  H   LIG    1       -2.720   4.361  -1.892  0.00  0.00    +0.390 HD
ENDBRANCH  15  16
ENDBRANCH   9  15
TORSDOF 4
ENDMDL
MODEL      157
REMARK  Name = ZINC000242687740
REMARK                            x       y       z     vdW  Elec       q    Type
REMARK                         _______ _______ _______ _____ _____    ______ ____
ROOT
ATOM      1  C   LIG    1       -2.135   0.949   1.227  0.00  0.00    -0.030 C 
ATOM      2  C   LIG    1       -3.131   1.839   0.461  0.00  0.00    +0.010 C 
ATOM      3  C   LIG    1       -4.146   1.502   1.576  0.00  0.00    +0.030 C 
ATOM      4  C   LIG    1       -4.857   0.167   1.304  0.00  0.00    -0.300 C 
ATOM      5  S   LIG    1       -4.284  -0.985   2.599  0.00  0.00    +2.400 S 
ATOM      6  C   LIG    1       -3.171   0.170   3.473  0.00  0.00    -0.300 C 
ATOM      7  O   LIG    1       -3.514  -2.018   2.000  0.00  0.00    -0.930 OA
ATOM      8  O   LIG    1       -5.374  -1.317   3.447  0.00  0.00    -0.920 OA
ATOM      9  C   LIG    1       -2.922   1.326   2.484  0.00  0.00    +0.070 C 
ENDROOT
BRANCH   1  10
ATOM     10  C   LIG    1       -0.699   1.479   1.216  0.00  0.00    +0.290 C 
BRANCH  10  11
ATOM     11  N   LIG    1       -0.012   1.005   0.008  0.00  0.00    -0.630 N 
ATOM     12  H   LIG    1       -0.500   1.339  -0.810  0.00  0.00    +0.440 HD
ATOM     13  H   LIG    1        0.935   1.354   0.000  0.00  0.00    +0.440 HD
ATOM     14  H   LIG    1        0.002  -0.004   0.002  0.00  0.00    +0.440 HD
ENDBRANCH  10  11
ENDBRANCH   1  10
BRANCH   2  15
ATOM     15  C   LIG    1       -2.729   3.315   0.417  0.00  0.00    +0.210 C 
BRANCH  15  16
ATOM     16  O   LIG    1       -1.819   3.529  -0.664  0.00  0.00    -0.590 OA
ATOM     17  H   LIG    1       -1.522   4.445  -0.752  0.00  0.00    +0.400 HD
ENDBRANCH  15  16
ENDBRANCH   2  15
TORSDOF 4
ENDMDL
MODEL      158
REMARK  Name = ZINC000226131552
REMARK                            x       y       z     vdW  Elec       q    Type
REMARK                         _______ _______ _______ _____ _____    ______ ____
ROOT
ATOM      1  C   LIG    1       -0.699   1.479   1.216  0.00  0.00    +0.170 C 
ATOM      2  C   LIG    1       -0.671   3.028   1.301  0.00  0.00    +0.070 C 
ATOM      3  C   LIG    1       -0.773   3.293   2.818  0.00  0.00    +0.310 C 
ATOM      4  N   LIG    1       -0.317   2.076   3.505  0.00  0.00    -0.610 N 
ATOM      5  C   LIG    1       -0.275   1.897   4.840  0.00  0.00    +0.620 C 
ATOM      6  O   LIG    1        0.122   0.844   5.300  0.00  0.00    -0.500 OA
ATOM      7  C   LIG    1        0.084   1.082   2.492  0.00  0.00    +0.290 C 
ENDROOT
BRANCH   5   8
ATOM      8  C   LIG    1       -0.711   2.982   5.746  0.00  0.00    +0.020 A 
ATOM      9  N   LIG    1       -1.144   4.117   5.247  0.00  0.00    -0.180 NA
ATOM     10  N   LIG    1       -1.534   5.088   5.990  0.00  0.00    -0.440 N 
ATOM     11  H   LIG    1       -1.845   5.907   5.572  0.00  0.00    +0.450 HD
ATOM     12  C   LIG    1       -1.522   5.003   7.333  0.00  0.00    +0.480 A 
ATOM     13  C   LIG    1       -1.070   3.816   7.952  0.00  0.00    +0.010 A 
ATOM     14  O   LIG    1       -1.899   5.944   8.012  0.00  0.00    -0.500 OA
ATOM     15  C   LIG    1       -0.665   2.791   7.148  0.00  0.00    +0.130 A 
ENDBRANCH   5   8
BRANCH   1  16
ATOM     16  N   LIG    1       -0.012   1.005   0.008  0.00  0.00    -0.630 N 
ATOM     17  H   LIG    1       -0.500   1.339  -0.810  0.00  0.00    +0.440 HD
ATOM     18  H   LIG    1        0.935   1.354   0.000  0.00  0.00    +0.440 HD
ATOM     19  H   LIG    1        0.002  -0.004   0.002  0.00  0.00    +0.440 HD
ENDBRANCH   1  16
TORSDOF 2
ENDMDL
MODEL      159
REMARK  Name = ZINC000514290030
REMARK                            x       y       z     vdW  Elec       q    Type
REMARK                         _______ _______ _______ _____ _____    ______ ____
ROOT
ATOM      1  C   LIG    1       -0.018   1.503   0.010  0.00  0.00    +0.120 C 
ATOM      2  C   LIG    1        0.002  -0.004   0.002  0.00  0.00    +0.520 C 
ATOM      3  N   LIG    1       -1.156  -0.694   0.009  0.00  0.00    -0.630 N 
ATOM      4  C   LIG    1       -2.451  -0.007   0.019  0.00  0.00    +0.320 C 
ATOM      5  C   LIG    1       -3.306  -0.506   1.189  0.00  0.00    +0.170 C 
ATOM      6  C   LIG    1       -4.773  -0.106   0.871  0.00  0.00    +0.060 C 
ATOM      7  C   LIG    1       -5.351  -1.313   0.101  0.00  0.00    +0.190 C 
ATOM      8  C   LIG    1       -4.203  -2.350   0.059  0.00  0.00    +0.290 C 
ATOM      9  N   LIG    1       -3.334  -1.981   1.225  0.00  0.00    -0.360 N 
ATOM     10  C   LIG    1       -2.027  -2.605   1.177  0.00  0.00    +0.000 C 
ATOM     11  C   LIG    1       -1.275  -2.580   2.519  0.00  0.00    +0.240 C 
ATOM     12  N   LIG    1       -1.907  -3.891   2.784  0.00  0.00    -0.490 NA
ATOM     13  C   LIG    1       -0.946  -4.829   3.378  0.00  0.00    +0.200 C 
ATOM     14  C   LIG    1       -2.058  -4.135   1.332  0.00  0.00    +0.240 C 
ATOM     15  H   LIG    1       -3.798  -2.273   2.073  0.00  0.00    +0.430 HD
ATOM     16  C   LIG    1       -1.169  -2.168   0.002  0.00  0.00    +0.340 C 
ATOM     17  O   LIG    1        1.060  -0.596  -0.011  0.00  0.00    -0.510 OA
ENDROOT
BRANCH   7  18
ATOM     18  O   LIG    1       -5.721  -0.926  -1.224  0.00  0.00    -0.550 OA
ATOM     19  H   LIG    1       -6.406  -0.244  -1.257  0.00  0.00    +0.410 HD
ENDBRANCH   7  18
TORSDOF 1
ENDMDL
MODEL      160
REMARK  Name = ZINC000514290033
REMARK                            x       y       z     vdW  Elec       q    Type
REMARK                         _______ _______ _______ _____ _____    ______ ____
ROOT
ATOM      1  C   LIG    1       -0.018   1.503   0.010  0.00  0.00    +0.120 C 
ATOM      2  C   LIG    1        0.002  -0.004   0.002  0.00  0.00    +0.520 C 
ATOM      3  N   LIG    1       -1.156  -0.694   0.009  0.00  0.00    -0.640 N 
ATOM      4  C   LIG    1       -2.449   0.021   0.019  0.00  0.00    +0.330 C 
ATOM      5  C   LIG    1       -3.291  -0.579  -1.099  0.00  0.00    +0.170 C 
ATOM      6  C   LIG    1       -4.719  -0.032  -1.177  0.00  0.00    +0.060 C 
ATOM      7  C   LIG    1       -5.565  -1.249  -1.629  0.00  0.00    +0.200 C 
ATOM      8  C   LIG    1       -4.559  -2.429  -1.707  0.00  0.00    +0.280 C 
ATOM      9  N   LIG    1       -3.472  -2.026  -0.796  0.00  0.00    -0.380 N 
ATOM     10  C   LIG    1       -2.203  -2.703  -0.983  0.00  0.00    +0.010 C 
ATOM     11  C   LIG    1       -2.292  -4.234  -1.032  0.00  0.00    +0.240 C 
ATOM     12  N   LIG    1       -1.295  -4.153  -2.123  0.00  0.00    -0.460 NA
ATOM     13  C   LIG    1       -1.641  -5.067  -3.221  0.00  0.00    +0.200 C 
ATOM     14  C   LIG    1       -1.715  -2.768  -2.434  0.00  0.00    +0.210 C 
ATOM     15  H   LIG    1       -3.775  -2.127   0.161  0.00  0.00    +0.430 HD
ATOM     16  C   LIG    1       -1.143  -2.164   0.001  0.00  0.00    +0.360 C 
ATOM     17  O   LIG    1        1.060  -0.596  -0.011  0.00  0.00    -0.510 OA
ENDROOT
BRANCH   7  18
ATOM     18  O   LIG    1       -6.146  -1.003  -2.911  0.00  0.00    -0.550 OA
ATOM     19  H   LIG    1       -6.749  -0.247  -2.931  0.00  0.00    +0.410 HD
ENDBRANCH   7  18
TORSDOF 1
ENDMDL
MODEL      161
REMARK  Name = ZINC000026657838
REMARK                            x       y       z     vdW  Elec       q    Type
REMARK                         _______ _______ _______ _____ _____    ______ ____
ROOT
ATOM      1  C   LIG    1       -0.688   1.514   1.226  0.00  0.00    +0.190 C 
ATOM      2  C   LIG    1       -0.536   3.041   1.406  0.00  0.00    +0.180 C 
ATOM      3  C   LIG    1        0.211   3.188   2.750  0.00  0.00    +0.150 C 
ATOM      4  O   LIG    1       -0.081   1.971   3.470  0.00  0.00    -0.280 OA
ATOM      5  C   LIG    1       -0.017   0.916   2.483  0.00  0.00    +0.460 C 
ENDROOT
BRANCH   5   6
ATOM      6  N   LIG    1        1.378   0.568   2.199  0.00  0.00    -0.570 N 
ATOM      7  C   LIG    1        1.662  -0.358   1.232  0.00  0.00    +0.250 A 
ATOM      8  C   LIG    1        2.947  -0.678   0.970  0.00  0.00    -0.020 A 
ATOM      9  C   LIG    1        3.978  -0.046   1.706  0.00  0.00    +0.540 A 
ATOM     10  N   LIG    1        3.657   0.861   2.650  0.00  0.00    -0.660 N 
ATOM     11  H   LIG    1        4.358   1.299   3.158  0.00  0.00    +0.440 HD
ATOM     12  O   LIG    1        5.145  -0.318   1.487  0.00  0.00    -0.480 OA
ATOM     13  C   LIG    1        2.367   1.166   2.887  0.00  0.00    +0.680 A 
ATOM     14  O   LIG    1        2.093   1.986   3.741  0.00  0.00    -0.480 OA
ENDBRANCH   5   6
BRANCH   1  15
ATOM     15  N   LIG    1        0.005   1.067   0.011  0.00  0.00    -0.620 N 
ATOM     16  H   LIG    1       -0.363   1.563  -0.787  0.00  0.00    +0.450 HD
ATOM     17  H   LIG    1        0.992   1.255   0.098  0.00  0.00    +0.440 HD
ATOM     18  H   LIG    1       -0.139   0.076  -0.114  0.00  0.00    +0.430 HD
ENDBRANCH   1  15
BRANCH   2  19
ATOM     19  O   LIG    1        0.233   3.597   0.338  0.00  0.00    -0.570 OA
ATOM     20  H   LIG    1        0.360   4.553   0.401  0.00  0.00    +0.420 HD
ENDBRANCH   2  19
BRANCH   3  21
ATOM     21  C   LIG    1       -0.310   4.404   3.519  0.00  0.00    +0.210 C 
BRANCH  21  22
ATOM     22  O   LIG    1        0.471   4.591   4.701  0.00  0.00    -0.550 OA
ATOM     23  H   LIG    1        0.196   5.346   5.239  0.00  0.00    +0.390 HD
ENDBRANCH  21  22
ENDBRANCH   3  21
TORSDOF 5
ENDMDL
MODEL      162
REMARK  Name = ZINC000226236879
REMARK                            x       y       z     vdW  Elec       q    Type
REMARK                         _______ _______ _______ _____ _____    ______ ____
ROOT
ATOM      1  C   LIG    1       -0.699   1.479   1.216  0.00  0.00    +0.170 C 
ATOM      2  C   LIG    1       -2.135   0.897   1.304  0.00  0.00    +0.070 C 
ATOM      3  C   LIG    1       -2.417   0.899   2.821  0.00  0.00    +0.310 C 
ATOM      4  N   LIG    1       -1.117   0.912   3.507  0.00  0.00    -0.610 N 
ATOM      5  C   LIG    1       -0.933   0.936   4.842  0.00  0.00    +0.620 C 
ATOM      6  O   LIG    1        0.193   0.944   5.300  0.00  0.00    -0.500 OA
ATOM      7  C   LIG    1       -0.046   0.892   2.493  0.00  0.00    +0.290 C 
ENDROOT
BRANCH   5   8
ATOM      8  C   LIG    1       -2.101   0.955   5.748  0.00  0.00    +0.020 A 
ATOM      9  N   LIG    1       -3.317   0.941   5.251  0.00  0.00    -0.180 NA
ATOM     10  N   LIG    1       -4.363   0.956   5.995  0.00  0.00    -0.440 N 
ATOM     11  H   LIG    1       -5.239   0.945   5.579  0.00  0.00    +0.450 HD
ATOM     12  C   LIG    1       -4.277   0.986   7.338  0.00  0.00    +0.480 A 
ATOM     13  C   LIG    1       -3.006   1.002   7.955  0.00  0.00    +0.010 A 
ATOM     14  O   LIG    1       -5.290   0.999   8.018  0.00  0.00    -0.500 OA
ATOM     15  C   LIG    1       -1.906   0.981   7.151  0.00  0.00    +0.130 A 
ENDBRANCH   5   8
BRANCH   1  16
ATOM     16  N   LIG    1       -0.012   1.005   0.008  0.00  0.00    -0.630 N 
ATOM     17  H   LIG    1       -0.500   1.339  -0.810  0.00  0.00    +0.440 HD
ATOM     18  H   LIG    1        0.935   1.354   0.000  0.00  0.00    +0.440 HD
ATOM     19  H   LIG    1        0.002  -0.004   0.002  0.00  0.00    +0.440 HD
ENDBRANCH   1  16
TORSDOF 2
ENDMDL
MODEL      163
REMARK  Name = ZINC000004533994
REMARK                            x       y       z     vdW  Elec       q    Type
REMARK                         _______ _______ _______ _____ _____    ______ ____
ROOT
ATOM      1  CA  ARG A  1       -3.465  -1.164  -1.134  0.00  0.00    +0.180 C 
ENDROOT
BRANCH   1   4
ATOM      2  N   ALA A  2       -1.372  -0.511   0.012  0.00  0.00    -0.650 N 
ATOM      3  H   ALA A  2       -1.794  -0.752   0.852  0.00  0.00    +0.410 HD
ATOM      4  C   ARG A  1       -2.051  -0.643  -1.145  0.00  0.00    +0.480 C 
ATOM      5  O   ARG A  1       -1.524  -0.341  -2.194  0.00  0.00    -0.540 OA
BRANCH   2   7
ATOM      6  CB  ALA A  2       -0.019   1.526   0.010  0.00  0.00    +0.040 C 
ATOM      7  CA  ALA A  2        0.002  -0.004   0.002  0.00  0.00    +0.150 C 
BRANCH   7   8
ATOM      8  C   ALA A  2        0.731  -0.503   1.223  0.00  0.00    +0.490 C 
ATOM      9  OXT ALA A  2        1.937  -0.350   1.318  0.00  0.00    -0.660 OA
ATOM     10  O   ALA A  2        0.115  -1.060   2.115  0.00  0.00    -0.690 OA
ENDBRANCH   7   8
ENDBRANCH   2   7
ENDBRANCH   1   4
BRANCH   1  11
ATOM     11  N   ARG A  1       -3.813  -1.663  -2.471  0.00  0.00    -0.620 N 
ATOM     12  H1  ARG A  1       -3.736  -0.912  -3.141  0.00  0.00    +0.440 HD
ATOM     13  H2  ARG A  1       -4.759  -2.012  -2.464  0.00  0.00    +0.430 HD
ATOM     14  H3  ARG A  1       -3.182  -2.407  -2.727  0.00  0.00    +0.450 HD
ENDBRANCH   1  11
BRANCH   1  15
ATOM     15  CB  ARG A  1       -4.422  -0.036  -0.745  0.00  0.00    +0.100 C 
BRANCH  15  16
ATOM     16  CG  ARG A  1       -5.840  -0.593  -0.613  0.00  0.00    +0.030 C 
BRANCH  16  17
ATOM     17  CD  ARG A  1       -6.798   0.536  -0.224  0.00  0.00    +0.290 C 
BRANCH  17  18
ATOM     18  NE  ARG A  1       -8.156   0.002  -0.098  0.00  0.00    -0.700 N 
ATOM     19  HE  ARG A  1       -8.324  -0.940  -0.256  0.00  0.00    +0.440 HD
ATOM     20  CZ  ARG A  1       -9.188   0.832   0.245  0.00  0.00    +0.740 C 
BRANCH  20  21
ATOM     21  NH2 ARG A  1      -10.423   0.347   0.360  0.00  0.00    -0.790 N 
ATOM     22 HH21 ARG A  1      -10.591  -0.595   0.201  0.00  0.00    +0.440 HD
ATOM     23 HH22 ARG A  1      -11.155   0.936   0.603  0.00  0.00    +0.440 HD
ENDBRANCH  20  21
BRANCH  20  24
ATOM     24  NH1 ARG A  1       -8.957   2.126   0.462  0.00  0.00    -0.790 N 
ATOM     25 HH11 ARG A  1       -9.689   2.715   0.705  0.00  0.00    +0.440 HD
ATOM     26 HH12 ARG A  1       -8.058   2.479   0.378  0.00  0.00    +0.440 HD
ENDBRANCH  20  24
ENDBRANCH  17  18
ENDBRANCH  16  17
ENDBRANCH  15  16
ENDBRANCH   1  15
TORSDOF 10
ENDMDL
MODEL      164
REMARK  Name = ZINC000004533995
REMARK                            x       y       z     vdW  Elec       q    Type
REMARK                         _______ _______ _______ _____ _____    ______ ____
ROOT
ATOM      1  CA  ARG A  1        2.783  -1.099   2.395  0.00  0.00    +0.180 C 
ENDROOT
BRANCH   1   4
ATOM      2  N   ALA A  2        0.711  -0.489   1.189  0.00  0.00    -0.650 N 
ATOM      3  H   ALA A  2        0.213  -0.731   1.986  0.00  0.00    +0.410 HD
ATOM      4  C   ARG A  1        2.054  -0.600   1.174  0.00  0.00    +0.480 C 
ATOM      5  O   ARG A  1        2.676  -0.297   0.177  0.00  0.00    -0.540 OA
BRANCH   2   7
ATOM      6  CB  ALA A  2       -0.019   1.526   0.010  0.00  0.00    +0.050 C 
ATOM      7  CA  ALA A  2        0.002  -0.004   0.002  0.00  0.00    +0.150 C 
BRANCH   7   8
ATOM      8  C   ALA A  2       -1.412  -0.526   0.013  0.00  0.00    +0.490 C 
ATOM      9  OXT ALA A  2       -1.974  -0.742   1.073  0.00  0.00    -0.690 OA
ATOM     10  O   ALA A  2       -1.994  -0.731  -1.039  0.00  0.00    -0.660 OA
ENDBRANCH   7   8
ENDBRANCH   2   7
ENDBRANCH   1   4
BRANCH   1  11
ATOM     11  N   ARG A  1        4.192  -0.691   2.325  0.00  0.00    -0.620 N 
ATOM     12  H1  ARG A  1        4.615  -1.083   1.496  0.00  0.00    +0.440 HD
ATOM     13  H2  ARG A  1        4.680  -1.025   3.142  0.00  0.00    +0.430 HD
ATOM     14  H3  ARG A  1        4.249   0.316   2.287  0.00  0.00    +0.450 HD
ENDBRANCH   1  11
BRANCH   1  15
ATOM     15  CB  ARG A  1        2.696  -2.626   2.452  0.00  0.00    +0.100 C 
BRANCH  15  16
ATOM     16  CG  ARG A  1        3.327  -3.124   3.753  0.00  0.00    +0.030 C 
BRANCH  16  17
ATOM     17  CD  ARG A  1        3.240  -4.650   3.811  0.00  0.00    +0.290 C 
BRANCH  17  18
ATOM     18  NE  ARG A  1        3.844  -5.127   5.057  0.00  0.00    -0.700 N 
ATOM     19  HE  ARG A  1        4.217  -4.493   5.689  0.00  0.00    +0.440 HD
ATOM     20  CZ  ARG A  1        3.883  -6.467   5.329  0.00  0.00    +0.740 C 
BRANCH  20  21
ATOM     21  NH2 ARG A  1        4.432  -6.901   6.463  0.00  0.00    -0.790 N 
ATOM     22 HH21 ARG A  1        4.805  -6.267   7.095  0.00  0.00    +0.440 HD
ATOM     23 HH22 ARG A  1        4.459  -7.851   6.656  0.00  0.00    +0.440 HD
ENDBRANCH  20  21
BRANCH  20  24
ATOM     24  NH1 ARG A  1        3.370  -7.338   4.461  0.00  0.00    -0.790 N 
ATOM     25 HH11 ARG A  1        3.397  -8.289   4.655  0.00  0.00    +0.440 HD
ATOM     26 HH12 ARG A  1        2.970  -7.022   3.636  0.00  0.00    +0.440 HD
ENDBRANCH  20  24
ENDBRANCH  17  18
ENDBRANCH  16  17
ENDBRANCH  15  16
ENDBRANCH   1  15
TORSDOF 10
ENDMDL
MODEL      165
REMARK  Name = ZINC000095095743
REMARK                            x       y       z     vdW  Elec       q    Type
REMARK                         _______ _______ _______ _____ _____    ______ ____
ROOT
ATOM      1  C   LIG    1       -2.840   1.435   2.467  0.00  0.00    +0.150 A 
ATOM      2  N   LIG    1       -3.531   2.543   2.589  0.00  0.00    -0.450 NA
ATOM      3  C   LIG    1       -3.970   2.558   3.860  0.00  0.00    +0.200 A 
ATOM      4  N   LIG    1       -3.533   1.478   4.435  0.00  0.00    -0.350 NA
ATOM      5  O   LIG    1       -2.886   0.816   3.651  0.00  0.00    +0.100 OA
ENDROOT
BRANCH   1   6
ATOM      6  C   LIG    1       -2.135   0.949   1.227  0.00  0.00    +0.210 C 
BRANCH   6   7
ATOM      7  C   LIG    1       -0.699   1.479   1.216  0.00  0.00    +0.280 C 
BRANCH   7   8
ATOM      8  N   LIG    1       -0.012   1.005   0.008  0.00  0.00    -0.630 N 
ATOM      9  H   LIG    1       -0.500   1.339  -0.810  0.00  0.00    +0.440 HD
ATOM     10  H   LIG    1        0.935   1.354   0.000  0.00  0.00    +0.450 HD
ATOM     11  H   LIG    1        0.002  -0.004   0.002  0.00  0.00    +0.440 HD
ENDBRANCH   7   8
ENDBRANCH   6   7
ENDBRANCH   1   6
BRANCH   3  12
ATOM     12  C   LIG    1       -4.815   3.629   4.499  0.00  0.00    +0.200 C 
BRANCH  12  13
ATOM     13  C   LIG    1       -6.273   3.296   4.313  0.00  0.00    +0.530 C 
ATOM     14  N   LIG    1       -7.221   4.119   4.806  0.00  0.00    -0.610 N 
ATOM     15  C   LIG    1       -6.855   5.350   5.524  0.00  0.00    +0.260 C 
ATOM     16  C   LIG    1       -7.641   6.517   4.914  0.00  0.00    +0.220 C 
ATOM     17  O   LIG    1       -9.032   6.185   4.889  0.00  0.00    -0.370 OA
ATOM     18  C   LIG    1       -9.349   5.053   4.075  0.00  0.00    +0.220 C 
ATOM     19  C   LIG    1       -8.650   3.815   4.637  0.00  0.00    +0.260 C 
ATOM     20  O   LIG    1       -6.595   2.288   3.720  0.00  0.00    -0.530 OA
ENDBRANCH  12  13
ENDBRANCH   3  12
TORSDOF 5
ENDMDL
MODEL      166
REMARK  Name = ZINC000585295436
REMARK                            x       y       z     vdW  Elec       q    Type
REMARK                         _______ _______ _______ _____ _____    ______ ____
ROOT
ATOM      1  C   LIG    1       -0.634  -0.019   0.551  0.00  0.00    +0.100 C 
ATOM      2  C   LIG    1        0.034  -1.241   1.184  0.00  0.00    +0.190 C 
ATOM      3  C   LIG    1        0.536  -2.196   0.080  0.00  0.00    +0.160 C 
ATOM      4  C   LIG    1        2.034  -1.816  -0.055  0.00  0.00    +0.180 C 
ATOM      5  C   LIG    1        2.408  -1.489   1.412  0.00  0.00    +0.200 C 
ATOM      6  N   LIG    1        1.209  -0.820   1.970  0.00  0.00    -0.380 N 
ATOM      7  H   LIG    1        1.090  -1.087   2.935  0.00  0.00    +0.430 HD
ENDROOT
BRANCH   4   8
ATOM      8  O   LIG    1        2.799  -2.920  -0.545  0.00  0.00    -0.540 OA
ATOM      9  H   LIG    1        2.534  -3.223  -1.424  0.00  0.00    +0.400 HD
ENDBRANCH   4   8
BRANCH   3  10
ATOM     10  O   LIG    1        0.391  -3.558   0.486  0.00  0.00    -0.550 OA
ATOM     11  H   LIG    1        0.692  -4.199  -0.172  0.00  0.00    +0.400 HD
ENDBRANCH   3  10
BRANCH   5  12
ATOM     12  C   LIG    1        3.615  -0.549   1.457  0.00  0.00    +0.240 C 
BRANCH  12  13
ATOM     13  O   LIG    1        3.353   0.601   0.649  0.00  0.00    -0.580 OA
ATOM     14  H   LIG    1        4.077   1.241   0.631  0.00  0.00    +0.400 HD
ENDBRANCH  12  13
ENDBRANCH   5  12
BRANCH   6  15
ATOM     15  C   LIG    1        1.367   0.637   1.875  0.00  0.00    +0.370 C 
BRANCH  15  16
ATOM     16  C   LIG    1        0.257   1.313   2.638  0.00  0.00    -0.310 A 
ATOM     17  C   LIG    1       -0.583   2.256   2.153  0.00  0.00    +0.290 A 
ATOM     18  N   LIG    1       -1.428   2.604   3.145  0.00  0.00    -0.350 N 
ATOM     19  N   LIG    1       -1.097   1.850   4.278  0.00  0.00    -0.270 NA
ATOM     20  C   LIG    1       -2.503   3.595   3.054  0.00  0.00    +0.380 C 
ATOM     21  C   LIG    1       -0.090   1.072   3.971  0.00  0.00    +0.240 A 
ENDBRANCH  15  16
ENDBRANCH   6  15
TORSDOF 6
ENDMDL
MODEL      167
REMARK  Name = ZINC000169726408
REMARK                            x       y       z     vdW  Elec       q    Type
REMARK                         _______ _______ _______ _____ _____    ______ ____
ROOT
ATOM      1  C   LIG    1        0.679  -2.115   1.088  0.00  0.00    +0.230 C 
ENDROOT
BRANCH   1   2
ATOM      2  N   LIG    1        1.766  -2.526   1.987  0.00  0.00    -0.620 N 
ATOM      3  H   LIG    1        1.806  -3.534   2.027  0.00  0.00    +0.450 HD
ATOM      4  H   LIG    1        1.595  -2.160   2.911  0.00  0.00    +0.450 HD
ATOM      5  H   LIG    1        2.643  -2.168   1.639  0.00  0.00    +0.450 HD
ENDBRANCH   1   2
BRANCH   1   6
ATOM      6  C   LIG    1        0.618  -0.611   1.029  0.00  0.00    +0.460 C 
ATOM      7  O   LIG    1        1.124   0.049   1.905  0.00  0.00    -0.470 OA
BRANCH   6   9
ATOM      8  C   LIG    1       -0.018   1.448   0.010  0.00  0.00    +0.310 C 
ATOM      9  O   LIG    1        0.002  -0.004   0.002  0.00  0.00    -0.330 OA
ENDBRANCH   6   9
ENDBRANCH   1   6
BRANCH   1  10
ATOM     10  C   LIG    1       -0.651  -2.659   1.615  0.00  0.00    +0.410 C 
BRANCH  10  11
ATOM     11  N   LIG    1       -0.636  -4.123   1.561  0.00  0.00    -0.340 N 
ATOM     12  C   LIG    1       -0.875  -4.957   2.599  0.00  0.00    +0.190 A 
ATOM     13  C   LIG    1       -0.760  -6.213   2.108  0.00  0.00    -0.010 A 
ATOM     14  N   LIG    1       -0.459  -6.087   0.810  0.00  0.00    -0.230 NA
ATOM     15  N   LIG    1       -0.399  -4.836   0.516  0.00  0.00    -0.080 NA
BRANCH  13  16
ATOM     16  C   LIG    1       -0.935  -7.500   2.872  0.00  0.00    +0.320 C 
BRANCH  16  17
ATOM     17  O   LIG    1       -1.251  -7.205   4.234  0.00  0.00    -0.580 OA
ATOM     18  H   LIG    1       -1.378  -7.989   4.787  0.00  0.00    +0.400 HD
ENDBRANCH  16  17
ENDBRANCH  13  16
ENDBRANCH  10  11
ENDBRANCH   1  10
TORSDOF 7
ENDMDL
MODEL      168
REMARK  Name = ZINC000169726409
REMARK                            x       y       z     vdW  Elec       q    Type
REMARK                         _______ _______ _______ _____ _____    ______ ____
ROOT
ATOM      1  C   LIG    1        0.657  -2.104  -1.120  0.00  0.00    +0.210 C 
ENDROOT
BRANCH   1   2
ATOM      2  N   LIG    1        1.727  -2.505  -2.043  0.00  0.00    -0.620 N 
ATOM      3  H   LIG    1        1.539  -2.128  -2.960  0.00  0.00    +0.450 HD
ATOM      4  H   LIG    1        1.767  -3.512  -2.095  0.00  0.00    +0.440 HD
ATOM      5  H   LIG    1        2.611  -2.150  -1.709  0.00  0.00    +0.450 HD
ENDBRANCH   1   2
BRANCH   1   6
ATOM      6  C   LIG    1        0.598  -0.600  -1.043  0.00  0.00    +0.460 C 
ATOM      7  O   LIG    1        1.088   0.070  -1.921  0.00  0.00    -0.470 OA
BRANCH   6   9
ATOM      8  C   LIG    1       -0.018   1.448   0.010  0.00  0.00    +0.310 C 
ATOM      9  O   LIG    1        0.002  -0.004   0.002  0.00  0.00    -0.330 OA
ENDBRANCH   6   9
ENDBRANCH   1   6
BRANCH   1  10
ATOM     10  C   LIG    1       -0.682  -2.641  -1.627  0.00  0.00    +0.400 C 
BRANCH  10  11
ATOM     11  N   LIG    1       -0.587  -4.091  -1.815  0.00  0.00    -0.610 N 
ATOM     12  C   LIG    1       -0.198  -4.685  -2.961  0.00  0.00    +0.490 C 
ATOM     13  C   LIG    1       -0.252  -6.175  -2.687  0.00  0.00    +0.330 C 
ATOM     14  O   LIG    1       -0.702  -6.256  -1.301  0.00  0.00    -0.280 OA
ATOM     15  O   LIG    1        0.127  -4.141  -3.995  0.00  0.00    -0.440 OA
ATOM     16  C   LIG    1       -0.868  -4.996  -0.870  0.00  0.00    +0.640 C 
ATOM     17  O   LIG    1       -1.239  -4.708   0.251  0.00  0.00    -0.440 OA
ENDBRANCH  10  11
ENDBRANCH   1  10
TORSDOF 5
ENDMDL
MODEL      169
REMARK  Name = ZINC000169726411
REMARK                            x       y       z     vdW  Elec       q    Type
REMARK                         _______ _______ _______ _____ _____    ______ ____
ROOT
ATOM      1  C   LIG    1        0.657  -2.104  -1.120  0.00  0.00    +0.210 C 
ENDROOT
BRANCH   1   2
ATOM      2  N   LIG    1        0.902  -2.514  -2.509  0.00  0.00    -0.620 N 
ATOM      3  H   LIG    1        1.779  -2.126  -2.824  0.00  0.00    +0.450 HD
ATOM      4  H   LIG    1        0.154  -2.176  -3.096  0.00  0.00    +0.450 HD
ATOM      5  H   LIG    1        0.942  -3.520  -2.560  0.00  0.00    +0.440 HD
ENDBRANCH   1   2
BRANCH   1   6
ATOM      6  C   LIG    1        0.598  -0.600  -1.043  0.00  0.00    +0.460 C 
ATOM      7  O   LIG    1        1.088   0.070  -1.921  0.00  0.00    -0.470 OA
BRANCH   6   9
ATOM      8  C   LIG    1       -0.018   1.448   0.010  0.00  0.00    +0.310 C 
ATOM      9  O   LIG    1        0.002  -0.004   0.002  0.00  0.00    -0.330 OA
ENDBRANCH   6   9
ENDBRANCH   1   6
BRANCH   1  10
ATOM     10  C   LIG    1        1.792  -2.615  -0.229  0.00  0.00    +0.400 C 
BRANCH  10  11
ATOM     11  N   LIG    1        1.927  -4.065  -0.396  0.00  0.00    -0.610 N 
ATOM     12  C   LIG    1        1.268  -4.980   0.344  0.00  0.00    +0.500 C 
ATOM     13  C   LIG    1        1.718  -6.328  -0.181  0.00  0.00    +0.330 C 
ATOM     14  O   LIG    1        2.658  -5.991  -1.245  0.00  0.00    -0.280 OA
ATOM     15  O   LIG    1        0.480  -4.768   1.241  0.00  0.00    -0.410 OA
ATOM     16  C   LIG    1        2.715  -4.650  -1.305  0.00  0.00    +0.640 C 
ATOM     17  O   LIG    1        3.410  -4.038  -2.091  0.00  0.00    -0.470 OA
ENDBRANCH  10  11
ENDBRANCH   1  10
TORSDOF 5
ENDMDL
MODEL      170
REMARK  Name = ZINC000169726584
REMARK                            x       y       z     vdW  Elec       q    Type
REMARK                         _______ _______ _______ _____ _____    ______ ____
ROOT
ATOM      1  C   LIG    1       -0.651  -2.659   1.615  0.00  0.00    +0.290 C 
ATOM      2  C   LIG    1       -1.783  -2.231   0.679  0.00  0.00    +0.120 C 
ENDROOT
BRANCH   1   3
ATOM      3  N   LIG    1       -0.592  -4.122   1.673  0.00  0.00    -0.330 N 
ATOM      4  C   LIG    1       -0.848  -4.966   0.647  0.00  0.00    +0.200 A 
ATOM      5  C   LIG    1       -0.677  -6.217   1.137  0.00  0.00    -0.010 A 
ATOM      6  N   LIG    1       -0.330  -6.077   2.422  0.00  0.00    -0.220 NA
ATOM      7  N   LIG    1       -0.283  -4.824   2.707  0.00  0.00    -0.100 NA
BRANCH   5   8
ATOM      8  C   LIG    1       -0.844  -7.511   0.384  0.00  0.00    +0.320 C 
BRANCH   8   9
ATOM      9  O   LIG    1       -1.221  -7.231  -0.966  0.00  0.00    -0.580 OA
ATOM     10  H   LIG    1       -1.346  -8.020  -1.511  0.00  0.00    +0.400 HD
ENDBRANCH   8   9
ENDBRANCH   5   8
ENDBRANCH   1   3
BRANCH   1  11
ATOM     11  C   LIG    1        0.679  -2.115   1.088  0.00  0.00    +0.210 C 
BRANCH  11  12
ATOM     12  N   LIG    1        1.766  -2.526   1.987  0.00  0.00    -0.620 N 
ATOM     13  H   LIG    1        1.595  -2.160   2.911  0.00  0.00    +0.450 HD
ATOM     14  H   LIG    1        2.643  -2.168   1.639  0.00  0.00    +0.450 HD
ATOM     15  H   LIG    1        1.806  -3.534   2.027  0.00  0.00    +0.450 HD
ENDBRANCH  11  12
BRANCH  11  16
ATOM     16  C   LIG    1        0.618  -0.611   1.029  0.00  0.00    +0.460 C 
ATOM     17  O   LIG    1        1.124   0.049   1.905  0.00  0.00    -0.470 OA
BRANCH  16  19
ATOM     18  C   LIG    1       -0.018   1.448   0.010  0.00  0.00    +0.310 C 
ATOM     19  O   LIG    1        0.002  -0.004   0.002  0.00  0.00    -0.330 OA
ENDBRANCH  16  19
ENDBRANCH  11  16
ENDBRANCH   1  11
TORSDOF 7
ENDMDL
MODEL      171
REMARK  Name = ZINC000169726585
REMARK                            x       y       z     vdW  Elec       q    Type
REMARK                         _______ _______ _______ _____ _____    ______ ____
ROOT
ATOM      1  C   LIG    1        1.796  -2.618   0.171  0.00  0.00    +0.290 C 
ATOM      2  C   LIG    1        1.513  -2.175  -1.266  0.00  0.00    +0.120 C 
ENDROOT
BRANCH   1   3
ATOM      3  N   LIG    1        1.854  -4.080   0.229  0.00  0.00    -0.330 N 
ATOM      4  C   LIG    1        1.109  -4.934  -0.510  0.00  0.00    +0.200 A 
ATOM      5  C   LIG    1        1.483  -6.180  -0.139  0.00  0.00    -0.010 A 
ATOM      6  N   LIG    1        2.427  -6.031   0.797  0.00  0.00    -0.220 NA
ATOM      7  N   LIG    1        2.628  -4.774   0.988  0.00  0.00    -0.100 NA
BRANCH   5   8
ATOM      8  C   LIG    1        0.943  -7.481  -0.675  0.00  0.00    +0.320 C 
BRANCH   8   9
ATOM      9  O   LIG    1       -0.053  -7.212  -1.664  0.00  0.00    -0.580 OA
ATOM     10  H   LIG    1       -0.445  -8.006  -2.053  0.00  0.00    +0.400 HD
ENDBRANCH   8   9
ENDBRANCH   5   8
ENDBRANCH   1   3
BRANCH   1  11
ATOM     11  C   LIG    1        0.679  -2.115   1.088  0.00  0.00    +0.210 C 
BRANCH  11  12
ATOM     12  N   LIG    1        0.950  -2.540   2.468  0.00  0.00    -0.620 N 
ATOM     13  H   LIG    1        1.832  -2.156   2.771  0.00  0.00    +0.450 HD
ATOM     14  H   LIG    1        0.990  -3.548   2.508  0.00  0.00    +0.450 HD
ATOM     15  H   LIG    1        0.213  -2.209   3.073  0.00  0.00    +0.450 HD
ENDBRANCH  11  12
BRANCH  11  16
ATOM     16  C   LIG    1        0.618  -0.611   1.029  0.00  0.00    +0.460 C 
ATOM     17  O   LIG    1        1.124   0.049   1.905  0.00  0.00    -0.470 OA
BRANCH  16  19
ATOM     18  C   LIG    1       -0.018   1.448   0.010  0.00  0.00    +0.310 C 
ATOM     19  O   LIG    1        0.002  -0.004   0.002  0.00  0.00    -0.330 OA
ENDBRANCH  16  19
ENDBRANCH  11  16
ENDBRANCH   1  11
TORSDOF 7
ENDMDL
MODEL      172
REMARK  Name = ZINC000169726586
REMARK                            x       y       z     vdW  Elec       q    Type
REMARK                         _______ _______ _______ _____ _____    ______ ____
ROOT
ATOM      1  C   LIG    1        1.796  -2.618   0.171  0.00  0.00    +0.310 C 
ATOM      2  C   LIG    1        3.147  -2.137   0.703  0.00  0.00    +0.100 C 
ENDROOT
BRANCH   1   3
ATOM      3  N   LIG    1        1.777  -4.082   0.136  0.00  0.00    -0.320 N 
ATOM      4  C   LIG    1        2.374  -4.904   1.031  0.00  0.00    +0.130 A 
ATOM      5  C   LIG    1        2.106  -6.166   0.621  0.00  0.00    +0.010 A 
ATOM      6  N   LIG    1        1.368  -6.056  -0.490  0.00  0.00    -0.230 NA
ATOM      7  N   LIG    1        1.187  -4.808  -0.747  0.00  0.00    -0.050 NA
BRANCH   5   8
ATOM      8  C   LIG    1        2.551  -7.443   1.285  0.00  0.00    +0.310 C 
BRANCH   8   9
ATOM      9  O   LIG    1        3.321  -7.132   2.448  0.00  0.00    -0.580 OA
ATOM     10  H   LIG    1        3.641  -7.909   2.926  0.00  0.00    +0.400 HD
ENDBRANCH   8   9
ENDBRANCH   5   8
ENDBRANCH   1   3
BRANCH   1  11
ATOM     11  C   LIG    1        0.679  -2.115   1.088  0.00  0.00    +0.210 C 
BRANCH  11  12
ATOM     12  N   LIG    1        0.950  -2.540   2.468  0.00  0.00    -0.630 N 
ATOM     13  H   LIG    1        1.832  -2.156   2.771  0.00  0.00    +0.440 HD
ATOM     14  H   LIG    1        0.990  -3.548   2.508  0.00  0.00    +0.450 HD
ATOM     15  H   LIG    1        0.213  -2.209   3.073  0.00  0.00    +0.450 HD
ENDBRANCH  11  12
BRANCH  11  16
ATOM     16  C   LIG    1        0.618  -0.611   1.029  0.00  0.00    +0.460 C 
ATOM     17  O   LIG    1        1.124   0.049   1.905  0.00  0.00    -0.470 OA
BRANCH  16  19
ATOM     18  C   LIG    1       -0.018   1.448   0.010  0.00  0.00    +0.310 C 
ATOM     19  O   LIG    1        0.002  -0.004   0.002  0.00  0.00    -0.330 OA
ENDBRANCH  16  19
ENDBRANCH  11  16
ENDBRANCH   1  11
TORSDOF 7
ENDMDL
MODEL      173
REMARK  Name = ZINC000169726722
REMARK                            x       y       z     vdW  Elec       q    Type
REMARK                         _______ _______ _______ _____ _____    ______ ____
ROOT
ATOM      1  C   LIG    1        0.657  -2.104  -1.120  0.00  0.00    +0.220 C 
ENDROOT
BRANCH   1   2
ATOM      2  N   LIG    1        1.727  -2.505  -2.043  0.00  0.00    -0.620 N 
ATOM      3  H   LIG    1        2.611  -2.150  -1.709  0.00  0.00    +0.450 HD
ATOM      4  H   LIG    1        1.539  -2.128  -2.960  0.00  0.00    +0.450 HD
ATOM      5  H   LIG    1        1.767  -3.512  -2.095  0.00  0.00    +0.440 HD
ENDBRANCH   1   2
BRANCH   1   6
ATOM      6  C   LIG    1        0.598  -0.600  -1.043  0.00  0.00    +0.460 C 
ATOM      7  O   LIG    1        1.088   0.070  -1.921  0.00  0.00    -0.470 OA
BRANCH   6   9
ATOM      8  C   LIG    1       -0.018   1.448   0.010  0.00  0.00    +0.310 C 
ATOM      9  O   LIG    1        0.002  -0.004   0.002  0.00  0.00    -0.330 OA
ENDBRANCH   6   9
ENDBRANCH   1   6
BRANCH   1  10
ATOM     10  C   LIG    1       -0.682  -2.641  -1.627  0.00  0.00    +0.290 C 
ATOM     11  C   LIG    1       -1.776  -2.331  -0.603  0.00  0.00    +0.110 C 
BRANCH  10  12
ATOM     12  N   LIG    1       -0.587  -4.091  -1.815  0.00  0.00    -0.610 N 
ATOM     13  C   LIG    1       -0.772  -4.719  -2.994  0.00  0.00    +0.490 C 
ATOM     14  C   LIG    1       -0.575  -6.194  -2.706  0.00  0.00    +0.330 C 
ATOM     15  O   LIG    1       -0.275  -6.231  -1.278  0.00  0.00    -0.280 OA
ATOM     16  O   LIG    1       -1.041  -4.210  -4.061  0.00  0.00    -0.420 OA
ATOM     17  C   LIG    1       -0.298  -4.962  -0.840  0.00  0.00    +0.640 C 
ATOM     18  O   LIG    1       -0.087  -4.640   0.312  0.00  0.00    -0.450 OA
ENDBRANCH  10  12
ENDBRANCH   1  10
TORSDOF 5
ENDMDL
MODEL      174
REMARK  Name = ZINC000169726723
REMARK                            x       y       z     vdW  Elec       q    Type
REMARK                         _______ _______ _______ _____ _____    ______ ____
ROOT
ATOM      1  C   LIG    1        0.657  -2.104  -1.120  0.00  0.00    +0.210 C 
ENDROOT
BRANCH   1   2
ATOM      2  N   LIG    1        1.727  -2.505  -2.043  0.00  0.00    -0.610 N 
ATOM      3  H   LIG    1        2.611  -2.150  -1.709  0.00  0.00    +0.450 HD
ATOM      4  H   LIG    1        1.539  -2.128  -2.960  0.00  0.00    +0.450 HD
ATOM      5  H   LIG    1        1.767  -3.512  -2.095  0.00  0.00    +0.450 HD
ENDBRANCH   1   2
BRANCH   1   6
ATOM      6  C   LIG    1        0.598  -0.600  -1.043  0.00  0.00    +0.450 C 
ATOM      7  O   LIG    1        1.088   0.070  -1.921  0.00  0.00    -0.470 OA
BRANCH   6   9
ATOM      8  C   LIG    1       -0.018   1.448   0.010  0.00  0.00    +0.310 C 
ATOM      9  O   LIG    1        0.002  -0.004   0.002  0.00  0.00    -0.340 OA
ENDBRANCH   6   9
ENDBRANCH   1   6
BRANCH   1  10
ATOM     10  C   LIG    1       -0.682  -2.641  -1.627  0.00  0.00    +0.280 C 
ATOM     11  C   LIG    1       -0.622  -4.168  -1.705  0.00  0.00    +0.090 C 
BRANCH  10  12
ATOM     12  N   LIG    1       -1.749  -2.241  -0.706  0.00  0.00    -0.590 N 
ATOM     13  C   LIG    1       -2.812  -1.490  -1.055  0.00  0.00    +0.500 C 
ATOM     14  C   LIG    1       -3.635  -1.336   0.209  0.00  0.00    +0.340 C 
ATOM     15  O   LIG    1       -2.877  -2.081   1.209  0.00  0.00    -0.290 OA
ATOM     16  O   LIG    1       -3.059  -1.033  -2.150  0.00  0.00    -0.430 OA
ATOM     17  C   LIG    1       -1.796  -2.579   0.588  0.00  0.00    +0.660 C 
ATOM     18  O   LIG    1       -0.951  -3.255   1.141  0.00  0.00    -0.470 OA
ENDBRANCH  10  12
ENDBRANCH   1  10
TORSDOF 5
ENDMDL
MODEL      175
REMARK  Name = ZINC000169726407
REMARK                            x       y       z     vdW  Elec       q    Type
REMARK                         _______ _______ _______ _____ _____    ______ ____
ROOT
ATOM      1  C   LIG    1        0.679  -2.115   1.088  0.00  0.00    +0.220 C 
ENDROOT
BRANCH   1   2
ATOM      2  N   LIG    1        0.950  -2.540   2.468  0.00  0.00    -0.620 N 
ATOM      3  H   LIG    1        0.213  -2.209   3.073  0.00  0.00    +0.450 HD
ATOM      4  H   LIG    1        1.832  -2.156   2.771  0.00  0.00    +0.440 HD
ATOM      5  H   LIG    1        0.990  -3.548   2.508  0.00  0.00    +0.450 HD
ENDBRANCH   1   2
BRANCH   1   6
ATOM      6  C   LIG    1        0.618  -0.611   1.029  0.00  0.00    +0.460 C 
ATOM      7  O   LIG    1        1.124   0.049   1.905  0.00  0.00    -0.470 OA
BRANCH   6   9
ATOM      8  C   LIG    1       -0.018   1.448   0.010  0.00  0.00    +0.310 C 
ATOM      9  O   LIG    1        0.002  -0.004   0.002  0.00  0.00    -0.330 OA
ENDBRANCH   6   9
ENDBRANCH   1   6
BRANCH   1  10
ATOM     10  C   LIG    1        1.796  -2.618   0.171  0.00  0.00    +0.420 C 
BRANCH  10  11
ATOM     11  N   LIG    1        1.777  -4.082   0.136  0.00  0.00    -0.330 N 
ATOM     12  C   LIG    1        1.699  -4.848  -0.977  0.00  0.00    +0.230 A 
ATOM     13  C   LIG    1        1.712  -6.133  -0.552  0.00  0.00    -0.010 A 
ATOM     14  N   LIG    1        1.796  -6.091   0.783  0.00  0.00    -0.210 NA
ATOM     15  N   LIG    1        1.839  -4.862   1.159  0.00  0.00    -0.140 NA
BRANCH  13  16
ATOM     16  C   LIG    1        1.645  -7.368  -1.413  0.00  0.00    +0.320 C 
BRANCH  16  17
ATOM     17  O   LIG    1        1.563  -6.987  -2.787  0.00  0.00    -0.570 OA
ATOM     18  H   LIG    1        1.517  -7.733  -3.400  0.00  0.00    +0.400 HD
ENDBRANCH  16  17
ENDBRANCH  13  16
ENDBRANCH  10  11
ENDBRANCH   1  10
TORSDOF 7
ENDMDL
MODEL      176
REMARK  Name = ZINC000169726718
REMARK                            x       y       z     vdW  Elec       q    Type
REMARK                         _______ _______ _______ _____ _____    ______ ____
ROOT
ATOM      1  C   LIG    1        0.657  -2.104  -1.120  0.00  0.00    +0.210 C 
ENDROOT
BRANCH   1   2
ATOM      2  N   LIG    1        0.902  -2.514  -2.509  0.00  0.00    -0.610 N 
ATOM      3  H   LIG    1        0.942  -3.520  -2.560  0.00  0.00    +0.450 HD
ATOM      4  H   LIG    1        1.779  -2.126  -2.824  0.00  0.00    +0.450 HD
ATOM      5  H   LIG    1        0.154  -2.176  -3.096  0.00  0.00    +0.450 HD
ENDBRANCH   1   2
BRANCH   1   6
ATOM      6  C   LIG    1        0.598  -0.600  -1.043  0.00  0.00    +0.450 C 
ATOM      7  O   LIG    1        1.088   0.070  -1.921  0.00  0.00    -0.470 OA
BRANCH   6   9
ATOM      8  C   LIG    1       -0.018   1.448   0.010  0.00  0.00    +0.310 C 
ATOM      9  O   LIG    1        0.002  -0.004   0.002  0.00  0.00    -0.340 OA
ENDBRANCH   6   9
ENDBRANCH   1   6
BRANCH   1  10
ATOM     10  C   LIG    1        1.792  -2.615  -0.229  0.00  0.00    +0.280 C 
ATOM     11  C   LIG    1        1.852  -4.142  -0.307  0.00  0.00    +0.090 C 
BRANCH  10  12
ATOM     12  N   LIG    1        1.547  -2.207   1.156  0.00  0.00    -0.590 N 
ATOM     13  C   LIG    1        2.378  -1.427   1.877  0.00  0.00    +0.500 C 
ATOM     14  C   LIG    1        1.720  -1.274   3.233  0.00  0.00    +0.340 C 
ATOM     15  O   LIG    1        0.490  -2.050   3.111  0.00  0.00    -0.290 OA
ATOM     16  O   LIG    1        3.431  -0.947   1.515  0.00  0.00    -0.430 OA
ATOM     17  C   LIG    1        0.468  -2.555   1.867  0.00  0.00    +0.660 C 
ATOM     18  O   LIG    1       -0.426  -3.255   1.437  0.00  0.00    -0.470 OA
ENDBRANCH  10  12
ENDBRANCH   1  10
TORSDOF 5
ENDMDL
MODEL      177
REMARK  Name = ZINC000169726720
REMARK                            x       y       z     vdW  Elec       q    Type
REMARK                         _______ _______ _______ _____ _____    ______ ____
ROOT
ATOM      1  C   LIG    1        0.657  -2.104  -1.120  0.00  0.00    +0.220 C 
ENDROOT
BRANCH   1   2
ATOM      2  N   LIG    1        0.902  -2.514  -2.509  0.00  0.00    -0.620 N 
ATOM      3  H   LIG    1        0.942  -3.520  -2.560  0.00  0.00    +0.440 HD
ATOM      4  H   LIG    1        1.779  -2.126  -2.824  0.00  0.00    +0.450 HD
ATOM      5  H   LIG    1        0.154  -2.176  -3.096  0.00  0.00    +0.450 HD
ENDBRANCH   1   2
BRANCH   1   6
ATOM      6  C   LIG    1        0.598  -0.600  -1.043  0.00  0.00    +0.460 C 
ATOM      7  O   LIG    1        1.088   0.070  -1.921  0.00  0.00    -0.470 OA
BRANCH   6   9
ATOM      8  C   LIG    1       -0.018   1.448   0.010  0.00  0.00    +0.310 C 
ATOM      9  O   LIG    1        0.002  -0.004   0.002  0.00  0.00    -0.330 OA
ENDBRANCH   6   9
ENDBRANCH   1   6
BRANCH   1  10
ATOM     10  C   LIG    1        1.792  -2.615  -0.229  0.00  0.00    +0.290 C 
ATOM     11  C   LIG    1        1.475  -2.297   1.233  0.00  0.00    +0.110 C 
BRANCH  10  12
ATOM     12  N   LIG    1        1.927  -4.065  -0.396  0.00  0.00    -0.610 N 
ATOM     13  C   LIG    1        3.045  -4.680  -0.829  0.00  0.00    +0.490 C 
ATOM     14  C   LIG    1        2.719  -6.160  -0.839  0.00  0.00    +0.330 C 
ATOM     15  O   LIG    1        1.338  -6.214  -0.371  0.00  0.00    -0.280 OA
ATOM     16  O   LIG    1        4.093  -4.158  -1.145  0.00  0.00    -0.420 OA
ATOM     17  C   LIG    1        0.957  -4.949  -0.131  0.00  0.00    +0.640 C 
ATOM     18  O   LIG    1       -0.146  -4.640   0.274  0.00  0.00    -0.450 OA
ENDBRANCH  10  12
ENDBRANCH   1  10
TORSDOF 5
ENDMDL
MODEL      178
REMARK  Name = ZINC000095951516
REMARK                            x       y       z     vdW  Elec       q    Type
REMARK                         _______ _______ _______ _____ _____    ______ ____
ROOT
ATOM      1  C   LIG    1        0.657  -2.104  -1.120  0.00  0.00    +0.330 C 
ENDROOT
BRANCH   1   2
ATOM      2  N   LIG    1        1.354  -2.503  -2.345  0.00  0.00    -0.680 N 
ATOM      3  H   LIG    1        2.304  -2.698  -2.322  0.00  0.00    +0.430 HD
ATOM      4  C   LIG    1        0.675  -2.599  -3.505  0.00  0.00    +0.510 C 
ATOM      5  O   LIG    1       -0.513  -2.355  -3.535  0.00  0.00    -0.520 OA
BRANCH   4   6
ATOM      6  C   LIG    1        1.391  -3.010  -4.766  0.00  0.00    +0.320 C 
BRANCH   6   7
ATOM      7  N   LIG    1        0.438  -3.040  -5.883  0.00  0.00    -0.620 N 
ATOM      8  H   LIG    1        0.037  -2.122  -6.008  0.00  0.00    +0.440 HD
ATOM      9  H   LIG    1       -0.296  -3.703  -5.682  0.00  0.00    +0.440 HD
ATOM     10  H   LIG    1        0.917  -3.315  -6.727  0.00  0.00    +0.450 HD
ENDBRANCH   6   7
ENDBRANCH   4   6
ENDBRANCH   1   2
BRANCH   1  11
ATOM     11  C   LIG    1        0.598  -0.600  -1.043  0.00  0.00    +0.460 C 
ATOM     12  O   LIG    1        1.088   0.070  -1.921  0.00  0.00    -0.490 OA
BRANCH  11  14
ATOM     13  C   LIG    1       -0.018   1.448   0.010  0.00  0.00    +0.290 C 
ATOM     14  O   LIG    1        0.002  -0.004   0.002  0.00  0.00    -0.330 OA
ENDBRANCH  11  14
ENDBRANCH   1  11
BRANCH   1  15
ATOM     15  C   LIG    1        1.400  -2.639   0.077  0.00  0.00    +0.470 C 
ATOM     16  O   LIG    1        2.408  -3.288  -0.077  0.00  0.00    -0.480 OA
BRANCH  15  17
ATOM     17  O   LIG    1        0.943  -2.395   1.315  0.00  0.00    -0.330 OA
ATOM     18  C   LIG    1        1.709  -2.942   2.421  0.00  0.00    +0.290 C 
ENDBRANCH  15  17
ENDBRANCH   1  15
TORSDOF 7
ENDMDL
MODEL      179
REMARK  Name = ZINC000035241920
REMARK                            x       y       z     vdW  Elec       q    Type
REMARK                         _______ _______ _______ _____ _____    ______ ____
ROOT
ATOM      1  C   LIG    1       -0.018   1.503   0.010  0.00  0.00    +0.150 C 
ATOM      2  C   LIG    1        0.002  -0.004   0.002  0.00  0.00    -0.220 A 
ATOM      3  C   LIG    1       -1.153  -0.704   0.004  0.00  0.00    +0.330 A 
ATOM      4  N   LIG    1       -1.116  -2.072  -0.004  0.00  0.00    -0.530 N 
ATOM      5  C   LIG    1        0.060  -2.726  -0.013  0.00  0.00    +0.700 A 
ATOM      6  N   LIG    1        1.226  -2.053  -0.016  0.00  0.00    -0.650 N 
ATOM      7  H   LIG    1        2.064  -2.540  -0.023  0.00  0.00    +0.440 HD
ATOM      8  O   LIG    1        0.069  -3.942  -0.020  0.00  0.00    -0.560 OA
ATOM      9  C   LIG    1        1.232  -0.705  -0.013  0.00  0.00    +0.540 A 
ATOM     10  O   LIG    1        2.287  -0.095  -0.016  0.00  0.00    -0.480 OA
ENDROOT
BRANCH   4  11
ATOM     11  C   LIG    1       -2.369  -2.831  -0.002  0.00  0.00    +0.300 C 
ATOM     12  C   LIG    1       -2.415  -3.787   1.210  0.00  0.00    +0.290 C 
ATOM     13  N   LIG    1       -3.080  -5.012   0.695  0.00  0.00    -0.510 N 
ATOM     14  C   LIG    1       -2.524  -5.182  -0.672  0.00  0.00    +0.270 C 
ATOM     15  H   LIG    1       -4.080  -4.881   0.658  0.00  0.00    +0.440 HD
ATOM     16  H   LIG    1       -2.849  -5.807   1.272  0.00  0.00    +0.440 HD
ATOM     17  C   LIG    1       -2.442  -3.747  -1.241  0.00  0.00    +0.190 C 
BRANCH  17  18
ATOM     18  O   LIG    1       -3.607  -3.453  -2.014  0.00  0.00    -0.550 OA
ATOM     19  H   LIG    1       -3.726  -4.029  -2.781  0.00  0.00    +0.410 HD
ENDBRANCH  17  18
ENDBRANCH   4  11
TORSDOF 2
ENDMDL
MODEL      180
REMARK  Name = ZINC000035241929
REMARK                            x       y       z     vdW  Elec       q    Type
REMARK                         _______ _______ _______ _____ _____    ______ ____
ROOT
ATOM      1  C   LIG    1        0.002  -0.004   0.002  0.00  0.00    +0.520 A 
ATOM      2  C   LIG    1       -1.195  -0.739   0.004  0.00  0.00    -0.120 A 
ATOM      3  N   LIG    1       -2.511  -0.417   0.012  0.00  0.00    -0.430 NA
ATOM      4  C   LIG    1       -3.224  -1.506   0.010  0.00  0.00    +0.440 A 
ATOM      5  N   LIG    1       -2.407  -2.597  -0.001  0.00  0.00    -0.480 N 
ATOM      6  C   LIG    1       -1.113  -2.142  -0.005  0.00  0.00    +0.320 A 
ATOM      7  N   LIG    1        0.085  -2.718  -0.015  0.00  0.00    -0.570 NA
ATOM      8  C   LIG    1        1.181  -1.989  -0.016  0.00  0.00    +0.600 A 
ATOM      9  N   LIG    1        1.153  -0.668  -0.013  0.00  0.00    -0.580 NA
ENDROOT
BRANCH   5  10
ATOM     10  C   LIG    1       -2.833  -3.999  -0.007  0.00  0.00    +0.290 C 
ATOM     11  C   LIG    1       -3.746  -4.276  -1.220  0.00  0.00    +0.300 C 
ATOM     12  N   LIG    1       -4.769  -5.225  -0.710  0.00  0.00    -0.510 N 
ATOM     13  C   LIG    1       -5.073  -4.733   0.658  0.00  0.00    +0.260 C 
ATOM     14  H   LIG    1       -4.395  -6.162  -0.675  0.00  0.00    +0.440 HD
ATOM     15  H   LIG    1       -5.596  -5.197  -1.288  0.00  0.00    +0.440 HD
ATOM     16  C   LIG    1       -3.704  -4.300   1.230  0.00  0.00    +0.190 C 
BRANCH  16  17
ATOM     17  O   LIG    1       -3.131  -5.358   2.001  0.00  0.00    -0.540 OA
ATOM     18  H   LIG    1       -3.661  -5.619   2.767  0.00  0.00    +0.400 HD
ENDBRANCH  16  17
ENDBRANCH   5  10
BRANCH   1  19
ATOM     19  N   LIG    1       -0.017   1.380   0.010  0.00  0.00    -0.810 N 
ATOM     20  H   LIG    1       -0.863   1.853   0.016  0.00  0.00    +0.420 HD
ATOM     21  H   LIG    1        0.817   1.876   0.004  0.00  0.00    +0.420 HD
ENDBRANCH   1  19
TORSDOF 3
ENDMDL
MODEL      181
REMARK  Name = ZINC000022830038
REMARK                            x       y       z     vdW  Elec       q    Type
REMARK                         _______ _______ _______ _____ _____    ______ ____
ROOT
ATOM      1  C   LIG    1       -0.018   1.465   0.010  0.00  0.00    +0.310 C 
ATOM      2  N   LIG    1        0.002  -0.004   0.002  0.00  0.00    -0.390 N 
ATOM      3  C   LIG    1        0.712  -0.490   1.192  0.00  0.00    +0.280 C 
ATOM      4  C   LIG    1        0.717  -2.021   1.194  0.00  0.00    +0.220 C 
ATOM      5  N   LIG    1        1.378  -2.507  -0.025  0.00  0.00    -0.540 NA
ATOM      6  C   LIG    1        0.693  -2.008  -1.225  0.00  0.00    +0.220 C 
ATOM      7  C   LIG    1        0.689  -0.477  -1.207  0.00  0.00    +0.280 C 
ATOM      8  H   LIG    1       -0.945  -0.353   0.009  0.00  0.00    +0.420 HD
ENDROOT
BRANCH   5   9
ATOM      9  C   LIG    1        1.453  -3.974  -0.033  0.00  0.00    +0.210 C 
BRANCH   9  10
ATOM     10  C   LIG    1        2.358  -4.432  -1.179  0.00  0.00    +0.270 C 
BRANCH  10  11
ATOM     11  N   LIG    1        2.433  -5.895  -1.188  0.00  0.00    -1.120 NA
ATOM     12  H   LIG    1        2.136  -6.400  -0.415  0.00  0.00    +0.420 HD
BRANCH  11  13
ATOM     13  S   LIG    1        3.026  -6.686  -2.516  0.00  0.00    +2.620 S 
ATOM     14  O   LIG    1        2.291  -6.142  -3.604  0.00  0.00    -0.960 OA
ATOM     15  O   LIG    1        2.924  -8.062  -2.179  0.00  0.00    -0.950 OA
ATOM     16  C   LIG    1        4.765  -6.179  -2.606  0.00  0.00    -0.280 C 
ENDBRANCH  11  13
ENDBRANCH  10  11
ENDBRANCH   9  10
ENDBRANCH   5   9
TORSDOF 4
ENDMDL
MODEL      182
REMARK  Name = ZINC000217451594
REMARK                            x       y       z     vdW  Elec       q    Type
REMARK                         _______ _______ _______ _____ _____    ______ ____
ROOT
ATOM      1  C   LIG    1       -2.186   0.942   1.288  0.00  0.00    +0.030 C 
ATOM      2  C   LIG    1       -3.174   1.872   0.504  0.00  0.00    +0.030 C 
ATOM      3  C   LIG    1       -4.184   1.165   1.367  0.00  0.00    +0.010 C 
ATOM      4  C   LIG    1       -5.381   1.786   2.078  0.00  0.00    -0.270 C 
ATOM      5  S   LIG    1       -5.304   0.883   3.688  0.00  0.00    +2.370 S 
ATOM      6  C   LIG    1       -3.496   0.533   3.621  0.00  0.00    -0.300 C 
ATOM      7  O   LIG    1       -6.032  -0.333   3.585  0.00  0.00    -0.920 OA
ATOM      8  O   LIG    1       -5.575   1.785   4.752  0.00  0.00    -0.920 OA
ATOM      9  C   LIG    1       -3.051   1.366   2.438  0.00  0.00    -0.010 C 
ENDROOT
BRANCH   1  10
ATOM     10  C   LIG    1       -0.746   1.456   1.352  0.00  0.00    +0.270 C 
BRANCH  10  11
ATOM     11  N   LIG    1        0.001   0.968   0.186  0.00  0.00    -0.640 N 
ATOM     12  H   LIG    1       -0.438   1.302  -0.659  0.00  0.00    +0.440 HD
ATOM     13  H   LIG    1        0.950   1.306   0.228  0.00  0.00    +0.440 HD
ATOM     14  H   LIG    1        0.004  -0.041   0.186  0.00  0.00    +0.440 HD
ENDBRANCH  10  11
ENDBRANCH   1  10
BRANCH   2  15
ATOM     15  C   LIG    1       -3.015   3.363   0.805  0.00  0.00    +0.200 C 
BRANCH  15  16
ATOM     16  O   LIG    1       -3.850   4.119  -0.075  0.00  0.00    -0.560 OA
ATOM     17  H   LIG    1       -3.799   5.075   0.059  0.00  0.00    +0.400 HD
ENDBRANCH  15  16
ENDBRANCH   2  15
TORSDOF 4
ENDMDL
MODEL      183
REMARK  Name = ZINC000077264946
REMARK                            x       y       z     vdW  Elec       q    Type
REMARK                         _______ _______ _______ _____ _____    ______ ____
ROOT
ATOM      1  C   LIG    1       -0.700   1.481   1.215  0.00  0.00    +0.160 C 
ATOM      2  C   LIG    1       -0.637   3.025   1.326  0.00  0.00    +0.260 C 
ATOM      3  O   LIG    1       -0.756   3.305   2.730  0.00  0.00    -0.340 OA
ATOM      4  C   LIG    1       -0.321   2.174   3.493  0.00  0.00    +0.160 C 
ATOM      5  C   LIG    1        0.071   1.061   2.497  0.00  0.00    +0.170 C 
ENDROOT
BRANCH   1   6
ATOM      6  N   LIG    1       -0.012   1.009   0.006  0.00  0.00    -0.620 N 
ATOM      7  H   LIG    1       -0.501   1.344  -0.811  0.00  0.00    +0.440 HD
ATOM      8  H   LIG    1        0.934   1.359  -0.002  0.00  0.00    +0.440 HD
ATOM      9  H   LIG    1        0.002   0.000  -0.001  0.00  0.00    +0.450 HD
ENDBRANCH   1   6
BRANCH   5  10
ATOM     10  O   LIG    1       -0.367  -0.217   2.964  0.00  0.00    -0.550 OA
ATOM     11  H   LIG    1        0.024  -0.482   3.808  0.00  0.00    +0.410 HD
ENDBRANCH   5  10
BRANCH   4  12
ATOM     12  C   LIG    1        0.889   2.558   4.347  0.00  0.00    +0.290 C 
BRANCH  12  13
ATOM     13  N   LIG    1        0.480   3.533   5.362  0.00  0.00    -0.750 N 
ATOM     14  H   LIG    1       -0.442   3.829   5.406  0.00  0.00    +0.400 HD
ATOM     15  C   LIG    1        1.386   4.018   6.234  0.00  0.00    +0.710 C 
ATOM     16  N   LIG    1        1.036   4.989   7.100  0.00  0.00    -0.630 N 
ATOM     17  C   LIG    1        2.034   5.614   7.982  0.00  0.00    +0.270 C 
ATOM     18  C   LIG    1        1.913   7.136   7.847  0.00  0.00    +0.220 C 
ATOM     19  O   LIG    1        0.552   7.521   8.055  0.00  0.00    -0.370 OA
ATOM     20  C   LIG    1       -0.361   6.986   7.095  0.00  0.00    +0.220 C 
ATOM     21  C   LIG    1       -0.356   5.460   7.188  0.00  0.00    +0.240 C 
ATOM     22  O   LIG    1        2.520   3.579   6.240  0.00  0.00    -0.580 OA
ENDBRANCH  12  13
ENDBRANCH   4  12
TORSDOF 4
ENDMDL
MODEL      184
REMARK  Name = ZINC000077264478
REMARK                            x       y       z     vdW  Elec       q    Type
REMARK                         _______ _______ _______ _____ _____    ______ ____
ROOT
ATOM      1  C   LIG    1       -1.376  -0.512   0.012  0.00  0.00    +0.160 C 
ATOM      2  C   LIG    1       -1.403  -2.056  -0.119  0.00  0.00    +0.250 C 
ATOM      3  O   LIG    1       -2.682  -2.361  -0.698  0.00  0.00    -0.340 OA
ATOM      4  C   LIG    1       -3.170  -1.231  -1.430  0.00  0.00    +0.160 C 
ATOM      5  C   LIG    1       -2.137  -0.093  -1.274  0.00  0.00    +0.170 C 
ENDROOT
BRANCH   1   7
ATOM      6  C   LIG    1       -0.018   1.465   0.010  0.00  0.00    +0.340 C 
ATOM      7  N   LIG    1        0.002  -0.004   0.002  0.00  0.00    -0.380 N 
ATOM      8  C   LIG    1        0.713  -0.491   1.192  0.00  0.00    +0.330 C 
ATOM      9  H   LIG    1        0.474  -0.330  -0.828  0.00  0.00    +0.430 HD
ENDBRANCH   1   7
BRANCH   5  10
ATOM     10  O   LIG    1       -2.791   1.166  -1.098  0.00  0.00    -0.540 OA
ATOM     11  H   LIG    1       -3.348   1.427  -1.844  0.00  0.00    +0.410 HD
ENDBRANCH   5  10
BRANCH   4  12
ATOM     12  C   LIG    1       -3.324  -1.597  -2.908  0.00  0.00    +0.270 C 
BRANCH  12  13
ATOM     13  N   LIG    1       -4.383  -2.598  -3.055  0.00  0.00    -1.120 NA
ATOM     14  H   LIG    1       -4.709  -3.078  -2.277  0.00  0.00    +0.430 HD
BRANCH  13  15
ATOM     15  S   LIG    1       -5.026  -2.909  -4.549  0.00  0.00    +2.610 S 
ATOM     16  O   LIG    1       -5.372  -1.628  -5.055  0.00  0.00    -0.950 OA
ATOM     17  O   LIG    1       -6.022  -3.893  -4.304  0.00  0.00    -0.950 OA
ATOM     18  C   LIG    1       -3.650  -3.618  -5.495  0.00  0.00    -0.290 C 
ENDBRANCH  13  15
ENDBRANCH  12  13
ENDBRANCH   4  12
TORSDOF 5
ENDMDL
MODEL      185
REMARK  Name = ZINC000016123955
REMARK                            x       y       z     vdW  Elec       q    Type
REMARK                         _______ _______ _______ _____ _____    ______ ____
ROOT
ATOM      1  C   LIG    1        0.013  -2.639  -2.622  0.00  0.00    +0.180 C 
ATOM      2  N   LIG    1        1.131  -2.033  -3.355  0.00  0.00    -0.500 N 
ATOM      3  C   LIG    1        1.088  -2.449  -4.762  0.00  0.00    +0.250 C 
ATOM      4  C   LIG    1        1.273  -3.965  -4.855  0.00  0.00    +0.150 C 
ATOM      5  C   LIG    1        0.149  -4.660  -4.081  0.00  0.00    +0.160 C 
ATOM      6  H   LIG    1        2.003  -2.332  -2.945  0.00  0.00    +0.430 HD
ATOM      7  H   LIG    1        1.062  -1.028  -3.301  0.00  0.00    +0.440 HD
ATOM      8  C   LIG    1        0.158  -4.162  -2.633  0.00  0.00    +0.200 C 
ENDROOT
BRANCH   5   9
ATOM      9  O   LIG    1        0.357  -6.074  -4.103  0.00  0.00    -0.550 OA
ATOM     10  H   LIG    1        0.369  -6.455  -4.991  0.00  0.00    +0.410 HD
ENDBRANCH   5   9
BRANCH   4  11
ATOM     11  O   LIG    1        1.230  -4.368  -6.226  0.00  0.00    -0.540 OA
ATOM     12  H   LIG    1        1.913  -3.963  -6.777  0.00  0.00    +0.400 HD
ENDBRANCH   4  11
BRANCH   8  13
ATOM     13  O   LIG    1       -0.932  -4.750  -1.920  0.00  0.00    -0.540 OA
ATOM     14  H   LIG    1       -0.906  -5.716  -1.889  0.00  0.00    +0.420 HD
ENDBRANCH   8  13
BRANCH   1  15
ATOM     15  C   LIG    1        0.020  -2.136  -1.177  0.00  0.00    +0.330 C 
BRANCH  15  18
ATOM     16  C   LIG    1       -0.018   1.503   0.010  0.00  0.00    +0.100 C 
ATOM     17  C   LIG    1        0.002  -0.004   0.002  0.00  0.00    +0.520 C 
ATOM     18  N   LIG    1        0.000  -0.672  -1.169  0.00  0.00    -0.760 N 
ATOM     19  H   LIG    1       -0.015  -0.182  -2.006  0.00  0.00    +0.390 HD
ATOM     20  O   LIG    1        0.020  -0.616   1.049  0.00  0.00    -0.510 OA
ENDBRANCH  15  18
ENDBRANCH   1  15
TORSDOF 5
ENDMDL
MODEL      186
REMARK  Name = ZINC000205681914
REMARK                            x       y       z     vdW  Elec       q    Type
REMARK                         _______ _______ _______ _____ _____    ______ ____
ROOT
ATOM      1  N   LIG    1        1.581  -1.046  -1.877  0.00  0.00    -1.010 NA
ATOM      2  C   LIG    1        2.381  -0.119  -2.692  0.00  0.00    +0.280 C 
ATOM      3  C   LIG    1        3.794  -0.725  -2.820  0.00  0.00    +0.190 C 
ATOM      4  C   LIG    1        3.874  -1.680  -1.599  0.00  0.00    +0.170 C 
ATOM      5  C   LIG    1        2.420  -2.201  -1.513  0.00  0.00    +0.320 C 
ENDROOT
BRANCH   4   6
ATOM      6  N   LIG    1        4.817  -2.779  -1.851  0.00  0.00    -0.380 N 
ATOM      7  C   LIG    1        4.867  -3.660  -0.677  0.00  0.00    +0.330 C 
ATOM      8  C   LIG    1        6.154  -2.227  -2.107  0.00  0.00    +0.340 C 
ATOM      9  H   LIG    1        4.511  -3.306  -2.655  0.00  0.00    +0.430 HD
ENDBRANCH   4   6
BRANCH   1  10
ATOM     10  S   LIG    1       -0.000  -0.824  -1.437  0.00  0.00    +2.790 S 
ATOM     11  O   LIG    1       -0.566   0.055  -2.399  0.00  0.00    -0.950 OA
ATOM     12  O   LIG    1       -0.525  -2.116  -1.161  0.00  0.00    -0.950 OA
BRANCH  10  14
ATOM     13  C   LIG    1       -0.018   1.461   0.010  0.00  0.00    +0.310 C 
ATOM     14  N   LIG    1        0.002  -0.004   0.002  0.00  0.00    -1.010 NA
ATOM     15  C   LIG    1        0.024  -0.743   1.267  0.00  0.00    +0.310 C 
ENDBRANCH  10  14
ENDBRANCH   1  10
BRANCH   3  16
ATOM     16  O   LIG    1        4.791   0.295  -2.735  0.00  0.00    -0.550 OA
ATOM     17  H   LIG    1        4.734   0.960  -3.434  0.00  0.00    +0.410 HD
ENDBRANCH   3  16
TORSDOF 4
ENDMDL
MODEL      187
REMARK  Name = ZINC000001616444
REMARK                            x       y       z     vdW  Elec       q    Type
REMARK                         _______ _______ _______ _____ _____    ______ ____
ROOT
ATOM      1  C   LIG    1        4.163  -0.117   2.602  0.00  0.00    +0.280 C 
ENDROOT
BRANCH   1   2
ATOM      2  N   LIG    1        4.871  -0.602   3.789  0.00  0.00    -0.700 N 
ATOM      3  H   LIG    1        4.413  -1.170   4.428  0.00  0.00    +0.410 HD
ATOM      4  C   LIG    1        6.159  -0.260   3.991  0.00  0.00    +0.500 C 
ATOM      5  O   LIG    1        6.731   0.449   3.191  0.00  0.00    -0.520 OA
BRANCH   4   6
ATOM      6  C   LIG    1        6.888  -0.760   5.212  0.00  0.00    +0.180 C 
ATOM      7  C   LIG    1        6.509   0.101   6.420  0.00  0.00    +0.120 C 
BRANCH   6   8
ATOM      8  N   LIG    1        8.337  -0.675   4.986  0.00  0.00    -0.620 N 
ATOM      9  H   LIG    1        8.594   0.284   4.810  0.00  0.00    +0.440 HD
ATOM     10  H   LIG    1        8.587  -1.242   4.190  0.00  0.00    +0.440 HD
ATOM     11  H   LIG    1        8.825  -1.009   5.804  0.00  0.00    +0.440 HD
ENDBRANCH   6   8
ENDBRANCH   4   6
ENDBRANCH   1   2
BRANCH   1  12
ATOM     12  C   LIG    1        2.727  -0.647   2.613  0.00  0.00    +0.270 C 
BRANCH  12  14
ATOM     13  C   LIG    1        0.731  -0.503   1.223  0.00  0.00    +0.520 C 
ATOM     14  N   LIG    1        2.019  -0.161   1.426  0.00  0.00    -0.730 N 
ATOM     15  H   LIG    1        2.476   0.406   0.786  0.00  0.00    +0.400 HD
ATOM     16  O   LIG    1        0.159  -1.213   2.023  0.00  0.00    -0.520 OA
BRANCH  13  18
ATOM     17  C   LIG    1       -0.019   1.526   0.010  0.00  0.00    +0.010 C 
ATOM     18  C   LIG    1        0.002  -0.004   0.002  0.00  0.00    +0.180 C 
BRANCH  18  19
ATOM     19  N   LIG    1       -1.376  -0.512   0.012  0.00  0.00    -0.830 NA
ATOM     20  H   LIG    1       -1.886  -0.191  -0.797  0.00  0.00    +0.350 HD
ATOM     21  H   LIG    1       -1.850  -0.254   0.865  0.00  0.00    +0.350 HD
ENDBRANCH  18  19
ENDBRANCH  13  18
ENDBRANCH  12  14
ENDBRANCH   1  12
TORSDOF 7
ENDMDL
MODEL      188
REMARK  Name = ZINC000001688107
REMARK                            x       y       z     vdW  Elec       q    Type
REMARK                         _______ _______ _______ _____ _____    ______ ____
ROOT
ATOM      1  C   LIG    1        0.002  -0.004   0.002  0.00  0.00    +0.700 A 
ATOM      2  N   LIG    1       -1.140  -0.684   0.004  0.00  0.00    -0.620 NA
ATOM      3  C   LIG    1       -1.122  -2.014  -0.004  0.00  0.00    +0.670 A 
ATOM      4  N   LIG    1        0.038  -2.663  -0.013  0.00  0.00    -0.620 NA
ATOM      5  C   LIG    1        1.180  -1.982  -0.015  0.00  0.00    +0.700 A 
ATOM      6  N   LIG    1        1.162  -0.653  -0.013  0.00  0.00    -0.640 N 
ATOM      7  H   LIG    1        1.996  -0.157  -0.014  0.00  0.00    +0.440 HD
ENDROOT
BRANCH   1   8
ATOM      8  N   LIG    1       -0.017   1.376   0.010  0.00  0.00    -0.780 N 
ATOM      9  H   LIG    1       -0.863   1.849   0.016  0.00  0.00    +0.450 HD
ATOM     10  H   LIG    1        0.817   1.872   0.004  0.00  0.00    +0.430 HD
ENDBRANCH   1   8
BRANCH   5  11
ATOM     11  N   LIG    1        2.385  -2.656  -0.025  0.00  0.00    -0.780 N 
ATOM     12  H   LIG    1        3.218  -2.160  -0.026  0.00  0.00    +0.430 HD
ATOM     13  H   LIG    1        2.398  -3.626  -0.030  0.00  0.00    +0.450 HD
ENDBRANCH   5  11
BRANCH   3  14
ATOM     14  N   LIG    1       -2.308  -2.720  -0.002  0.00  0.00    -0.500 N 
BRANCH  14  15
ATOM     15  C   LIG    1       -3.586  -2.005   0.008  0.00  0.00    +0.340 C 
BRANCH  15  16
ATOM     16  C   LIG    1       -4.038  -1.748  -1.431  0.00  0.00    +0.180 C 
BRANCH  16  17
ATOM     17  O   LIG    1       -4.308  -2.994  -2.075  0.00  0.00    -0.570 OA
ATOM     18  H   LIG    1       -4.600  -2.908  -2.993  0.00  0.00    +0.390 HD
ENDBRANCH  16  17
ENDBRANCH  15  16
ENDBRANCH  14  15
BRANCH  14  19
ATOM     19  C   LIG    1       -2.288  -4.185  -0.010  0.00  0.00    +0.340 C 
BRANCH  19  20
ATOM     20  C   LIG    1       -2.274  -4.702   1.430  0.00  0.00    +0.180 C 
BRANCH  20  21
ATOM     21  O   LIG    1       -3.497  -4.344   2.077  0.00  0.00    -0.570 OA
ATOM     22  H   LIG    1       -3.558  -4.641   2.995  0.00  0.00    +0.390 HD
ENDBRANCH  20  21
ENDBRANCH  19  20
ENDBRANCH  14  19
ENDBRANCH   3  14
TORSDOF 9
ENDMDL
MODEL      189
REMARK  Name = ZINC000217451666
REMARK                            x       y       z     vdW  Elec       q    Type
REMARK                         _______ _______ _______ _____ _____    ______ ____
ROOT
ATOM      1  C   LIG    1       -2.099   0.875   1.075  0.00  0.00    +0.000 C 
ATOM      2  C   LIG    1       -2.288  -0.502   1.796  0.00  0.00    +0.040 C 
ATOM      3  C   LIG    1       -2.001   0.337   3.011  0.00  0.00    -0.020 C 
ATOM      4  C   LIG    1       -2.701   0.268   4.364  0.00  0.00    -0.280 C 
ATOM      5  S   LIG    1       -2.827   2.069   4.754  0.00  0.00    +2.370 S 
ATOM      6  C   LIG    1       -2.796   2.644   3.003  0.00  0.00    -0.290 C 
ATOM      7  O   LIG    1       -1.645   2.495   5.418  0.00  0.00    -0.920 OA
ATOM      8  O   LIG    1       -4.100   2.345   5.321  0.00  0.00    -0.920 OA
ATOM      9  C   LIG    1       -2.926   1.344   2.236  0.00  0.00    +0.010 C 
ENDROOT
BRANCH   1  10
ATOM     10  C   LIG    1       -0.660   1.397   1.069  0.00  0.00    +0.300 C 
BRANCH  10  11
ATOM     11  N   LIG    1       -0.004   1.008  -0.187  0.00  0.00    -0.640 N 
ATOM     12  H   LIG    1       -0.509   1.403  -0.966  0.00  0.00    +0.440 HD
ATOM     13  H   LIG    1        0.944   1.352  -0.191  0.00  0.00    +0.440 HD
ATOM     14  H   LIG    1        0.002   0.002  -0.266  0.00  0.00    +0.440 HD
ENDBRANCH  10  11
ENDBRANCH   1  10
BRANCH   2  15
ATOM     15  C   LIG    1       -3.711  -1.061   1.733  0.00  0.00    +0.200 C 
BRANCH  15  16
ATOM     16  O   LIG    1       -3.729  -2.382   2.276  0.00  0.00    -0.570 OA
ATOM     17  H   LIG    1       -4.602  -2.799   2.268  0.00  0.00    +0.400 HD
ENDBRANCH  15  16
ENDBRANCH   2  15
TORSDOF 4
ENDMDL
MODEL      190
REMARK  Name = ZINC000585656245
REMARK                            x       y       z     vdW  Elec       q    Type
REMARK                         _______ _______ _______ _____ _____    ______ ____
ROOT
ATOM      1  C   LIG    1       -1.022  -3.040  -1.248  0.00  0.00    +0.520 C 
ATOM      2  N   LIG    1       -2.324  -3.335  -1.439  0.00  0.00    -0.630 N 
ATOM      3  C   LIG    1       -3.342  -2.937  -0.454  0.00  0.00    +0.310 C 
ATOM      4  C   LIG    1       -4.477  -2.219  -1.192  0.00  0.00    +0.270 C 
ATOM      5  N   LIG    1       -4.980  -3.080  -2.270  0.00  0.00    -0.510 N 
ATOM      6  C   LIG    1       -3.928  -3.292  -3.273  0.00  0.00    +0.270 C 
ATOM      7  H   LIG    1       -5.775  -2.639  -2.707  0.00  0.00    +0.440 HD
ATOM      8  H   LIG    1       -5.260  -3.970  -1.885  0.00  0.00    +0.430 HD
ATOM      9  C   LIG    1       -2.767  -4.057  -2.641  0.00  0.00    +0.330 C 
ATOM     10  O   LIG    1       -0.198  -3.372  -2.073  0.00  0.00    -0.470 OA
ENDROOT
BRANCH   1  13
ATOM     11  N   LIG    1        0.002  -0.004   0.002  0.00  0.00    -0.480 N 
ATOM     12  C   LIG    1       -1.183  -0.876   0.003  0.00  0.00    +0.300 C 
ATOM     13  C   LIG    1       -0.592  -2.299  -0.008  0.00  0.00    +0.210 C 
ATOM     14  O   LIG    1        0.849  -2.082  -0.014  0.00  0.00    -0.280 OA
ATOM     15  C   LIG    1        1.103  -0.768  -0.013  0.00  0.00    +0.630 C 
ATOM     16  O   LIG    1        2.228  -0.310  -0.017  0.00  0.00    -0.490 OA
BRANCH  11  17
ATOM     17  N   LIG    1       -0.016   1.362   0.009  0.00  0.00    -0.560 NA
ATOM     18  H   LIG    1       -0.555   1.720  -0.765  0.00  0.00    +0.350 HD
ATOM     19  H   LIG    1        0.920   1.736   0.003  0.00  0.00    +0.380 HD
ENDBRANCH  11  17
ENDBRANCH   1  13
TORSDOF 2
ENDMDL
MODEL      191
REMARK  Name = ZINC000409434207
REMARK                            x       y       z     vdW  Elec       q    Type
REMARK                         _______ _______ _______ _____ _____    ______ ____
ROOT
ATOM      1  C   LIG    1       -1.295  -0.603   0.011  0.00  0.00    +0.170 C 
ATOM      2  C   LIG    1       -1.737  -0.948   1.455  0.00  0.00    +0.260 C 
ATOM      3  N   LIG    1       -2.710  -2.045   1.300  0.00  0.00    -0.600 N 
ATOM      4  C   LIG    1       -2.446  -2.733   0.028  0.00  0.00    +0.230 C 
ATOM      5  C   LIG    1       -3.681  -2.364   2.179  0.00  0.00    +0.540 C 
ATOM      6  O   LIG    1       -3.808  -1.724   3.201  0.00  0.00    -0.520 OA
ATOM      7  C   LIG    1       -1.265  -2.006  -0.650  0.00  0.00    +0.190 C 
ENDROOT
BRANCH   5   8
ATOM      8  C   LIG    1       -4.609  -3.516   1.891  0.00  0.00    +0.000 C 
ATOM      9  C   LIG    1       -3.825  -4.853   1.842  0.00  0.00    +0.090 C 
ATOM     10  C   LIG    1       -4.925  -5.875   2.221  0.00  0.00    +0.280 C 
ATOM     11  N   LIG    1       -5.746  -5.186   3.240  0.00  0.00    -0.510 N 
ATOM     12  H   LIG    1       -5.432  -5.449   4.162  0.00  0.00    +0.440 HD
ATOM     13  H   LIG    1       -6.715  -5.442   3.125  0.00  0.00    +0.440 HD
ATOM     14  C   LIG    1       -5.594  -3.728   3.059  0.00  0.00    +0.290 C 
ENDBRANCH   5   8
BRANCH   1  16
ATOM     15  C   LIG    1       -0.017   1.425   0.010  0.00  0.00    +0.220 C 
ATOM     16  O   LIG    1        0.002  -0.004   0.002  0.00  0.00    -0.350 OA
ENDBRANCH   1  16
BRANCH   7  17
ATOM     17  O   LIG    1       -0.033  -2.673  -0.370  0.00  0.00    -0.540 OA
ATOM     18  H   LIG    1        0.005  -3.583  -0.697  0.00  0.00    +0.380 HD
ENDBRANCH   7  17
TORSDOF 3
ENDMDL
MODEL      192
REMARK  Name = ZINC000004566612
REMARK                            x       y       z     vdW  Elec       q    Type
REMARK                         _______ _______ _______ _____ _____    ______ ____
ROOT
ATOM      1  C   LIG    1       -2.794  -2.566  -0.111  0.00  0.00    +0.180 C 
ENDROOT
BRANCH   1   2
ATOM      2  O   LIG    1       -3.550  -1.913  -1.132  0.00  0.00    -0.540 OA
ATOM      3  H   LIG    1       -3.204  -2.047  -2.025  0.00  0.00    +0.370 HD
ENDBRANCH   1   2
BRANCH   1   4
ATOM      4  C   LIG    1       -1.358  -2.037  -0.122  0.00  0.00    +0.180 C 
BRANCH   4   5
ATOM      5  O   LIG    1       -0.726  -2.399  -1.351  0.00  0.00    -0.530 OA
ATOM      6  H   LIG    1       -1.166  -2.049  -2.138  0.00  0.00    +0.380 HD
ENDBRANCH   4   5
BRANCH   4   7
ATOM      7  C   LIG    1       -1.376  -0.512   0.012  0.00  0.00    +0.240 C 
BRANCH   7   9
ATOM      8  C   LIG    1       -0.018   1.465   0.010  0.00  0.00    +0.320 C 
ATOM      9  N   LIG    1        0.002  -0.004   0.002  0.00  0.00    -0.380 N 
ATOM     10  C   LIG    1        0.713  -0.491   1.192  0.00  0.00    +0.320 C 
ATOM     11  H   LIG    1        0.474  -0.330  -0.828  0.00  0.00    +0.430 HD
ENDBRANCH   7   9
ENDBRANCH   4   7
ENDBRANCH   1   4
BRANCH   1  12
ATOM     12  C   LIG    1       -2.783  -4.074  -0.369  0.00  0.00    +0.160 C 
BRANCH  12  13
ATOM     13  O   LIG    1       -2.086  -4.343  -1.587  0.00  0.00    -0.530 OA
ATOM     14  H   LIG    1       -2.476  -3.923  -2.366  0.00  0.00    +0.370 HD
ENDBRANCH  12  13
BRANCH  12  15
ATOM     15  C   LIG    1       -4.222  -4.582  -0.483  0.00  0.00    +0.190 C 
BRANCH  15  16
ATOM     16  O   LIG    1       -4.919  -4.313   0.735  0.00  0.00    -0.540 OA
ATOM     17  H   LIG    1       -4.529  -4.733   1.514  0.00  0.00    +0.370 HD
ENDBRANCH  15  16
BRANCH  15  18
ATOM     18  C   LIG    1       -4.211  -6.090  -0.741  0.00  0.00    +0.150 C 
BRANCH  18  19
ATOM     19  O   LIG    1       -5.547  -6.545  -0.963  0.00  0.00    -0.560 OA
ATOM     20  H   LIG    1       -5.617  -7.495  -1.133  0.00  0.00    +0.390 HD
ENDBRANCH  18  19
ENDBRANCH  15  18
ENDBRANCH  12  15
ENDBRANCH   1  12
TORSDOF 11
ENDMDL
MODEL      193
REMARK  Name = ZINC000409434206
REMARK                            x       y       z     vdW  Elec       q    Type
REMARK                         _______ _______ _______ _____ _____    ______ ____
ROOT
ATOM      1  C   LIG    1       -1.295  -0.603   0.011  0.00  0.00    +0.170 C 
ATOM      2  C   LIG    1       -1.737  -0.948   1.455  0.00  0.00    +0.260 C 
ATOM      3  N   LIG    1       -2.710  -2.045   1.300  0.00  0.00    -0.600 N 
ATOM      4  C   LIG    1       -2.446  -2.733   0.028  0.00  0.00    +0.240 C 
ATOM      5  C   LIG    1       -3.681  -2.364   2.179  0.00  0.00    +0.530 C 
ATOM      6  O   LIG    1       -3.808  -1.724   3.201  0.00  0.00    -0.530 OA
ATOM      7  C   LIG    1       -1.265  -2.006  -0.650  0.00  0.00    +0.190 C 
ENDROOT
BRANCH   5   8
ATOM      8  C   LIG    1       -4.609  -3.516   1.891  0.00  0.00    +0.010 C 
ATOM      9  C   LIG    1       -5.433  -3.235   0.613  0.00  0.00    +0.090 C 
ATOM     10  C   LIG    1       -6.833  -3.791   0.974  0.00  0.00    +0.280 C 
ATOM     11  N   LIG    1       -6.980  -3.438   2.409  0.00  0.00    -0.520 N 
ATOM     12  H   LIG    1       -7.667  -4.034   2.846  0.00  0.00    +0.440 HD
ATOM     13  H   LIG    1       -7.249  -2.470   2.503  0.00  0.00    +0.430 HD
ATOM     14  C   LIG    1       -5.648  -3.660   3.018  0.00  0.00    +0.300 C 
ENDBRANCH   5   8
BRANCH   1  16
ATOM     15  C   LIG    1       -0.017   1.425   0.010  0.00  0.00    +0.220 C 
ATOM     16  O   LIG    1        0.002  -0.004   0.002  0.00  0.00    -0.350 OA
ENDBRANCH   1  16
BRANCH   7  17
ATOM     17  O   LIG    1       -0.033  -2.673  -0.370  0.00  0.00    -0.540 OA
ATOM     18  H   LIG    1        0.005  -3.583  -0.697  0.00  0.00    +0.380 HD
ENDBRANCH   7  17
TORSDOF 3
ENDMDL
MODEL      194
REMARK  Name = ZINC000409423957
REMARK                            x       y       z     vdW  Elec       q    Type
REMARK                         _______ _______ _______ _____ _____    ______ ____
ROOT
ATOM      1  C   LIG    1       -0.018   1.461   0.010  0.00  0.00    +0.330 C 
ATOM      2  N   LIG    1        0.002  -0.004   0.002  0.00  0.00    -0.600 N 
ATOM      3  C   LIG    1        0.007  -0.758  -1.145  0.00  0.00    +0.570 C 
ATOM      4  C   LIG    1       -0.290  -2.099  -0.706  0.00  0.00    -0.050 C 
ATOM      5  C   LIG    1       -0.150  -3.498  -1.146  0.00  0.00    +0.300 C 
ATOM      6  N   LIG    1       -0.526  -4.258   0.095  0.00  0.00    -0.520 NA
ATOM      7  C   LIG    1       -0.305  -3.359   1.267  0.00  0.00    +0.230 C 
ATOM      8  C   LIG    1        0.441  -2.143   0.695  0.00  0.00    -0.010 C 
ATOM      9  O   LIG    1        0.216  -0.381  -2.278  0.00  0.00    -0.450 OA
ATOM     10  C   LIG    1        0.023  -0.767   1.135  0.00  0.00    +0.550 C 
ATOM     11  O   LIG    1       -0.253  -0.411   2.261  0.00  0.00    -0.450 OA
ENDROOT
BRANCH   6  12
ATOM     12  C   LIG    1        0.267  -5.489   0.219  0.00  0.00    +0.300 C 
BRANCH  12  13
ATOM     13  C   LIG    1       -0.298  -6.341   1.326  0.00  0.00    +0.560 C 
ATOM     14  N   LIG    1       -1.215  -7.215   1.066  0.00  0.00    -0.700 N 
ATOM     15  H   LIG    1       -1.539  -7.322   0.158  0.00  0.00    +0.450 HD
ATOM     16  H   LIG    1       -1.579  -7.764   1.778  0.00  0.00    +0.440 HD
BRANCH  13  17
ATOM     17  N   LIG    1        0.159  -6.190   2.609  0.00  0.00    -0.540 N 
ATOM     18  H   LIG    1        0.847  -5.534   2.804  0.00  0.00    +0.450 HD
BRANCH  17  19
ATOM     19  O   LIG    1       -0.372  -6.990   3.649  0.00  0.00    -0.310 OA
ATOM     20  H   LIG    1        0.013  -6.812   4.518  0.00  0.00    +0.430 HD
ENDBRANCH  17  19
ENDBRANCH  13  17
ENDBRANCH  12  13
ENDBRANCH   6  12
TORSDOF 4
ENDMDL
MODEL      195
REMARK  Name = ZINC000409424009
REMARK                            x       y       z     vdW  Elec       q    Type
REMARK                         _______ _______ _______ _____ _____    ______ ____
ROOT
ATOM      1  N   LIG    1       -1.372  -0.511   0.012  0.00  0.00    -0.600 N 
ATOM      2  C   LIG    1       -2.078  -0.775   1.159  0.00  0.00    +0.570 C 
ATOM      3  C   LIG    1       -3.466  -0.908   0.723  0.00  0.00    -0.070 C 
ATOM      4  C   LIG    1       -4.627  -1.689   1.222  0.00  0.00    +0.280 C 
ATOM      5  N   LIG    1       -5.443  -1.976  -0.003  0.00  0.00    -0.510 NA
ATOM      6  C   LIG    1       -4.654  -1.504  -1.191  0.00  0.00    +0.230 C 
ATOM      7  C   LIG    1       -3.234  -1.607  -0.675  0.00  0.00    -0.010 C 
ATOM      8  O   LIG    1       -1.645  -0.876   2.287  0.00  0.00    -0.450 OA
ATOM      9  C   LIG    1       -2.097  -0.768  -1.122  0.00  0.00    +0.550 C 
ATOM     10  O   LIG    1       -1.863  -0.386  -2.248  0.00  0.00    -0.450 OA
ENDROOT
BRANCH   1  12
ATOM     11  C   LIG    1       -0.019   1.526   0.010  0.00  0.00    +0.030 C 
ATOM     12  C   LIG    1        0.002  -0.004   0.002  0.00  0.00    +0.290 C 
ENDBRANCH   1  12
BRANCH   5  13
ATOM     13  C   LIG    1       -6.747  -1.304   0.064  0.00  0.00    +0.180 C 
BRANCH  13  14
ATOM     14  C   LIG    1       -7.642  -1.814  -1.068  0.00  0.00    +0.270 C 
BRANCH  14  15
ATOM     15  N   LIG    1       -8.946  -1.142  -1.002  0.00  0.00    -0.640 N 
ATOM     16  H   LIG    1       -8.817  -0.146  -1.098  0.00  0.00    +0.430 HD
ATOM     17  H   LIG    1       -9.382  -1.340  -0.114  0.00  0.00    +0.440 HD
ATOM     18  H   LIG    1       -9.536  -1.478  -1.748  0.00  0.00    +0.440 HD
ENDBRANCH  14  15
ENDBRANCH  13  14
ENDBRANCH   5  13
TORSDOF 4
ENDMDL
MODEL      196
REMARK  Name = ZINC000409425023
REMARK                            x       y       z     vdW  Elec       q    Type
REMARK                         _______ _______ _______ _____ _____    ______ ____
ROOT
ATOM      1  C   LIG    1        0.707  -0.490  -1.238  0.00  0.00    +0.500 C 
ATOM      2  N   LIG    1        0.053  -0.526  -2.415  0.00  0.00    -0.580 N 
ATOM      3  C   LIG    1       -1.334  -0.087  -2.476  0.00  0.00    +0.290 C 
ATOM      4  C   LIG    1       -2.194  -1.090  -3.210  0.00  0.00    +0.060 C 
ATOM      5  C   LIG    1       -1.612  -1.603  -4.506  0.00  0.00    +0.040 C 
ATOM      6  C   LIG    1       -2.123  -3.026  -4.715  0.00  0.00    +0.530 C 
ATOM      7  N   LIG    1       -1.087  -3.873  -4.641  0.00  0.00    -0.580 N 
ATOM      8  C   LIG    1        0.107  -3.275  -4.492  0.00  0.00    +0.530 C 
ATOM      9  O   LIG    1        1.172  -3.835  -4.346  0.00  0.00    -0.460 OA
ATOM     10  C   LIG    1       -1.243  -5.328  -4.718  0.00  0.00    +0.320 C 
ATOM     11  O   LIG    1       -3.278  -3.339  -4.913  0.00  0.00    -0.460 OA
ATOM     12  C   LIG    1       -0.110  -1.775  -4.541  0.00  0.00    -0.010 C 
ATOM     13  C   LIG    1        0.744  -0.997  -3.602  0.00  0.00    +0.340 C 
ATOM     14  O   LIG    1        1.864  -0.849  -1.176  0.00  0.00    -0.510 OA
ENDROOT
BRANCH   1  16
ATOM     15  C   LIG    1       -0.019   1.526   0.010  0.00  0.00    +0.120 C 
ATOM     16  C   LIG    1        0.002  -0.004   0.002  0.00  0.00    +0.180 C 
BRANCH  16  17
ATOM     17  N   LIG    1        0.713  -0.491   1.192  0.00  0.00    -0.620 N 
ATOM     18  H   LIG    1        0.726  -1.500   1.187  0.00  0.00    +0.440 HD
ATOM     19  H   LIG    1        0.240  -0.165   2.022  0.00  0.00    +0.440 HD
ATOM     20  H   LIG    1        1.659  -0.141   1.185  0.00  0.00    +0.440 HD
ENDBRANCH  16  17
ENDBRANCH   1  16
TORSDOF 2
ENDMDL
MODEL      197
REMARK  Name = ZINC000409423955
REMARK                            x       y       z     vdW  Elec       q    Type
REMARK                         _______ _______ _______ _____ _____    ______ ____
ROOT
ATOM      1  C   LIG    1       -0.018   1.461   0.010  0.00  0.00    +0.330 C 
ATOM      2  N   LIG    1        0.002  -0.004   0.002  0.00  0.00    -0.600 N 
ATOM      3  C   LIG    1        0.007  -0.760  -1.144  0.00  0.00    +0.570 C 
ATOM      4  C   LIG    1        0.382  -2.102  -0.706  0.00  0.00    -0.070 C 
ATOM      5  C   LIG    1        0.070  -3.466  -1.202  0.00  0.00    +0.300 C 
ATOM      6  N   LIG    1        0.095  -4.329   0.024  0.00  0.00    -0.510 NA
ATOM      7  C   LIG    1        0.254  -3.422   1.211  0.00  0.00    +0.230 C 
ATOM      8  C   LIG    1       -0.352  -2.134   0.694  0.00  0.00    +0.000 C 
ATOM      9  O   LIG    1       -0.243  -0.394  -2.272  0.00  0.00    -0.440 OA
ATOM     10  C   LIG    1        0.023  -0.771   1.137  0.00  0.00    +0.550 C 
ATOM     11  O   LIG    1        0.297  -0.413   2.263  0.00  0.00    -0.450 OA
ENDROOT
BRANCH   6  12
ATOM     12  C   LIG    1        1.190  -5.306  -0.042  0.00  0.00    +0.300 C 
BRANCH  12  13
ATOM     13  C   LIG    1        1.039  -6.306   1.075  0.00  0.00    +0.560 C 
ATOM     14  N   LIG    1        0.354  -7.387   0.887  0.00  0.00    -0.700 N 
ATOM     15  H   LIG    1       -0.063  -7.553   0.027  0.00  0.00    +0.450 HD
ATOM     16  H   LIG    1        0.257  -8.031   1.605  0.00  0.00    +0.440 HD
BRANCH  13  17
ATOM     17  N   LIG    1        1.628  -6.072   2.289  0.00  0.00    -0.530 N 
ATOM     18  H   LIG    1        2.143  -5.261   2.430  0.00  0.00    +0.450 HD
BRANCH  17  19
ATOM     19  O   LIG    1        1.486  -7.012   3.339  0.00  0.00    -0.310 OA
ATOM     20  H   LIG    1        1.937  -6.759   4.156  0.00  0.00    +0.430 HD
ENDBRANCH  17  19
ENDBRANCH  13  17
ENDBRANCH  12  13
ENDBRANCH   6  12
TORSDOF 4
ENDMDL
MODEL      198
REMARK  Name = ZINC000409424163
REMARK                            x       y       z     vdW  Elec       q    Type
REMARK                         _______ _______ _______ _____ _____    ______ ____
ROOT
ATOM      1  C   LIG    1       -0.018   1.461   0.010  0.00  0.00    +0.330 C 
ATOM      2  N   LIG    1        0.002  -0.004   0.002  0.00  0.00    -0.600 N 
ATOM      3  C   LIG    1        0.007  -0.758  -1.145  0.00  0.00    +0.580 C 
ATOM      4  C   LIG    1       -0.291  -2.099  -0.706  0.00  0.00    -0.070 C 
ATOM      5  C   LIG    1       -0.153  -3.498  -1.144  0.00  0.00    +0.360 C 
ATOM      6  N   LIG    1       -0.528  -4.255   0.096  0.00  0.00    -0.620 N 
ATOM      7  C   LIG    1       -0.307  -3.359   1.265  0.00  0.00    +0.310 C 
ATOM      8  C   LIG    1       -0.985  -5.522   0.143  0.00  0.00    +0.540 C 
ATOM      9  O   LIG    1       -1.124  -6.155  -0.881  0.00  0.00    -0.520 OA
ATOM     10  C   LIG    1        0.440  -2.143   0.695  0.00  0.00    +0.020 C 
ATOM     11  O   LIG    1        0.217  -0.381  -2.278  0.00  0.00    -0.440 OA
ATOM     12  C   LIG    1        0.023  -0.767   1.135  0.00  0.00    +0.550 C 
ATOM     13  O   LIG    1       -0.253  -0.411   2.261  0.00  0.00    -0.450 OA
ENDROOT
BRANCH   8  14
ATOM     14  C   LIG    1       -1.322  -6.152   1.470  0.00  0.00    +0.070 C 
BRANCH  14  15
ATOM     15  C   LIG    1       -1.814  -7.583   1.245  0.00  0.00    +0.290 C 
BRANCH  15  16
ATOM     16  N   LIG    1       -2.143  -8.197   2.538  0.00  0.00    -0.640 N 
ATOM     17  H   LIG    1       -1.321  -8.212   3.122  0.00  0.00    +0.440 HD
ATOM     18  H   LIG    1       -2.468  -9.140   2.390  0.00  0.00    +0.440 HD
ATOM     19  H   LIG    1       -2.867  -7.660   2.991  0.00  0.00    +0.440 HD
ENDBRANCH  15  16
ENDBRANCH  14  15
ENDBRANCH   8  14
TORSDOF 3
ENDMDL
MODEL      199
REMARK  Name = ZINC000409429138
REMARK                            x       y       z     vdW  Elec       q    Type
REMARK                         _______ _______ _______ _____ _____    ______ ____
ROOT
ATOM      1  C   LIG    1       -0.018   1.461   0.010  0.00  0.00    +0.330 C 
ATOM      2  N   LIG    1        0.002  -0.004   0.002  0.00  0.00    -0.600 N 
ATOM      3  C   LIG    1        0.007  -0.758  -1.145  0.00  0.00    +0.580 C 
ATOM      4  C   LIG    1       -0.291  -2.099  -0.706  0.00  0.00    -0.070 C 
ATOM      5  C   LIG    1       -0.153  -3.498  -1.144  0.00  0.00    +0.360 C 
ATOM      6  N   LIG    1       -0.528  -4.255   0.096  0.00  0.00    -0.620 N 
ATOM      7  C   LIG    1       -0.307  -3.359   1.265  0.00  0.00    +0.300 C 
ATOM      8  C   LIG    1       -0.985  -5.522   0.143  0.00  0.00    +0.540 C 
ATOM      9  O   LIG    1       -1.124  -6.155  -0.881  0.00  0.00    -0.520 OA
ATOM     10  C   LIG    1        0.440  -2.143   0.695  0.00  0.00    +0.020 C 
ATOM     11  O   LIG    1        0.217  -0.381  -2.278  0.00  0.00    -0.440 OA
ATOM     12  C   LIG    1        0.023  -0.767   1.135  0.00  0.00    +0.550 C 
ATOM     13  O   LIG    1       -0.253  -0.411   2.261  0.00  0.00    -0.450 OA
ENDROOT
BRANCH   8  14
ATOM     14  C   LIG    1       -1.322  -6.152   1.470  0.00  0.00    -0.010 C 
ATOM     15  C   LIG    1       -2.732  -5.802   1.982  0.00  0.00    +0.340 C 
ATOM     16  N   LIG    1       -3.185  -7.013   1.263  0.00  0.00    -0.540 N 
ATOM     17  H   LIG    1       -3.466  -6.825   0.313  0.00  0.00    +0.440 HD
ATOM     18  H   LIG    1       -3.878  -7.538   1.775  0.00  0.00    +0.430 HD
ATOM     19  C   LIG    1       -1.830  -7.600   1.357  0.00  0.00    +0.350 C 
ENDBRANCH   8  14
TORSDOF 1
ENDMDL
MODEL      200
REMARK  Name = ZINC000250360684
REMARK                            x       y       z     vdW  Elec       q    Type
REMARK                         _______ _______ _______ _____ _____    ______ ____
ROOT
ATOM      1  C   LIG    1       -0.018   1.461   0.010  0.00  0.00    +0.340 C 
ATOM      2  N   LIG    1        0.002  -0.004   0.002  0.00  0.00    -1.000 NA
ATOM      3  C   LIG    1        0.010  -0.905  -1.166  0.00  0.00    +0.280 C 
ATOM      4  C   LIG    1       -0.729  -2.190  -0.777  0.00  0.00    +0.260 C 
ATOM      5  N   LIG    1       -0.466  -2.487   0.640  0.00  0.00    -1.010 NA
ATOM      6  S   LIG    1        0.029  -1.039   1.313  0.00  0.00    +2.760 S 
ATOM      7  O   LIG    1       -1.002  -0.614   2.194  0.00  0.00    -0.960 OA
ATOM      8  O   LIG    1        1.386  -1.200   1.702  0.00  0.00    -0.960 OA
ENDROOT
BRANCH   5   9
ATOM      9  C   LIG    1       -0.602  -3.779   1.317  0.00  0.00    +0.310 C 
ATOM     10  C   LIG    1       -2.043  -4.317   1.161  0.00  0.00    +0.090 C 
ATOM     11  C   LIG    1       -1.922  -5.289  -0.039  0.00  0.00    +0.260 C 
ATOM     12  N   LIG    1       -0.591  -5.916   0.164  0.00  0.00    -0.520 N 
ATOM     13  H   LIG    1       -0.246  -6.290  -0.708  0.00  0.00    +0.440 HD
ATOM     14  H   LIG    1       -0.653  -6.647   0.857  0.00  0.00    +0.440 HD
ATOM     15  C   LIG    1        0.298  -4.832   0.644  0.00  0.00    +0.260 C 
ENDBRANCH   5   9
TORSDOF 1
ENDMDL
MODEL      201
REMARK  Name = ZINC000409438584
REMARK                            x       y       z     vdW  Elec       q    Type
REMARK                         _______ _______ _______ _____ _____    ______ ____
ROOT
ATOM      1  C   LIG    1       -2.083   1.062   1.516  0.00  0.00    -0.390 A 
ATOM      2  C   LIG    1       -2.401  -0.129   2.067  0.00  0.00    +0.500 A 
ATOM      3  N   LIG    1       -3.696  -0.571   2.023  0.00  0.00    -0.520 N 
ATOM      4  C   LIG    1       -4.654   0.170   1.437  0.00  0.00    +0.690 A 
ATOM      5  N   LIG    1       -4.364   1.361   0.881  0.00  0.00    -0.650 N 
ATOM      6  H   LIG    1       -5.067   1.882   0.462  0.00  0.00    +0.440 HD
ATOM      7  O   LIG    1       -5.797  -0.242   1.411  0.00  0.00    -0.510 OA
ATOM      8  C   LIG    1       -3.102   1.834   0.907  0.00  0.00    +0.560 A 
ATOM      9  O   LIG    1       -2.839   2.912   0.404  0.00  0.00    -0.520 OA
ENDROOT
BRANCH   1  10
ATOM     10  C   LIG    1       -0.663   1.566   1.553  0.00  0.00    +0.380 C 
BRANCH  10  11
ATOM     11  N   LIG    1        0.016   1.210   0.300  0.00  0.00    -0.640 N 
ATOM     12  H   LIG    1       -0.470   1.632  -0.477  0.00  0.00    +0.440 HD
ATOM     13  H   LIG    1        0.967   1.548   0.326  0.00  0.00    +0.440 HD
ATOM     14  H   LIG    1        0.018   0.207   0.192  0.00  0.00    +0.430 HD
ENDBRANCH  10  11
ENDBRANCH   1  10
BRANCH   3  15
ATOM     15  C   LIG    1       -4.041  -1.863   2.621  0.00  0.00    +0.280 C 
BRANCH  15  16
ATOM     16  C   LIG    1       -3.700  -1.842   4.113  0.00  0.00    +0.200 C 
BRANCH  16  17
ATOM     17  O   LIG    1       -2.287  -1.710   4.276  0.00  0.00    -0.560 OA
ATOM     18  H   LIG    1       -1.998  -1.690   5.199  0.00  0.00    +0.390 HD
ENDBRANCH  16  17
ENDBRANCH  15  16
BRANCH  15  19
ATOM     19  C   LIG    1       -3.246  -2.973   1.932  0.00  0.00    +0.210 C 
BRANCH  19  20
ATOM     20  O   LIG    1       -1.851  -2.782   2.176  0.00  0.00    -0.560 OA
ATOM     21  H   LIG    1       -1.284  -3.451   1.768  0.00  0.00    +0.390 HD
ENDBRANCH  19  20
ENDBRANCH  15  19
ENDBRANCH   3  15
TORSDOF 7
ENDMDL
MODEL      202
REMARK  Name = ZINC000387148909
REMARK                            x       y       z     vdW  Elec       q    Type
REMARK                         _______ _______ _______ _____ _____    ______ ____
ROOT
ATOM      1  C   LIG    1       -1.425   3.494   2.465  0.00  0.00    +0.540 C 
ATOM      2  N   LIG    1       -1.564   4.816   2.686  0.00  0.00    -0.620 N 
ATOM      3  C   LIG    1       -1.101   5.935   1.833  0.00  0.00    +0.300 C 
ATOM      4  C   LIG    1       -2.241   6.973   1.893  0.00  0.00    +0.010 C 
ATOM      5  C   LIG    1       -1.651   8.348   2.106  0.00  0.00    +0.540 C 
ATOM      6  N   LIG    1       -1.969   8.783   3.331  0.00  0.00    -0.680 N 
ATOM      7  H   LIG    1       -1.687   9.647   3.671  0.00  0.00    +0.430 HD
ATOM      8  C   LIG    1       -2.707   7.929   4.050  0.00  0.00    +0.530 C 
ATOM      9  O   LIG    1       -3.102   8.123   5.179  0.00  0.00    -0.460 OA
ATOM     10  O   LIG    1       -0.993   8.962   1.294  0.00  0.00    -0.460 OA
ATOM     11  C   LIG    1       -2.981   6.672   3.225  0.00  0.00    +0.020 C 
ATOM     12  C   LIG    1       -2.220   5.481   3.836  0.00  0.00    +0.320 C 
ATOM     13  O   LIG    1       -1.868   2.696   3.263  0.00  0.00    -0.520 OA
ENDROOT
BRANCH   1  14
ATOM     14  C   LIG    1       -0.720   3.008   1.225  0.00  0.00    +0.070 C 
BRANCH  14  15
ATOM     15  C   LIG    1       -0.699   1.479   1.216  0.00  0.00    +0.290 C 
BRANCH  15  16
ATOM     16  N   LIG    1       -0.012   1.005   0.008  0.00  0.00    -0.640 N 
ATOM     17  H   LIG    1       -0.500   1.339  -0.810  0.00  0.00    +0.440 HD
ATOM     18  H   LIG    1        0.935   1.354   0.000  0.00  0.00    +0.440 HD
ATOM     19  H   LIG    1        0.002  -0.004   0.002  0.00  0.00    +0.440 HD
ENDBRANCH  15  16
ENDBRANCH  14  15
ENDBRANCH   1  14
TORSDOF 3
ENDMDL
MODEL      203
REMARK  Name = ZINC000387148911
REMARK                            x       y       z     vdW  Elec       q    Type
REMARK                         _______ _______ _______ _____ _____    ______ ____
ROOT
ATOM      1  C   LIG    1       -1.425   3.494   2.465  0.00  0.00    +0.540 C 
ATOM      2  N   LIG    1       -1.564   4.816   2.686  0.00  0.00    -0.620 N 
ATOM      3  C   LIG    1       -1.078   5.918   1.791  0.00  0.00    +0.350 C 
ATOM      4  C   LIG    1       -0.960   7.048   2.733  0.00  0.00    -0.060 C 
ATOM      5  C   LIG    1       -0.792   8.483   2.708  0.00  0.00    +0.580 C 
ATOM      6  N   LIG    1       -1.260   8.909   3.926  0.00  0.00    -0.710 N 
ATOM      7  H   LIG    1       -1.105   9.799   4.281  0.00  0.00    +0.430 HD
ATOM      8  C   LIG    1       -1.969   7.944   4.585  0.00  0.00    +0.550 C 
ATOM      9  O   LIG    1       -2.260   7.922   5.762  0.00  0.00    -0.440 OA
ATOM     10  O   LIG    1       -0.339   9.161   1.810  0.00  0.00    -0.450 OA
ATOM     11  C   LIG    1       -2.324   6.930   3.527  0.00  0.00    +0.000 C 
ATOM     12  C   LIG    1       -2.234   5.443   3.860  0.00  0.00    +0.320 C 
ATOM     13  O   LIG    1       -1.868   2.696   3.263  0.00  0.00    -0.520 OA
ENDROOT
BRANCH   1  14
ATOM     14  C   LIG    1       -0.720   3.008   1.225  0.00  0.00    +0.070 C 
BRANCH  14  15
ATOM     15  C   LIG    1       -0.699   1.479   1.216  0.00  0.00    +0.290 C 
BRANCH  15  16
ATOM     16  N   LIG    1       -0.012   1.005   0.008  0.00  0.00    -0.640 N 
ATOM     17  H   LIG    1       -0.500   1.339  -0.810  0.00  0.00    +0.440 HD
ATOM     18  H   LIG    1        0.935   1.354   0.000  0.00  0.00    +0.440 HD
ATOM     19  H   LIG    1        0.002  -0.004   0.002  0.00  0.00    +0.440 HD
ENDBRANCH  15  16
ENDBRANCH  14  15
ENDBRANCH   1  14
TORSDOF 3
ENDMDL
MODEL      204
REMARK  Name = ZINC000387148914
REMARK                            x       y       z     vdW  Elec       q    Type
REMARK                         _______ _______ _______ _____ _____    ______ ____
ROOT
ATOM      1  C   LIG    1       -1.425   3.494   2.465  0.00  0.00    +0.540 C 
ATOM      2  N   LIG    1       -1.564   4.816   2.686  0.00  0.00    -0.620 N 
ATOM      3  C   LIG    1       -1.081   5.917   1.796  0.00  0.00    +0.340 C 
ATOM      4  C   LIG    1       -1.597   7.145   2.422  0.00  0.00    -0.070 C 
ATOM      5  C   LIG    1       -1.323   8.565   2.444  0.00  0.00    +0.580 C 
ATOM      6  N   LIG    1       -1.943   9.018   3.583  0.00  0.00    -0.710 N 
ATOM      7  H   LIG    1       -2.096   9.956   3.774  0.00  0.00    +0.430 HD
ATOM      8  C   LIG    1       -2.319   8.004   4.418  0.00  0.00    +0.550 C 
ATOM      9  O   LIG    1       -3.111   8.065   5.334  0.00  0.00    -0.440 OA
ATOM     10  O   LIG    1       -0.690   9.211   1.637  0.00  0.00    -0.450 OA
ATOM     11  C   LIG    1       -1.522   6.805   3.965  0.00  0.00    +0.000 C 
ATOM     12  C   LIG    1       -2.236   5.449   3.864  0.00  0.00    +0.330 C 
ATOM     13  O   LIG    1       -1.868   2.696   3.263  0.00  0.00    -0.520 OA
ENDROOT
BRANCH   1  14
ATOM     14  C   LIG    1       -0.720   3.008   1.225  0.00  0.00    +0.070 C 
BRANCH  14  15
ATOM     15  C   LIG    1       -0.699   1.479   1.216  0.00  0.00    +0.290 C 
BRANCH  15  16
ATOM     16  N   LIG    1       -0.012   1.005   0.008  0.00  0.00    -0.640 N 
ATOM     17  H   LIG    1       -0.500   1.339  -0.810  0.00  0.00    +0.440 HD
ATOM     18  H   LIG    1        0.935   1.354   0.000  0.00  0.00    +0.440 HD
ATOM     19  H   LIG    1        0.002  -0.004   0.002  0.00  0.00    +0.440 HD
ENDBRANCH  15  16
ENDBRANCH  14  15
ENDBRANCH   1  14
TORSDOF 3
ENDMDL
MODEL      205
REMARK  Name = ZINC000387144300
REMARK                            x       y       z     vdW  Elec       q    Type
REMARK                         _______ _______ _______ _____ _____    ______ ____
ROOT
ATOM      1  O   LIG    1        0.002  -0.004   0.002  0.00  0.00    -0.520 OA
ATOM      2  C   LIG    1       -0.014   1.209   0.009  0.00  0.00    +0.550 C 
ATOM      3  N   LIG    1       -1.191   1.867   0.018  0.00  0.00    -0.620 N 
ATOM      4  C   LIG    1       -1.413   3.331   0.020  0.00  0.00    +0.300 C 
ATOM      5  C   LIG    1       -2.612   3.547  -0.926  0.00  0.00    +0.010 C 
ATOM      6  C   LIG    1       -3.584   4.512  -0.285  0.00  0.00    +0.540 C 
ATOM      7  N   LIG    1       -4.704   3.859   0.046  0.00  0.00    -0.680 N 
ATOM      8  H   LIG    1       -5.459   4.294   0.472  0.00  0.00    +0.430 HD
ATOM      9  C   LIG    1       -4.697   2.556  -0.258  0.00  0.00    +0.530 C 
ATOM     10  O   LIG    1       -5.606   1.782  -0.045  0.00  0.00    -0.460 OA
ATOM     11  O   LIG    1       -3.381   5.693  -0.100  0.00  0.00    -0.460 OA
ATOM     12  C   LIG    1       -3.370   2.193  -0.921  0.00  0.00    +0.020 C 
ATOM     13  C   LIG    1       -2.555   1.290   0.021  0.00  0.00    +0.320 C 
ENDROOT
BRANCH   2  14
ATOM     14  C   LIG    1        1.280   1.980   0.001  0.00  0.00    +0.010 C 
ATOM     15  C   LIG    1        1.436   2.804   1.306  0.00  0.00    +0.100 C 
ATOM     16  C   LIG    1        2.976   2.929   1.415  0.00  0.00    +0.270 C 
ATOM     17  N   LIG    1        3.495   1.630   0.936  0.00  0.00    -0.510 N 
ATOM     18  H   LIG    1        3.666   1.022   1.722  0.00  0.00    +0.440 HD
ATOM     19  H   LIG    1        4.354   1.775   0.425  0.00  0.00    +0.440 HD
ATOM     20  C   LIG    1        2.488   1.020   0.044  0.00  0.00    +0.290 C 
ENDBRANCH   2  14
TORSDOF 1
ENDMDL
MODEL      206
REMARK  Name = ZINC000387144301
REMARK                            x       y       z     vdW  Elec       q    Type
REMARK                         _______ _______ _______ _____ _____    ______ ____
ROOT
ATOM      1  O   LIG    1        0.002  -0.004   0.002  0.00  0.00    -0.520 OA
ATOM      2  C   LIG    1       -0.014   1.209   0.009  0.00  0.00    +0.540 C 
ATOM      3  N   LIG    1       -1.191   1.867   0.018  0.00  0.00    -0.620 N 
ATOM      4  C   LIG    1       -1.369   3.356   0.020  0.00  0.00    +0.340 C 
ATOM      5  C   LIG    1       -2.717   3.502   0.603  0.00  0.00    -0.060 C 
ATOM      6  C   LIG    1       -3.740   4.510   0.760  0.00  0.00    +0.580 C 
ATOM      7  N   LIG    1       -4.899   3.801   0.958  0.00  0.00    -0.710 N 
ATOM      8  H   LIG    1       -5.723   4.197   1.282  0.00  0.00    +0.430 HD
ATOM      9  C   LIG    1       -4.766   2.476   0.648  0.00  0.00    +0.550 C 
ATOM     10  O   LIG    1       -5.502   1.569   0.972  0.00  0.00    -0.440 OA
ATOM     11  O   LIG    1       -3.606   5.714   0.726  0.00  0.00    -0.450 OA
ATOM     12  C   LIG    1       -3.519   2.397  -0.197  0.00  0.00    +0.000 C 
ATOM     13  C   LIG    1       -2.544   1.243   0.021  0.00  0.00    +0.310 C 
ENDROOT
BRANCH   2  14
ATOM     14  C   LIG    1        1.280   1.980   0.001  0.00  0.00    +0.010 C 
ATOM     15  C   LIG    1        1.390   2.831  -1.286  0.00  0.00    +0.090 C 
ATOM     16  C   LIG    1        2.886   2.696  -1.664  0.00  0.00    +0.280 C 
ATOM     17  N   LIG    1        3.199   1.287  -1.315  0.00  0.00    -0.520 N 
ATOM     18  H   LIG    1        4.193   1.174  -1.181  0.00  0.00    +0.440 HD
ATOM     19  H   LIG    1        2.874   0.668  -2.043  0.00  0.00    +0.430 HD
ATOM     20  C   LIG    1        2.478   1.013  -0.051  0.00  0.00    +0.300 C 
ENDBRANCH   2  14
TORSDOF 1
ENDMDL
MODEL      207
REMARK  Name = ZINC000387144302
REMARK                            x       y       z     vdW  Elec       q    Type
REMARK                         _______ _______ _______ _____ _____    ______ ____
ROOT
ATOM      1  O   LIG    1        0.002  -0.004   0.002  0.00  0.00    -0.520 OA
ATOM      2  C   LIG    1       -0.014   1.209   0.009  0.00  0.00    +0.540 C 
ATOM      3  N   LIG    1       -1.191   1.867   0.018  0.00  0.00    -0.610 N 
ATOM      4  C   LIG    1       -1.413   3.331   0.020  0.00  0.00    +0.300 C 
ATOM      5  C   LIG    1       -2.612   3.547  -0.926  0.00  0.00    +0.010 C 
ATOM      6  C   LIG    1       -3.584   4.512  -0.285  0.00  0.00    +0.540 C 
ATOM      7  N   LIG    1       -4.704   3.859   0.046  0.00  0.00    -0.680 N 
ATOM      8  H   LIG    1       -5.459   4.294   0.472  0.00  0.00    +0.430 HD
ATOM      9  C   LIG    1       -4.697   2.556  -0.258  0.00  0.00    +0.530 C 
ATOM     10  O   LIG    1       -5.606   1.782  -0.045  0.00  0.00    -0.460 OA
ATOM     11  O   LIG    1       -3.381   5.693  -0.100  0.00  0.00    -0.460 OA
ATOM     12  C   LIG    1       -3.370   2.193  -0.921  0.00  0.00    +0.020 C 
ATOM     13  C   LIG    1       -2.555   1.290   0.021  0.00  0.00    +0.320 C 
ENDROOT
BRANCH   2  14
ATOM     14  C   LIG    1        1.280   1.980   0.001  0.00  0.00    +0.010 C 
ATOM     15  C   LIG    1        1.390   2.831  -1.286  0.00  0.00    +0.100 C 
ATOM     16  C   LIG    1        2.886   2.696  -1.664  0.00  0.00    +0.280 C 
ATOM     17  N   LIG    1        3.199   1.287  -1.315  0.00  0.00    -0.520 N 
ATOM     18  H   LIG    1        4.193   1.174  -1.181  0.00  0.00    +0.440 HD
ATOM     19  H   LIG    1        2.874   0.668  -2.043  0.00  0.00    +0.430 HD
ATOM     20  C   LIG    1        2.478   1.013  -0.051  0.00  0.00    +0.300 C 
ENDBRANCH   2  14
TORSDOF 1
ENDMDL
MODEL      208
REMARK  Name = ZINC000387144303
REMARK                            x       y       z     vdW  Elec       q    Type
REMARK                         _______ _______ _______ _____ _____    ______ ____
ROOT
ATOM      1  O   LIG    1        0.002  -0.004   0.002  0.00  0.00    -0.520 OA
ATOM      2  C   LIG    1       -0.014   1.209   0.009  0.00  0.00    +0.540 C 
ATOM      3  N   LIG    1       -1.191   1.867   0.018  0.00  0.00    -0.620 N 
ATOM      4  C   LIG    1       -1.369   3.356   0.020  0.00  0.00    +0.340 C 
ATOM      5  C   LIG    1       -2.717   3.502   0.603  0.00  0.00    -0.060 C 
ATOM      6  C   LIG    1       -3.740   4.510   0.760  0.00  0.00    +0.580 C 
ATOM      7  N   LIG    1       -4.899   3.801   0.958  0.00  0.00    -0.710 N 
ATOM      8  H   LIG    1       -5.723   4.197   1.282  0.00  0.00    +0.430 HD
ATOM      9  C   LIG    1       -4.766   2.476   0.648  0.00  0.00    +0.550 C 
ATOM     10  O   LIG    1       -5.502   1.569   0.972  0.00  0.00    -0.440 OA
ATOM     11  O   LIG    1       -3.606   5.714   0.726  0.00  0.00    -0.450 OA
ATOM     12  C   LIG    1       -3.519   2.397  -0.197  0.00  0.00    +0.000 C 
ATOM     13  C   LIG    1       -2.544   1.243   0.021  0.00  0.00    +0.320 C 
ENDROOT
BRANCH   2  14
ATOM     14  C   LIG    1        1.280   1.980   0.001  0.00  0.00    +0.010 C 
ATOM     15  C   LIG    1        1.436   2.804   1.306  0.00  0.00    +0.100 C 
ATOM     16  C   LIG    1        2.976   2.929   1.415  0.00  0.00    +0.280 C 
ATOM     17  N   LIG    1        3.495   1.630   0.936  0.00  0.00    -0.510 N 
ATOM     18  H   LIG    1        3.666   1.022   1.722  0.00  0.00    +0.440 HD
ATOM     19  H   LIG    1        4.354   1.775   0.425  0.00  0.00    +0.440 HD
ATOM     20  C   LIG    1        2.488   1.020   0.044  0.00  0.00    +0.290 C 
ENDBRANCH   2  14
TORSDOF 1
ENDMDL
MODEL      209
REMARK  Name = ZINC000000402630
REMARK                            x       y       z     vdW  Elec       q    Type
REMARK                         _______ _______ _______ _____ _____    ______ ____
ROOT
ATOM      1  C   LIG    1       -2.369  -2.831  -0.002  0.00  0.00    +0.470 C 
ATOM      2  C   LIG    1       -2.474  -3.698  -1.282  0.00  0.00    +0.090 C 
ATOM      3  C   LIG    1       -3.008  -2.655  -2.301  0.00  0.00    +0.150 C 
ATOM      4  C   LIG    1       -3.912  -1.768  -1.419  0.00  0.00    +0.180 C 
ATOM      5  O   LIG    1       -3.493  -1.939  -0.058  0.00  0.00    -0.320 OA
ENDROOT
BRANCH   1   9
ATOM      6  C   LIG    1       -0.018   1.503   0.010  0.00  0.00    +0.150 C 
ATOM      7  C   LIG    1        0.002  -0.004   0.002  0.00  0.00    -0.230 A 
ATOM      8  C   LIG    1       -1.153  -0.704   0.004  0.00  0.00    +0.320 A 
ATOM      9  N   LIG    1       -1.116  -2.072  -0.004  0.00  0.00    -0.550 N 
ATOM     10  C   LIG    1        0.060  -2.726  -0.013  0.00  0.00    +0.700 A 
ATOM     11  N   LIG    1        1.226  -2.053  -0.016  0.00  0.00    -0.660 N 
ATOM     12  H   LIG    1        2.064  -2.540  -0.023  0.00  0.00    +0.440 HD
ATOM     13  O   LIG    1        0.069  -3.942  -0.020  0.00  0.00    -0.540 OA
ATOM     14  C   LIG    1        1.232  -0.705  -0.013  0.00  0.00    +0.550 A 
ATOM     15  O   LIG    1        2.287  -0.095  -0.016  0.00  0.00    -0.490 OA
ENDBRANCH   1   9
BRANCH   3  16
ATOM     16  N   LIG    1       -3.786  -3.311  -3.361  0.00  0.00    -0.620 N 
ATOM     17  H   LIG    1       -3.193  -3.954  -3.865  0.00  0.00    +0.450 HD
ATOM     18  H   LIG    1       -4.142  -2.614  -3.997  0.00  0.00    +0.440 HD
ATOM     19  H   LIG    1       -4.556  -3.816  -2.949  0.00  0.00    +0.440 HD
ENDBRANCH   3  16
BRANCH   4  20
ATOM     20  C   LIG    1       -3.762  -0.302  -1.830  0.00  0.00    +0.190 C 
BRANCH  20  21
ATOM     21  O   LIG    1       -4.686   0.498  -1.090  0.00  0.00    -0.550 OA
ATOM     22  H   LIG    1       -4.646   1.441  -1.300  0.00  0.00    +0.400 HD
ENDBRANCH  20  21
ENDBRANCH   4  20
TORSDOF 4
ENDMDL
MODEL      210
REMARK  Name = ZINC000056955940
REMARK                            x       y       z     vdW  Elec       q    Type
REMARK                         _______ _______ _______ _____ _____    ______ ____
ROOT
ATOM      1  C   LIG    1       -0.682  -2.641  -1.627  0.00  0.00    +0.070 C 
ENDROOT
BRANCH   1   2
ATOM      2  C   LIG    1        0.657  -2.104  -1.120  0.00  0.00    +0.330 C 
BRANCH   2   3
ATOM      3  C   LIG    1        0.598  -0.600  -1.043  0.00  0.00    +0.440 C 
ATOM      4  O   LIG    1        1.088   0.070  -1.921  0.00  0.00    -0.470 OA
BRANCH   3   6
ATOM      5  C   LIG    1       -0.018   1.448   0.010  0.00  0.00    +0.290 C 
ATOM      6  O   LIG    1        0.002  -0.004   0.002  0.00  0.00    -0.360 OA
ENDBRANCH   3   6
ENDBRANCH   2   3
BRANCH   2   7
ATOM      7  N   LIG    1        1.724  -2.504  -2.041  0.00  0.00    -0.600 N 
ATOM      8  H   LIG    1        2.460  -3.050  -1.722  0.00  0.00    +0.440 HD
BRANCH   7   9
ATOM      9  N   LIG    1        1.682  -2.098  -3.381  0.00  0.00    +0.220 N 
ATOM     10  O   LIG    1        2.569  -2.430  -4.146  0.00  0.00    -0.190 OA
ATOM     11  O   LIG    1        0.758  -1.412  -3.780  0.00  0.00    -0.160 OA
ENDBRANCH   7   9
ENDBRANCH   2   7
ENDBRANCH   1   2
BRANCH   1  12
ATOM     12  C   LIG    1       -0.666  -4.171  -1.587  0.00  0.00    +0.040 C 
BRANCH  12  13
ATOM     13  C   LIG    1       -2.005  -4.709  -2.094  0.00  0.00    +0.290 C 
BRANCH  13  14
ATOM     14  N   LIG    1       -1.990  -6.173  -2.055  0.00  0.00    -0.700 N 
ATOM     15  H   LIG    1       -1.201  -6.641  -1.740  0.00  0.00    +0.440 HD
ATOM     16  C   LIG    1       -3.087  -6.880  -2.465  0.00  0.00    +0.740 C 
BRANCH  16  17
ATOM     17  N   LIG    1       -3.072  -8.211  -2.430  0.00  0.00    -0.790 N 
ATOM     18  H   LIG    1       -2.284  -8.680  -2.114  0.00  0.00    +0.440 HD
ATOM     19  H   LIG    1       -3.851  -8.712  -2.720  0.00  0.00    +0.440 HD
ENDBRANCH  16  17
BRANCH  16  20
ATOM     20  N   LIG    1       -4.170  -6.237  -2.898  0.00  0.00    -0.790 N 
ATOM     21  H   LIG    1       -4.948  -6.738  -3.188  0.00  0.00    +0.440 HD
ATOM     22  H   LIG    1       -4.180  -5.267  -2.923  0.00  0.00    +0.440 HD
ENDBRANCH  16  20
ENDBRANCH  13  14
ENDBRANCH  12  13
ENDBRANCH   1  12
TORSDOF 10
ENDMDL
MODEL      211
REMARK  Name = ZINC000387180502
REMARK                            x       y       z     vdW  Elec       q    Type
REMARK                         _______ _______ _______ _____ _____    ______ ____
ROOT
ATOM      1  C   LIG    1        0.710  -1.985  -1.215  0.00  0.00    +0.520 C 
ATOM      2  N   LIG    1        1.293  -2.645  -2.235  0.00  0.00    -0.610 N 
ATOM      3  C   LIG    1        1.966  -2.071  -3.423  0.00  0.00    +0.320 C 
ATOM      4  C   LIG    1        3.198  -2.971  -3.650  0.00  0.00    +0.010 C 
ATOM      5  C   LIG    1        3.307  -3.304  -5.120  0.00  0.00    +0.540 C 
ATOM      6  N   LIG    1        3.045  -4.604  -5.302  0.00  0.00    -0.680 N 
ATOM      7  H   LIG    1        3.060  -5.025  -6.176  0.00  0.00    +0.430 HD
ATOM      8  C   LIG    1        2.759  -5.275  -4.180  0.00  0.00    +0.530 C 
ATOM      9  O   LIG    1        2.493  -6.456  -4.119  0.00  0.00    -0.450 OA
ATOM     10  O   LIG    1        3.589  -2.517  -5.998  0.00  0.00    -0.460 OA
ATOM     11  C   LIG    1        2.827  -4.324  -2.985  0.00  0.00    +0.020 C 
ATOM     12  C   LIG    1        1.412  -4.110  -2.419  0.00  0.00    +0.330 C 
ATOM     13  O   LIG    1        0.202  -2.603  -0.304  0.00  0.00    -0.520 OA
ENDROOT
BRANCH   1  14
ATOM     14  C   LIG    1        0.690  -0.478  -1.207  0.00  0.00    +0.290 C 
BRANCH  14  16
ATOM     15  C   LIG    1       -0.018   1.465   0.010  0.00  0.00    +0.340 C 
ATOM     16  N   LIG    1        0.002  -0.004   0.002  0.00  0.00    -0.500 N 
ATOM     17  H   LIG    1       -0.945  -0.353   0.009  0.00  0.00    +0.440 HD
ATOM     18  H   LIG    1        0.490  -0.338   0.820  0.00  0.00    +0.440 HD
ENDBRANCH  14  16
ENDBRANCH   1  14
TORSDOF 2
ENDMDL
MODEL      212
REMARK  Name = ZINC000328579404
REMARK                            x       y       z     vdW  Elec       q    Type
REMARK                         _______ _______ _______ _____ _____    ______ ____
ROOT
ATOM      1  N   LIG    1       -1.406   3.481   2.430  0.00  0.00    -0.580 N 
ATOM      2  C   LIG    1       -2.733   3.679   2.405  0.00  0.00    +0.680 A 
ATOM      3  N   LIG    1       -3.426   4.106   3.456  0.00  0.00    -0.610 NA
ATOM      4  C   LIG    1       -2.840   4.368   4.617  0.00  0.00    +0.430 A 
ATOM      5  N   LIG    1       -3.549   4.805   5.697  0.00  0.00    -0.500 N 
ATOM      6  H   LIG    1       -4.508   4.936   5.638  0.00  0.00    +0.450 HD
ATOM      7  C   LIG    1       -2.892   5.052   6.848  0.00  0.00    +0.400 A 
ATOM      8  C   LIG    1       -1.529   4.866   6.929  0.00  0.00    +0.190 A 
ATOM      9  N   LIG    1       -0.834   4.442   5.887  0.00  0.00    -0.300 NA
ATOM     10  C   LIG    1       -1.437   4.188   4.742  0.00  0.00    -0.030 A 
ATOM     11  O   LIG    1       -3.333   3.457   1.367  0.00  0.00    -0.510 OA
ATOM     12  C   LIG    1       -0.696   3.708   3.560  0.00  0.00    +0.580 A 
ATOM     13  O   LIG    1        0.506   3.528   3.598  0.00  0.00    -0.460 OA
ENDROOT
BRANCH   1  14
ATOM     14  C   LIG    1       -0.720   3.008   1.225  0.00  0.00    +0.320 C 
BRANCH  14  15
ATOM     15  C   LIG    1       -0.699   1.479   1.216  0.00  0.00    +0.260 C 
BRANCH  15  16
ATOM     16  N   LIG    1       -0.012   1.005   0.008  0.00  0.00    -0.630 N 
ATOM     17  H   LIG    1       -0.500   1.339  -0.810  0.00  0.00    +0.440 HD
ATOM     18  H   LIG    1        0.935   1.354   0.000  0.00  0.00    +0.440 HD
ATOM     19  H   LIG    1        0.002  -0.004   0.002  0.00  0.00    +0.440 HD
ENDBRANCH  15  16
ENDBRANCH  14  15
ENDBRANCH   1  14
TORSDOF 3
ENDMDL
MODEL      213
REMARK  Name = ZINC000169726381
REMARK                            x       y       z     vdW  Elec       q    Type
REMARK                         _______ _______ _______ _____ _____    ______ ____
ROOT
ATOM      1  C   LIG    1       -4.996  -0.336   0.040  0.00  0.00    +0.330 C 
ENDROOT
BRANCH   1   4
ATOM      2  C   LIG    1       -1.412  -0.526   0.013  0.00  0.00    -0.020 A 
ATOM      3  C   LIG    1       -2.547   0.211   0.022  0.00  0.00    +0.180 A 
ATOM      4  N   LIG    1       -3.571  -0.673   0.029  0.00  0.00    -0.300 N 
ATOM      5  N   LIG    1       -3.077  -1.862   0.025  0.00  0.00    -0.090 NA
ATOM      6  N   LIG    1       -1.792  -1.808   0.009  0.00  0.00    -0.250 NA
BRANCH   2   7
ATOM      7  C   LIG    1        0.002  -0.004   0.002  0.00  0.00    +0.300 C 
BRANCH   7   8
ATOM      8  O   LIG    1       -0.017   1.425   0.010  0.00  0.00    -0.570 OA
ATOM      9  H   LIG    1        0.861   1.830   0.004  0.00  0.00    +0.400 HD
ENDBRANCH   7   8
ENDBRANCH   2   7
ENDBRANCH   1   4
BRANCH   1  10
ATOM     10  C   LIG    1       -5.692  -1.023  -1.136  0.00  0.00    +0.210 C 
BRANCH  10  11
ATOM     11  N   LIG    1       -7.122  -0.685  -1.125  0.00  0.00    -0.530 NA
ATOM     12  C   LIG    1       -7.686  -0.826   0.225  0.00  0.00    +0.210 C 
ATOM     13  C   LIG    1       -9.158  -0.409   0.205  0.00  0.00    +0.280 C 
ATOM     14  N   LIG    1       -9.894  -1.255  -0.743  0.00  0.00    -0.510 N 
ATOM     15  C   LIG    1       -9.335  -1.085  -2.091  0.00  0.00    +0.280 C 
ATOM     16  H   LIG    1      -10.867  -0.988  -0.747  0.00  0.00    +0.440 HD
ATOM     17  H   LIG    1       -9.813  -2.221  -0.465  0.00  0.00    +0.430 HD
ATOM     18  C   LIG    1       -7.865  -1.508  -2.090  0.00  0.00    +0.220 C 
ENDBRANCH  10  11
ENDBRANCH   1  10
TORSDOF 5
ENDMDL
MODEL      214
REMARK  Name = ZINC000225597929
REMARK                            x       y       z     vdW  Elec       q    Type
REMARK                         _______ _______ _______ _____ _____    ______ ____
ROOT
ATOM      1  C   LIG    1       -0.699   1.479   1.216  0.00  0.00    +0.190 C 
ATOM      2  C   LIG    1       -2.136   0.951   1.223  0.00  0.00    +0.060 C 
ATOM      3  C   LIG    1       -2.744   1.220   2.605  0.00  0.00    +0.070 C 
ATOM      4  C   LIG    1       -2.024   0.348   3.635  0.00  0.00    +0.280 C 
ATOM      5  N   LIG    1       -0.580   0.502   3.513  0.00  0.00    -0.560 N 
ATOM      6  C   LIG    1        0.031   0.984   2.432  0.00  0.00    +0.500 C 
ATOM      7  O   LIG    1        1.243   1.028   2.429  0.00  0.00    -0.530 OA
ENDROOT
BRANCH   1   8
ATOM      8  N   LIG    1       -0.012   1.005   0.008  0.00  0.00    -0.620 N 
ATOM      9  H   LIG    1       -0.500   1.339  -0.810  0.00  0.00    +0.440 HD
ATOM     10  H   LIG    1        0.935   1.354   0.000  0.00  0.00    +0.450 HD
ATOM     11  H   LIG    1        0.002  -0.004   0.002  0.00  0.00    +0.440 HD
ENDBRANCH   1   8
BRANCH   5  12
ATOM     12  C   LIG    1        0.251   0.100   4.651  0.00  0.00    +0.330 C 
BRANCH  12  13
ATOM     13  C   LIG    1        0.631  -1.351   4.507  0.00  0.00    +0.500 C 
ATOM     14  N   LIG    1        1.400  -1.942   5.443  0.00  0.00    -0.720 N 
ATOM     15  H   LIG    1        1.708  -1.434   6.209  0.00  0.00    +0.410 HD
ATOM     16  O   LIG    1        0.246  -1.987   3.549  0.00  0.00    -0.540 OA
BRANCH  14  17
ATOM     17  C   LIG    1        1.770  -3.353   5.303  0.00  0.00    +0.280 C 
BRANCH  17  18
ATOM     18  C   LIG    1        2.638  -3.773   6.491  0.00  0.00    +0.190 C 
BRANCH  18  19
ATOM     19  O   LIG    1        1.868  -3.701   7.692  0.00  0.00    -0.570 OA
ATOM     20  H   LIG    1        2.356  -3.954   8.488  0.00  0.00    +0.390 HD
ENDBRANCH  18  19
ENDBRANCH  17  18
ENDBRANCH  14  17
ENDBRANCH  12  13
ENDBRANCH   5  12
TORSDOF 6
ENDMDL
MODEL      215
REMARK  Name = ZINC000017187169
REMARK                            x       y       z     vdW  Elec       q    Type
REMARK                         _______ _______ _______ _____ _____    ______ ____
ROOT
ATOM      1  C   LIG    1       -2.369  -2.831  -0.002  0.00  0.00    +0.450 C 
ATOM      2  C   LIG    1       -2.499  -3.656  -1.301  0.00  0.00    +0.060 C 
ATOM      3  C   LIG    1       -3.160  -4.976  -0.844  0.00  0.00    +0.180 C 
ATOM      4  C   LIG    1       -3.351  -4.791   0.678  0.00  0.00    +0.200 C 
ATOM      5  O   LIG    1       -2.362  -3.810   1.060  0.00  0.00    -0.340 OA
ENDROOT
BRANCH   1   9
ATOM      6  C   LIG    1       -0.018   1.503   0.010  0.00  0.00    +0.150 C 
ATOM      7  C   LIG    1        0.002  -0.004   0.002  0.00  0.00    -0.220 A 
ATOM      8  C   LIG    1       -1.153  -0.704   0.004  0.00  0.00    +0.330 A 
ATOM      9  N   LIG    1       -1.116  -2.072  -0.004  0.00  0.00    -0.530 N 
ATOM     10  C   LIG    1        0.060  -2.726  -0.013  0.00  0.00    +0.710 A 
ATOM     11  N   LIG    1        1.226  -2.053  -0.016  0.00  0.00    -0.660 N 
ATOM     12  H   LIG    1        2.064  -2.540  -0.023  0.00  0.00    +0.440 HD
ATOM     13  O   LIG    1        0.069  -3.942  -0.020  0.00  0.00    -0.560 OA
ATOM     14  C   LIG    1        1.232  -0.705  -0.013  0.00  0.00    +0.550 A 
ATOM     15  O   LIG    1        2.287  -0.095  -0.016  0.00  0.00    -0.480 OA
ENDBRANCH   1   9
BRANCH   3  16
ATOM     16  N   LIG    1       -2.278  -6.117  -1.120  0.00  0.00    -0.640 N 
ATOM     17  H   LIG    1       -2.115  -6.183  -2.113  0.00  0.00    +0.440 HD
ATOM     18  H   LIG    1       -2.714  -6.966  -0.793  0.00  0.00    +0.440 HD
ATOM     19  H   LIG    1       -1.399  -5.986  -0.642  0.00  0.00    +0.440 HD
ENDBRANCH   3  16
BRANCH   4  20
ATOM     20  C   LIG    1       -3.106  -6.112   1.410  0.00  0.00    +0.190 C 
BRANCH  20  21
ATOM     21  O   LIG    1       -3.400  -5.950   2.799  0.00  0.00    -0.550 OA
ATOM     22  H   LIG    1       -3.266  -6.750   3.325  0.00  0.00    +0.400 HD
ENDBRANCH  20  21
ENDBRANCH   4  20
TORSDOF 4
ENDMDL
MODEL      216
REMARK  Name = ZINC000217542447
REMARK                            x       y       z     vdW  Elec       q    Type
REMARK                         _______ _______ _______ _____ _____    ______ ____
ROOT
ATOM      1  C   LIG    1       -0.699   1.479   1.216  0.00  0.00    +0.170 C 
ATOM      2  C   LIG    1       -0.715   3.012   1.232  0.00  0.00    +0.060 C 
ATOM      3  C   LIG    1       -1.590   3.475   2.399  0.00  0.00    +0.120 C 
ATOM      4  C   LIG    1       -1.198   2.747   3.652  0.00  0.00    +0.520 C 
ATOM      5  N   LIG    1       -0.483   1.622   3.657  0.00  0.00    -0.590 N 
ATOM      6  O   LIG    1       -1.550   3.207   4.717  0.00  0.00    -0.510 OA
ATOM      7  C   LIG    1        0.043   0.980   2.457  0.00  0.00    +0.290 C 
ENDROOT
BRANCH   1   8
ATOM      8  N   LIG    1       -0.012   1.005   0.008  0.00  0.00    -0.630 N 
ATOM      9  H   LIG    1       -0.500   1.339  -0.810  0.00  0.00    +0.440 HD
ATOM     10  H   LIG    1        0.935   1.354   0.000  0.00  0.00    +0.440 HD
ATOM     11  H   LIG    1        0.002  -0.004   0.002  0.00  0.00    +0.440 HD
ENDBRANCH   1   8
BRANCH   5  12
ATOM     12  C   LIG    1       -0.211   0.986   4.948  0.00  0.00    +0.340 C 
BRANCH  12  13
ATOM     13  C   LIG    1       -1.312   0.009   5.269  0.00  0.00    +0.500 C 
ATOM     14  N   LIG    1       -1.273  -0.698   6.416  0.00  0.00    -0.700 N 
ATOM     15  H   LIG    1       -0.536  -0.577   7.035  0.00  0.00    +0.410 HD
ATOM     16  O   LIG    1       -2.233  -0.142   4.495  0.00  0.00    -0.540 OA
BRANCH  14  17
ATOM     17  C   LIG    1       -2.343  -1.648   6.728  0.00  0.00    +0.180 C 
ATOM     18  C   LIG    1       -1.912  -3.124   6.633  0.00  0.00    +0.220 C 
ATOM     19  O   LIG    1       -1.598  -3.005   8.035  0.00  0.00    -0.380 OA
ATOM     20  C   LIG    1       -2.519  -1.914   8.235  0.00  0.00    +0.230 C 
ENDBRANCH  14  17
ENDBRANCH  12  13
ENDBRANCH   5  12
TORSDOF 4
ENDMDL
MODEL      217
REMARK  Name = ZINC000205680170
REMARK                            x       y       z     vdW  Elec       q    Type
REMARK                         _______ _______ _______ _____ _____    ______ ____
ROOT
ATOM      1  C   LIG    1        1.407  -2.526   2.431  0.00  0.00    +0.570 C 
ATOM      2  N   LIG    1        1.117  -3.754   2.905  0.00  0.00    -0.630 N 
ATOM      3  C   LIG    1        0.239  -4.864   2.504  0.00  0.00    +0.330 C 
ATOM      4  C   LIG    1        0.177  -5.276   3.981  0.00  0.00    -0.030 C 
ATOM      5  C   LIG    1        1.545  -4.576   4.047  0.00  0.00    +0.320 C 
ATOM      6  O   LIG    1        2.212  -1.827   3.010  0.00  0.00    -0.520 OA
ENDROOT
BRANCH   1  12
ATOM      7  C   LIG    1       -0.018   1.465   0.010  0.00  0.00    +0.340 C 
ATOM      8  N   LIG    1        0.002  -0.004   0.002  0.00  0.00    -0.390 N 
ATOM      9  C   LIG    1       -1.376  -0.513   0.013  0.00  0.00    +0.240 C 
ATOM     10  C   LIG    1       -1.353  -2.043   0.004  0.00  0.00    +0.270 C 
ATOM     11  O   LIG    1       -0.612  -2.510   1.135  0.00  0.00    -0.340 OA
ATOM     12  C   LIG    1        0.732  -2.022   1.182  0.00  0.00    +0.090 C 
ATOM     13  C   LIG    1        1.498  -2.514  -0.048  0.00  0.00    +0.070 C 
ATOM     14  C   LIG    1        0.712  -0.491   1.193  0.00  0.00    +0.290 C 
ATOM     15  H   LIG    1        0.474  -0.330  -0.828  0.00  0.00    +0.420 HD
ENDBRANCH   1  12
BRANCH   4  16
ATOM     16  C   LIG    1        0.237  -6.765   4.210  0.00  0.00    +0.530 C 
ATOM     17  O   LIG    1        0.326  -7.520   3.265  0.00  0.00    -0.530 OA
ATOM     18  N   LIG    1        0.191  -7.256   5.464  0.00  0.00    -0.850 N 
ATOM     19  H   LIG    1        0.229  -8.214   5.611  0.00  0.00    +0.410 HD
ATOM     20  H   LIG    1        0.119  -6.652   6.220  0.00  0.00    +0.410 HD
ENDBRANCH   4  16
TORSDOF 2
ENDMDL
MODEL      218
REMARK  Name = ZINC000041028382
REMARK                            x       y       z     vdW  Elec       q    Type
REMARK                         _______ _______ _______ _____ _____    ______ ____
ROOT
ATOM      1  C   LIG    1       -0.699   1.479   1.216  0.00  0.00    +0.160 C 
ATOM      2  C   LIG    1       -0.719   3.009   1.226  0.00  0.00    +0.050 C 
ATOM      3  C   LIG    1       -1.464   3.503   2.468  0.00  0.00    +0.060 C 
ATOM      4  C   LIG    1       -0.731   3.021   3.724  0.00  0.00    +0.280 C 
ATOM      5  N   LIG    1       -0.579   1.561   3.652  0.00  0.00    -0.610 N 
ATOM      6  C   LIG    1       -1.003   0.776   4.662  0.00  0.00    +0.510 C 
ATOM      7  O   LIG    1       -0.873  -0.427   4.591  0.00  0.00    -0.490 OA
ATOM      8  C   LIG    1        0.042   0.973   2.458  0.00  0.00    +0.300 C 
ENDROOT
BRANCH   1   9
ATOM      9  N   LIG    1       -0.012   1.005   0.008  0.00  0.00    -0.630 N 
ATOM     10  H   LIG    1       -0.500   1.339  -0.810  0.00  0.00    +0.440 HD
ATOM     11  H   LIG    1        0.935   1.354   0.000  0.00  0.00    +0.440 HD
ATOM     12  H   LIG    1        0.002  -0.004   0.002  0.00  0.00    +0.440 HD
ENDBRANCH   1   9
BRANCH   6  13
ATOM     13  C   LIG    1       -1.639   1.394   5.881  0.00  0.00    +0.390 C 
BRANCH  13  14
ATOM     14  N   LIG    1       -2.010   0.339   6.827  0.00  0.00    -0.310 N 
ATOM     15  C   LIG    1       -1.642   0.258   8.119  0.00  0.00    +0.410 A 
ATOM     16  N   LIG    1       -2.188  -0.834   8.598  0.00  0.00    -0.300 NA
ATOM     17  N   LIG    1       -2.856  -1.393   7.649  0.00  0.00    -0.060 NA
ATOM     18  N   LIG    1       -2.755  -0.685   6.579  0.00  0.00    -0.070 NA
ENDBRANCH  13  14
ENDBRANCH   6  13
TORSDOF 3
ENDMDL
MODEL      219
REMARK  Name = ZINC000257261137
REMARK                            x       y       z     vdW  Elec       q    Type
REMARK                         _______ _______ _______ _____ _____    ______ ____
ROOT
ATOM      1  C   LIG    1       -0.699   1.479   1.216  0.00  0.00    +0.200 C 
ATOM      2  C   LIG    1       -0.720   3.008   1.225  0.00  0.00    +0.070 C 
ATOM      3  C   LIG    1       -1.436   3.502   2.483  0.00  0.00    +0.070 C 
ATOM      4  C   LIG    1       -0.696   2.995   3.723  0.00  0.00    +0.280 C 
ATOM      5  C   LIG    1       -0.675   1.465   3.715  0.00  0.00    +0.150 C 
ATOM      6  C   LIG    1        0.041   0.972   2.456  0.00  0.00    +0.150 C 
ENDROOT
BRANCH   4   7
ATOM      7  N   LIG    1       -1.382   3.467   4.928  0.00  0.00    -0.530 N 
ATOM      8  C   LIG    1       -2.683   3.109   5.152  0.00  0.00    +0.320 A 
ATOM      9  C   LIG    1       -3.315   3.545   6.263  0.00  0.00    -0.090 A 
ATOM     10  C   LIG    1       -2.613   4.366   7.177  0.00  0.00    +0.540 A 
ATOM     11  N   LIG    1       -1.331   4.697   6.921  0.00  0.00    -0.660 N 
ATOM     12  H   LIG    1       -0.844   5.259   7.543  0.00  0.00    +0.430 HD
ATOM     13  O   LIG    1       -3.162   4.771   8.187  0.00  0.00    -0.500 OA
ATOM     14  C   LIG    1       -0.724   4.245   5.808  0.00  0.00    +0.700 A 
ATOM     15  O   LIG    1        0.432   4.551   5.590  0.00  0.00    -0.530 OA
ENDBRANCH   4   7
BRANCH   1  16
ATOM     16  N   LIG    1       -0.012   1.005   0.008  0.00  0.00    -0.630 N 
ATOM     17  H   LIG    1       -0.500   1.339  -0.810  0.00  0.00    +0.440 HD
ATOM     18  H   LIG    1        0.935   1.354   0.000  0.00  0.00    +0.440 HD
ATOM     19  H   LIG    1        0.002  -0.004   0.002  0.00  0.00    +0.440 HD
ENDBRANCH   1  16
BRANCH   5  20
ATOM     20  O   LIG    1        0.016   0.992   4.872  0.00  0.00    -0.540 OA
ATOM     21  H   LIG    1        0.068   0.028   4.933  0.00  0.00    +0.390 HD
ENDBRANCH   5  20
BRANCH   6  22
ATOM     22  O   LIG    1        1.381   1.466   2.446  0.00  0.00    -0.560 OA
ATOM     23  H   LIG    1        1.911   1.184   3.204  0.00  0.00    +0.420 HD
ENDBRANCH   6  22
TORSDOF 4
ENDMDL
MODEL      220
REMARK  Name = ZINC000247723560
REMARK                            x       y       z     vdW  Elec       q    Type
REMARK                         _______ _______ _______ _____ _____    ______ ____
ROOT
ATOM      1  C   LIG    1       -2.851  -2.587  -0.110  0.00  0.00    +0.220 C 
ENDROOT
BRANCH   1   2
ATOM      2  C   LIG    1       -2.833  -4.111  -0.244  0.00  0.00    +0.190 C 
ATOM      3  N   LIG    1       -4.215  -4.640  -0.316  0.00  0.00    -0.510 N 
ATOM      4  C   LIG    1       -4.297  -5.981   0.292  0.00  0.00    +0.300 C 
ATOM      5  C   LIG    1       -3.591  -5.907   1.674  0.00  0.00    +0.180 C 
ATOM      6  H   LIG    1       -4.498  -4.697  -1.283  0.00  0.00    +0.440 HD
ATOM      7  H   LIG    1       -4.836  -4.014   0.175  0.00  0.00    +0.440 HD
ATOM      8  S   LIG    1       -2.122  -4.878   1.261  0.00  0.00    -0.160 S 
ENDBRANCH   1   2
BRANCH   1   9
ATOM      9  O   LIG    1       -3.483  -2.224   1.119  0.00  0.00    -0.520 OA
ATOM     10  H   LIG    1       -3.044  -2.575   1.906  0.00  0.00    +0.390 HD
ENDBRANCH   1   9
BRANCH   1  11
ATOM     11  C   LIG    1       -1.416  -2.058  -0.121  0.00  0.00    +0.170 C 
BRANCH  11  12
ATOM     12  O   LIG    1       -0.783  -2.420  -1.350  0.00  0.00    -0.540 OA
ATOM     13  H   LIG    1       -1.223  -2.070  -2.137  0.00  0.00    +0.390 HD
ENDBRANCH  11  12
BRANCH  11  14
ATOM     14  C   LIG    1       -1.433  -0.534   0.013  0.00  0.00    +0.200 C 
BRANCH  14  15
ATOM     15  O   LIG    1       -2.066  -0.171   1.242  0.00  0.00    -0.530 OA
ATOM     16  H   LIG    1       -1.626  -0.521   2.029  0.00  0.00    +0.370 HD
ENDBRANCH  14  15
BRANCH  14  17
ATOM     17  C   LIG    1        0.002  -0.004   0.002  0.00  0.00    +0.150 C 
BRANCH  17  18
ATOM     18  O   LIG    1       -0.017   1.425   0.010  0.00  0.00    -0.560 OA
ATOM     19  H   LIG    1        0.861   1.830   0.004  0.00  0.00    +0.390 HD
ENDBRANCH  17  18
ENDBRANCH  14  17
ENDBRANCH  11  14
ENDBRANCH   1  11
TORSDOF 8
ENDMDL
MODEL      221
REMARK  Name = ZINC000257211399
REMARK                            x       y       z     vdW  Elec       q    Type
REMARK                         _______ _______ _______ _____ _____    ______ ____
ROOT
ATOM      1  C   LIG    1       -0.699   1.479   1.216  0.00  0.00    +0.140 C 
ATOM      2  C   LIG    1       -0.651   3.024   1.305  0.00  0.00    +0.100 C 
ATOM      3  C   LIG    1       -0.826   3.325   2.807  0.00  0.00    +0.250 C 
ATOM      4  C   LIG    1       -0.371   2.057   3.564  0.00  0.00    +0.260 C 
ATOM      5  O   LIG    1       -1.579   1.583   4.217  0.00  0.00    -0.250 OA
ATOM      6  C   LIG    1       -2.616   2.398   3.926  0.00  0.00    +0.560 A 
ATOM      7  N   LIG    1       -3.871   2.284   4.340  0.00  0.00    -0.560 NA
ATOM      8  C   LIG    1       -4.809   3.165   3.974  0.00  0.00    +0.520 A 
ATOM      9  C   LIG    1       -4.461   4.245   3.124  0.00  0.00    -0.090 A 
ATOM     10  C   LIG    1       -3.182   4.350   2.710  0.00  0.00    +0.330 A 
ATOM     11  O   LIG    1       -5.957   3.039   4.371  0.00  0.00    -0.480 OA
ATOM     12  N   LIG    1       -2.261   3.448   3.111  0.00  0.00    -0.550 N 
ATOM     13  C   LIG    1        0.062   1.035   2.490  0.00  0.00    +0.210 C 
ENDROOT
BRANCH   1  14
ATOM     14  N   LIG    1       -0.012   1.005   0.008  0.00  0.00    -0.630 N 
ATOM     15  H   LIG    1       -0.500   1.339  -0.810  0.00  0.00    +0.450 HD
ATOM     16  H   LIG    1        0.935   1.354   0.000  0.00  0.00    +0.440 HD
ATOM     17  H   LIG    1        0.002  -0.004   0.002  0.00  0.00    +0.440 HD
ENDBRANCH   1  14
BRANCH  13  18
ATOM     18  O   LIG    1        1.473   1.103   2.276  0.00  0.00    -0.530 OA
ATOM     19  H   LIG    1        1.800   0.482   1.611  0.00  0.00    +0.390 HD
ENDBRANCH  13  18
TORSDOF 2
ENDMDL
MODEL      222
REMARK  Name = ZINC000257288122
REMARK                            x       y       z     vdW  Elec       q    Type
REMARK                         _______ _______ _______ _____ _____    ______ ____
ROOT
ATOM      1  C   LIG    1       -0.699   1.479   1.216  0.00  0.00    +0.200 C 
ATOM      2  C   LIG    1       -0.712   3.021   1.246  0.00  0.00    +0.070 C 
ATOM      3  C   LIG    1       -0.521   3.373   2.743  0.00  0.00    +0.310 C 
ATOM      4  C   LIG    1        0.489   2.301   3.220  0.00  0.00    +0.150 C 
ATOM      5  C   LIG    1        0.064   1.020   2.471  0.00  0.00    +0.170 C 
ENDROOT
BRANCH   3   6
ATOM      6  N   LIG    1        0.035   4.720   2.892  0.00  0.00    -0.520 N 
ATOM      7  C   LIG    1        1.238   5.026   2.309  0.00  0.00    +0.340 A 
ATOM      8  C   LIG    1        1.750   6.268   2.447  0.00  0.00    -0.060 A 
ATOM      9  C   LIG    1        1.028   7.232   3.196  0.00  0.00    +0.530 A 
ATOM     10  N   LIG    1       -0.151   6.890   3.752  0.00  0.00    -0.650 N 
ATOM     11  H   LIG    1       -0.650   7.544   4.266  0.00  0.00    +0.440 HD
ATOM     12  O   LIG    1        1.469   8.359   3.334  0.00  0.00    -0.470 OA
ATOM     13  F   LIG    1        2.933   6.588   1.880  0.00  0.00    -0.100 F 
ATOM     14  C   LIG    1       -0.641   5.646   3.595  0.00  0.00    +0.700 A 
ATOM     15  O   LIG    1       -1.706   5.353   4.103  0.00  0.00    -0.530 OA
ENDBRANCH   3   6
BRANCH   1  16
ATOM     16  N   LIG    1       -0.012   1.005   0.008  0.00  0.00    -0.620 N 
ATOM     17  H   LIG    1       -0.500   1.339  -0.810  0.00  0.00    +0.440 HD
ATOM     18  H   LIG    1        0.935   1.354   0.000  0.00  0.00    +0.440 HD
ATOM     19  H   LIG    1        0.002  -0.004   0.002  0.00  0.00    +0.440 HD
ENDBRANCH   1  16
BRANCH   4  20
ATOM     20  O   LIG    1        1.821   2.675   2.862  0.00  0.00    -0.550 OA
ATOM     21  H   LIG    1        2.496   2.038   3.136  0.00  0.00    +0.390 HD
ENDBRANCH   4  20
BRANCH   5  22
ATOM     22  O   LIG    1        1.219   0.267   2.095  0.00  0.00    -0.570 OA
ATOM     23  H   LIG    1        1.754  -0.032   2.842  0.00  0.00    +0.420 HD
ENDBRANCH   5  22
TORSDOF 4
ENDMDL
MODEL      223
REMARK  Name = ZINC000034248196
REMARK                            x       y       z     vdW  Elec       q    Type
REMARK                         _______ _______ _______ _____ _____    ______ ____
ROOT
ATOM      1  C   LIG    1       -0.697   1.476   1.270  0.00  0.00    +0.170 C 
ATOM      2  C   LIG    1       -2.134   0.920   1.274  0.00  0.00    +0.450 C 
ATOM      3  O   LIG    1       -2.254   0.053   2.414  0.00  0.00    -0.310 OA
ATOM      4  C   LIG    1       -1.297   0.510   3.394  0.00  0.00    +0.140 C 
ATOM      5  C   LIG    1       -0.052   0.876   2.543  0.00  0.00    +0.200 C 
ENDROOT
BRANCH   2   6
ATOM      6  N   LIG    1       -3.094   2.023   1.380  0.00  0.00    -0.550 N 
ATOM      7  C   LIG    1       -3.698   2.281   2.580  0.00  0.00    +0.330 A 
ATOM      8  C   LIG    1       -4.582   3.298   2.678  0.00  0.00    -0.070 A 
ATOM      9  C   LIG    1       -4.865   4.077   1.531  0.00  0.00    +0.540 A 
ATOM     10  N   LIG    1       -4.248   3.790   0.367  0.00  0.00    -0.650 N 
ATOM     11  H   LIG    1       -4.437   4.320  -0.423  0.00  0.00    +0.440 HD
ATOM     12  O   LIG    1       -5.658   4.999   1.595  0.00  0.00    -0.480 OA
ATOM     13  C   LIG    1       -3.367   2.775   0.299  0.00  0.00    +0.710 A 
ATOM     14  O   LIG    1       -2.818   2.527  -0.758  0.00  0.00    -0.560 OA
ENDBRANCH   2   6
BRANCH   1  15
ATOM     15  N   LIG    1        0.023   1.029   0.070  0.00  0.00    -0.620 N 
ATOM     16  H   LIG    1       -0.441   1.385  -0.753  0.00  0.00    +0.450 HD
ATOM     17  H   LIG    1        0.970   1.375   0.097  0.00  0.00    +0.450 HD
ATOM     18  H   LIG    1        0.035   0.021   0.040  0.00  0.00    +0.450 HD
ENDBRANCH   1  15
BRANCH   5  19
ATOM     19  O   LIG    1        0.711  -0.290   2.226  0.00  0.00    -0.560 OA
ATOM     20  H   LIG    1        1.059  -0.754   3.000  0.00  0.00    +0.420 HD
ENDBRANCH   5  19
BRANCH   4  21
ATOM     21  C   LIG    1       -0.967  -0.607   4.386  0.00  0.00    +0.230 C 
BRANCH  21  22
ATOM     22  O   LIG    1       -2.127  -0.911   5.164  0.00  0.00    -0.560 OA
ATOM     23  H   LIG    1       -1.990  -1.612   5.816  0.00  0.00    +0.400 HD
ENDBRANCH  21  22
ENDBRANCH   4  21
TORSDOF 5
ENDMDL
MODEL      224
REMARK  Name = ZINC000004566613
REMARK                            x       y       z     vdW  Elec       q    Type
REMARK                         _______ _______ _______ _____ _____    ______ ____
ROOT
ATOM      1  C   LIG    1       -2.744  -2.633  -0.241  0.00  0.00    +0.190 C 
ENDROOT
BRANCH   1   2
ATOM      2  O   LIG    1       -3.230  -2.169  -1.502  0.00  0.00    -0.540 OA
ATOM      3  H   LIG    1       -2.683  -2.432  -2.255  0.00  0.00    +0.380 HD
ENDBRANCH   1   2
BRANCH   1   4
ATOM      4  C   LIG    1       -1.341  -2.073   0.002  0.00  0.00    +0.190 C 
BRANCH   4   5
ATOM      5  O   LIG    1       -0.855  -2.537   1.263  0.00  0.00    -0.540 OA
ATOM      6  H   LIG    1       -1.402  -2.274   2.016  0.00  0.00    +0.390 HD
ENDBRANCH   4   5
BRANCH   4   7
ATOM      7  C   LIG    1       -1.396  -0.544   0.008  0.00  0.00    +0.240 C 
BRANCH   7   9
ATOM      8  C   LIG    1        0.728  -0.338  -1.087  0.00  0.00    +0.320 C 
ATOM      9  N   LIG    1       -0.034  -0.006   0.124  0.00  0.00    -0.380 N 
ATOM     10  C   LIG    1       -0.096   1.454   0.279  0.00  0.00    +0.320 C 
ATOM     11  H   LIG    1        0.420  -0.411   0.928  0.00  0.00    +0.430 HD
ENDBRANCH   7   9
ENDBRANCH   4   7
ENDBRANCH   1   4
BRANCH   1  12
ATOM     12  C   LIG    1       -2.689  -4.162  -0.247  0.00  0.00    +0.170 C 
BRANCH  12  13
ATOM     13  O   LIG    1       -1.726  -4.601  -1.208  0.00  0.00    -0.540 OA
ATOM     14  H   LIG    1       -1.917  -4.319  -2.112  0.00  0.00    +0.380 HD
ENDBRANCH  12  13
BRANCH  12  15
ATOM     15  C   LIG    1       -4.066  -4.721  -0.613  0.00  0.00    +0.190 C 
BRANCH  15  16
ATOM     16  O   LIG    1       -5.028  -4.282   0.348  0.00  0.00    -0.540 OA
ATOM     17  H   LIG    1       -4.838  -4.564   1.253  0.00  0.00    +0.370 HD
ENDBRANCH  15  16
BRANCH  15  18
ATOM     18  C   LIG    1       -4.011  -6.250  -0.619  0.00  0.00    +0.150 C 
BRANCH  18  19
ATOM     19  O   LIG    1       -5.262  -6.769  -1.073  0.00  0.00    -0.560 OA
ATOM     20  H   LIG    1       -5.299  -7.735  -1.102  0.00  0.00    +0.390 HD
ENDBRANCH  18  19
ENDBRANCH  15  18
ENDBRANCH  12  15
ENDBRANCH   1  12
TORSDOF 11
ENDMDL
MODEL      225
REMARK  Name = ZINC000004566611
REMARK                            x       y       z     vdW  Elec       q    Type
REMARK                         _______ _______ _______ _____ _____    ______ ____
ROOT
ATOM      1  C   LIG    1       -2.742  -2.636  -0.241  0.00  0.00    +0.180 C 
ENDROOT
BRANCH   1   2
ATOM      2  O   LIG    1       -3.644  -2.103   0.731  0.00  0.00    -0.530 OA
ATOM      3  H   LIG    1       -3.407  -2.314   1.645  0.00  0.00    +0.370 HD
ENDBRANCH   1   2
BRANCH   1   4
ATOM      4  C   LIG    1       -1.340  -2.075   0.002  0.00  0.00    +0.190 C 
BRANCH   4   5
ATOM      5  O   LIG    1       -0.854  -2.538   1.263  0.00  0.00    -0.540 OA
ATOM      6  H   LIG    1       -1.401  -2.276   2.016  0.00  0.00    +0.380 HD
ENDBRANCH   4   5
BRANCH   4   7
ATOM      7  C   LIG    1       -1.397  -0.546   0.008  0.00  0.00    +0.240 C 
BRANCH   7   9
ATOM      8  C   LIG    1        0.724  -0.338  -1.093  0.00  0.00    +0.320 C 
ATOM      9  N   LIG    1       -0.035  -0.006   0.120  0.00  0.00    -0.380 N 
ATOM     10  C   LIG    1       -0.099   1.454   0.274  0.00  0.00    +0.320 C 
ATOM     11  H   LIG    1        0.421  -0.409   0.924  0.00  0.00    +0.430 HD
ENDBRANCH   7   9
ENDBRANCH   4   7
ENDBRANCH   1   4
BRANCH   1  12
ATOM     12  C   LIG    1       -2.709  -4.162  -0.123  0.00  0.00    +0.160 C 
BRANCH  12  13
ATOM     13  O   LIG    1       -1.807  -4.695  -1.095  0.00  0.00    -0.540 OA
ATOM     14  H   LIG    1       -2.044  -4.484  -2.009  0.00  0.00    +0.380 HD
ENDBRANCH  12  13
BRANCH  12  15
ATOM     15  C   LIG    1       -4.111  -4.723  -0.366  0.00  0.00    +0.190 C 
BRANCH  15  16
ATOM     16  O   LIG    1       -5.013  -4.190   0.606  0.00  0.00    -0.530 OA
ATOM     17  H   LIG    1       -4.776  -4.400   1.519  0.00  0.00    +0.370 HD
ENDBRANCH  15  16
BRANCH  15  18
ATOM     18  C   LIG    1       -4.077  -6.248  -0.248  0.00  0.00    +0.150 C 
BRANCH  18  19
ATOM     19  O   LIG    1       -5.359  -6.781  -0.589  0.00  0.00    -0.560 OA
ATOM     20  H   LIG    1       -5.410  -7.745  -0.536  0.00  0.00    +0.390 HD
ENDBRANCH  18  19
ENDBRANCH  15  18
ENDBRANCH  12  15
ENDBRANCH   1  12
TORSDOF 11
ENDMDL
MODEL      226
REMARK  Name = ZINC000004764181
REMARK                            x       y       z     vdW  Elec       q    Type
REMARK                         _______ _______ _______ _____ _____    ______ ____
ROOT
ATOM      1  C   ILE A  1       -2.827  -2.581   0.141  0.00  0.00    +0.510 C 
ATOM      2  N   UNK A  2       -3.506  -2.712  -1.016  0.00  0.00    -0.680 N 
ATOM      3  H   UNK A  2       -3.084  -2.471  -1.856  0.00  0.00    +0.420 HD
ATOM      4  O   ILE A  1       -3.354  -2.882   1.191  0.00  0.00    -0.530 OA
ENDROOT
BRANCH   1   5
ATOM      5  CA  ILE A  1       -1.413  -2.059   0.130  0.00  0.00    +0.180 C 
BRANCH   5   6
ATOM      6  N   ILE A  1       -0.739  -2.445   1.377  0.00  0.00    -0.620 N 
ATOM      7  H1  ILE A  1        0.207  -2.096   1.370  0.00  0.00    +0.440 HD
ATOM      8  H2  ILE A  1       -0.726  -3.451   1.454  0.00  0.00    +0.440 HD
ATOM      9  H3  ILE A  1       -1.236  -2.054   2.163  0.00  0.00    +0.440 HD
ENDBRANCH   5   6
BRANCH   5  10
ATOM     10  CB  ILE A  1       -1.433  -0.534   0.013  0.00  0.00    -0.010 C 
ATOM     11  CG2 ILE A  1       -2.135  -0.131  -1.286  0.00  0.00    +0.070 C 
BRANCH  10  13
ATOM     12  CD1 ILE A  1       -0.019   1.526   0.010  0.00  0.00    +0.040 C 
ATOM     13  CG1 ILE A  1        0.002  -0.004   0.002  0.00  0.00    +0.020 C 
ENDBRANCH  10  13
ENDBRANCH   5  10
ENDBRANCH   1   5
BRANCH   2  14
ATOM     14  C   UNK A  2       -4.880  -3.219  -1.006  0.00  0.00    +0.260 C 
BRANCH  14  15
ATOM     15  C   UNK A  2       -5.196  -3.842  -2.341  0.00  0.00    +0.530 C 
ATOM     16  O   UNK A  2       -4.356  -3.860  -3.216  0.00  0.00    -0.530 OA
ATOM     17  N   UNK A  2       -6.412  -4.378  -2.564  0.00  0.00    -0.840 N 
ATOM     18  H   UNK A  2       -6.615  -4.779  -3.424  0.00  0.00    +0.410 HD
ATOM     19  H   UNK A  2       -7.084  -4.364  -1.865  0.00  0.00    +0.410 HD
ENDBRANCH  14  15
BRANCH  14  20
ATOM     20  C   UNK A  2       -5.848  -2.064  -0.740  0.00  0.00    +0.210 C 
BRANCH  20  21
ATOM     21  O   UNK A  2       -5.795  -1.139  -1.827  0.00  0.00    -0.570 OA
ATOM     22  H   UNK A  2       -6.384  -0.379  -1.726  0.00  0.00    +0.390 HD
ENDBRANCH  20  21
ENDBRANCH  14  20
ENDBRANCH   2  14
TORSDOF 8
ENDMDL
MODEL      227
REMARK  Name = ZINC000004764175
REMARK                            x       y       z     vdW  Elec       q    Type
REMARK                         _______ _______ _______ _____ _____    ______ ____
ROOT
ATOM      1  C   ILE A  1       -2.827  -2.581   0.141  0.00  0.00    +0.510 C 
ATOM      2  N   UNK A  2       -3.553  -2.537   1.276  0.00  0.00    -0.680 N 
ATOM      3  H   UNK A  2       -3.166  -2.169   2.085  0.00  0.00    +0.420 HD
ATOM      4  O   ILE A  1       -3.312  -3.040  -0.872  0.00  0.00    -0.530 OA
ENDROOT
BRANCH   1   5
ATOM      5  CA  ILE A  1       -1.413  -2.059   0.130  0.00  0.00    +0.180 C 
BRANCH   5   6
ATOM      6  N   ILE A  1       -0.690  -2.629  -1.014  0.00  0.00    -0.620 N 
ATOM      7  H1  ILE A  1       -0.677  -3.635  -0.937  0.00  0.00    +0.440 HD
ATOM      8  H2  ILE A  1        0.257  -2.280  -1.022  0.00  0.00    +0.440 HD
ATOM      9  H3  ILE A  1       -1.153  -2.363  -1.871  0.00  0.00    +0.440 HD
ENDBRANCH   5   6
BRANCH   5  10
ATOM     10  CB  ILE A  1       -1.433  -0.534   0.013  0.00  0.00    +0.020 C 
ATOM     11  CG2 ILE A  1       -2.135  -0.131  -1.286  0.00  0.00    +0.050 C 
BRANCH  10  13
ATOM     12  CD1 ILE A  1       -0.019   1.526   0.010  0.00  0.00    +0.040 C 
ATOM     13  CG1 ILE A  1        0.002  -0.004   0.002  0.00  0.00    +0.010 C 
ENDBRANCH  10  13
ENDBRANCH   5  10
ENDBRANCH   1   5
BRANCH   2  14
ATOM     14  C   UNK A  2       -4.928  -3.044   1.286  0.00  0.00    +0.260 C 
BRANCH  14  15
ATOM     15  C   UNK A  2       -5.704  -2.366   2.385  0.00  0.00    +0.530 C 
ATOM     16  O   UNK A  2       -5.163  -1.542   3.091  0.00  0.00    -0.530 OA
ATOM     17  N   UNK A  2       -7.000  -2.678   2.585  0.00  0.00    -0.840 N 
ATOM     18  H   UNK A  2       -7.501  -2.242   3.293  0.00  0.00    +0.410 HD
ATOM     19  H   UNK A  2       -7.433  -3.337   2.021  0.00  0.00    +0.410 HD
ENDBRANCH  14  15
BRANCH  14  20
ATOM     20  C   UNK A  2       -4.912  -4.554   1.528  0.00  0.00    +0.210 C 
BRANCH  20  21
ATOM     21  O   UNK A  2       -4.400  -4.822   2.835  0.00  0.00    -0.570 OA
ATOM     22  H   UNK A  2       -4.362  -5.762   3.058  0.00  0.00    +0.390 HD
ENDBRANCH  20  21
ENDBRANCH  14  20
ENDBRANCH   2  14
TORSDOF 8
ENDMDL
MODEL      228
REMARK  Name = ZINC000006188065
REMARK                            x       y       z     vdW  Elec       q    Type
REMARK                         _______ _______ _______ _____ _____    ______ ____
ROOT
ATOM      1  C   LIG    1       -0.018   1.461   0.010  0.00  0.00    +0.350 C 
ATOM      2  N   LIG    1        0.002  -0.004   0.002  0.00  0.00    -0.520 N 
ATOM      3  C   LIG    1       -1.186  -0.701   0.004  0.00  0.00    +0.270 A 
ATOM      4  C   LIG    1       -1.157  -2.088  -0.004  0.00  0.00    -0.060 A 
ATOM      5  C   LIG    1        0.145  -2.755  -0.013  0.00  0.00    +0.590 A 
ATOM      6  N   LIG    1        1.260  -1.994  -0.014  0.00  0.00    -0.650 N 
ATOM      7  H   LIG    1        2.131  -2.421  -0.020  0.00  0.00    +0.440 HD
ATOM      8  O   LIG    1        0.221  -3.970  -0.021  0.00  0.00    -0.470 OA
ATOM      9  N   LIG    1       -2.444  -2.524   0.000  0.00  0.00    -0.440 NA
ATOM     10  C   LIG    1       -3.244  -1.488   0.010  0.00  0.00    +0.480 A 
ATOM     11  N   LIG    1       -2.500  -0.340   0.012  0.00  0.00    -0.580 N 
ATOM     12  H   LIG    1       -2.846   0.567   0.019  0.00  0.00    +0.420 HD
ATOM     13  C   LIG    1        1.180  -0.652  -0.013  0.00  0.00    +0.720 A 
ATOM     14  O   LIG    1        2.208  -0.003  -0.013  0.00  0.00    -0.520 OA
ENDROOT
BRANCH  10  15
ATOM     15  N   LIG    1       -4.627  -1.546   0.017  0.00  0.00    -0.710 N 
ATOM     16  H   LIG    1       -5.077  -2.405   0.014  0.00  0.00    +0.430 HD
BRANCH  15  17
ATOM     17  C   LIG    1       -5.412  -0.308   0.028  0.00  0.00    +0.260 C 
BRANCH  17  18
ATOM     18  C   LIG    1       -6.903  -0.650   0.034  0.00  0.00    +0.280 C 
BRANCH  18  19
ATOM     19  N   LIG    1       -7.690   0.590   0.045  0.00  0.00    -0.630 N 
ATOM     20  H   LIG    1       -8.673   0.365   0.049  0.00  0.00    +0.450 HD
ATOM     21  H   LIG    1       -7.473   1.134  -0.777  0.00  0.00    +0.440 HD
ATOM     22  H   LIG    1       -7.464   1.125   0.870  0.00  0.00    +0.440 HD
ENDBRANCH  18  19
ENDBRANCH  17  18
ENDBRANCH  15  17
ENDBRANCH  10  15
TORSDOF 4
ENDMDL
MODEL      229
REMARK  Name = ZINC000005551931
REMARK                            x       y       z     vdW  Elec       q    Type
REMARK                         _______ _______ _______ _____ _____    ______ ____
ROOT
ATOM      1  C   LIG    1        0.001  -4.173  -0.023  0.00  0.00    +0.420 C 
ATOM      2  C   LIG    1       -0.679  -4.715   1.260  0.00  0.00    +0.070 C 
ATOM      3  C   LIG    1       -0.064  -6.130   1.381  0.00  0.00    +0.170 C 
ATOM      4  C   LIG    1        1.230  -6.051   0.546  0.00  0.00    +0.200 C 
ATOM      5  O   LIG    1        1.341  -4.705   0.052  0.00  0.00    -0.350 OA
ENDROOT
BRANCH   1   9
ATOM      6  C   LIG    1        0.002  -0.004   0.002  0.00  0.00    +0.510 A 
ATOM      7  N   LIG    1       -1.135  -0.687   0.004  0.00  0.00    -0.610 NA
ATOM      8  C   LIG    1       -1.129  -2.018  -0.004  0.00  0.00    +0.660 A 
ATOM      9  N   LIG    1        0.026  -2.708  -0.014  0.00  0.00    -0.540 N 
ATOM     10  C   LIG    1        1.220  -2.050  -0.016  0.00  0.00    +0.370 A 
ATOM     11  O   LIG    1       -2.189  -2.623  -0.003  0.00  0.00    -0.540 OA
ATOM     12  C   LIG    1        1.230  -0.697  -0.013  0.00  0.00    -0.130 A 
BRANCH   6  13
ATOM     13  N   LIG    1       -0.017   1.371   0.010  0.00  0.00    -0.800 N 
ATOM     14  H   LIG    1       -0.863   1.845   0.016  0.00  0.00    +0.420 HD
ATOM     15  H   LIG    1        0.817   1.868   0.004  0.00  0.00    +0.420 HD
ENDBRANCH   6  13
ENDBRANCH   1   9
BRANCH   3  16
ATOM     16  N   LIG    1        0.245  -6.439   2.784  0.00  0.00    -0.630 N 
ATOM     17  H   LIG    1        0.885  -5.749   3.147  0.00  0.00    +0.440 HD
ATOM     18  H   LIG    1        0.666  -7.353   2.842  0.00  0.00    +0.440 HD
ATOM     19  H   LIG    1       -0.606  -6.426   3.326  0.00  0.00    +0.440 HD
ENDBRANCH   3  16
BRANCH   4  20
ATOM     20  C   LIG    1        2.436  -6.391   1.423  0.00  0.00    +0.190 C 
BRANCH  20  21
ATOM     21  O   LIG    1        3.615  -6.430   0.617  0.00  0.00    -0.540 OA
ATOM     22  H   LIG    1        4.421  -6.640   1.108  0.00  0.00    +0.400 HD
ENDBRANCH  20  21
ENDBRANCH   4  20
TORSDOF 5
ENDMDL
MODEL      230
REMARK  Name = ZINC000001549582
REMARK                            x       y       z     vdW  Elec       q    Type
REMARK                         _______ _______ _______ _____ _____    ______ ____
ROOT
ATOM      1  C   LIG    1       -1.722  -4.579  -0.006  0.00  0.00    +0.240 C 
ATOM      2  C   LIG    1       -0.933  -4.966   1.262  0.00  0.00    +0.070 C 
ATOM      3  C   LIG    1       -2.039  -5.497   2.212  0.00  0.00    +0.050 C 
ATOM      4  C   LIG    1       -2.996  -6.196   1.214  0.00  0.00    +0.270 C 
ATOM      5  N   LIG    1       -2.980  -5.341   0.009  0.00  0.00    -0.580 N 
ATOM      6  C   LIG    1       -3.957  -5.269  -0.917  0.00  0.00    +0.520 C 
ATOM      7  O   LIG    1       -3.836  -4.529  -1.869  0.00  0.00    -0.520 OA
ENDROOT
BRANCH   1  10
ATOM      8  N   LIG    1       -1.005  -2.212  -0.000  0.00  0.00    -0.710 N 
ATOM      9  H   LIG    1       -0.087  -2.523  -0.011  0.00  0.00    +0.420 HD
ATOM     10  C   LIG    1       -2.018  -3.102   0.005  0.00  0.00    +0.510 C 
ATOM     11  O   LIG    1       -3.167  -2.713   0.018  0.00  0.00    -0.530 OA
BRANCH   8  12
ATOM     12  C   LIG    1       -1.293  -0.775   0.010  0.00  0.00    +0.300 C 
BRANCH  12  16
ATOM     13  N   LIG    1       -0.016   1.344   0.009  0.00  0.00    -0.840 N 
ATOM     14  H   LIG    1       -0.863   1.817   0.016  0.00  0.00    +0.410 HD
ATOM     15  H   LIG    1        0.817   1.840   0.004  0.00  0.00    +0.410 HD
ATOM     16  C   LIG    1        0.002  -0.004   0.002  0.00  0.00    +0.510 C 
ATOM     17  O   LIG    1        1.060  -0.596  -0.011  0.00  0.00    -0.540 OA
ENDBRANCH  12  16
ENDBRANCH   8  12
ENDBRANCH   1  10
BRANCH   6  18
ATOM     18  C   LIG    1       -5.198  -6.110  -0.768  0.00  0.00    +0.300 C 
BRANCH  18  19
ATOM     19  N   LIG    1       -6.102  -5.853  -1.898  0.00  0.00    -0.620 N 
ATOM     20  H   LIG    1       -6.933  -6.416  -1.798  0.00  0.00    +0.450 HD
ATOM     21  H   LIG    1       -5.637  -6.090  -2.761  0.00  0.00    +0.440 HD
ATOM     22  H   LIG    1       -6.356  -4.877  -1.909  0.00  0.00    +0.440 HD
ENDBRANCH  18  19
ENDBRANCH   6  18
TORSDOF 5
ENDMDL
MODEL      231
REMARK  Name = ZINC000222499624
REMARK                            x       y       z     vdW  Elec       q    Type
REMARK                         _______ _______ _______ _____ _____    ______ ____
ROOT
ATOM      1  C   LIG    1        1.455  -2.521  -2.524  0.00  0.00    +0.200 C 
ENDROOT
BRANCH   1   2
ATOM      2  C   LIG    1        1.476  -4.051  -2.532  0.00  0.00    +0.290 C 
ATOM      3  N   LIG    1        0.101  -4.557  -2.636  0.00  0.00    -0.690 NA
ATOM      4  H   LIG    1       -0.483  -4.169  -1.911  0.00  0.00    +0.390 HD
ATOM      5  C   LIG    1        0.078  -6.027  -2.602  0.00  0.00    +0.210 C 
ATOM      6  C   LIG    1        0.926  -6.569  -3.757  0.00  0.00    +0.070 C 
ATOM      7  C   LIG    1        2.340  -5.989  -3.655  0.00  0.00    +0.260 C 
ATOM      8  N   LIG    1        2.266  -4.522  -3.677  0.00  0.00    -0.500 N 
ATOM      9  H   LIG    1        3.197  -4.138  -3.622  0.00  0.00    +0.430 HD
ATOM     10  H   LIG    1        1.828  -4.220  -4.534  0.00  0.00    +0.440 HD
ENDBRANCH   1   2
BRANCH   1  11
ATOM     11  O   LIG    1        0.764  -2.047  -3.682  0.00  0.00    -0.520 OA
ATOM     12  H   LIG    1       -0.154  -2.345  -3.741  0.00  0.00    +0.390 HD
ENDBRANCH   1  11
BRANCH   1  13
ATOM     13  C   LIG    1        0.739  -2.027  -1.265  0.00  0.00    +0.160 C 
BRANCH  13  14
ATOM     14  O   LIG    1        1.430  -2.501  -0.107  0.00  0.00    -0.530 OA
ATOM     15  H   LIG    1        2.348  -2.203  -0.049  0.00  0.00    +0.380 HD
ENDBRANCH  13  14
BRANCH  13  16
ATOM     16  C   LIG    1        0.718  -0.497  -1.257  0.00  0.00    +0.150 C 
BRANCH  16  18
ATOM     17  C   LIG    1       -0.019   1.526   0.010  0.00  0.00    +0.010 C 
ATOM     18  C   LIG    1        0.002  -0.004   0.002  0.00  0.00    +0.180 C 
BRANCH  18  19
ATOM     19  O   LIG    1        0.693  -0.477   1.160  0.00  0.00    -0.540 OA
ATOM     20  H   LIG    1        1.611  -0.180   1.219  0.00  0.00    +0.370 HD
ENDBRANCH  18  19
ENDBRANCH  16  18
BRANCH  16  21
ATOM     21  O   LIG    1        0.027  -0.024  -2.414  0.00  0.00    -0.530 OA
ATOM     22  H   LIG    1       -0.891  -0.322  -2.473  0.00  0.00    +0.380 HD
ENDBRANCH  16  21
ENDBRANCH  13  16
ENDBRANCH   1  13
TORSDOF 8
ENDMDL
MODEL      232
REMARK  Name = ZINC000006083389
REMARK                            x       y       z     vdW  Elec       q    Type
REMARK                         _______ _______ _______ _____ _____    ______ ____
ROOT
ATOM      1  C   LIG    1       -0.018   1.461   0.010  0.00  0.00    +0.370 C 
ATOM      2  N   LIG    1        0.002  -0.004   0.002  0.00  0.00    -0.390 N 
ATOM      3  C   LIG    1        0.009  -0.800  -1.085  0.00  0.00    +0.180 A 
ATOM      4  N   LIG    1        0.028  -2.054  -0.714  0.00  0.00    -0.460 NA
ATOM      5  C   LIG    1        0.034  -2.132   0.619  0.00  0.00    +0.330 A 
ATOM      6  N   LIG    1        0.053  -3.184   1.520  0.00  0.00    -0.510 N 
ATOM      7  C   LIG    1        0.063  -4.565   1.032  0.00  0.00    +0.350 C 
ATOM      8  C   LIG    1        0.052  -2.939   2.844  0.00  0.00    +0.710 A 
ATOM      9  O   LIG    1        0.064  -3.876   3.620  0.00  0.00    -0.510 OA
ATOM     10  N   LIG    1        0.042  -1.686   3.330  0.00  0.00    -0.550 N 
ATOM     11  C   LIG    1        0.046  -1.474   4.780  0.00  0.00    +0.360 C 
ATOM     12  C   LIG    1        0.028  -0.620   2.503  0.00  0.00    +0.590 A 
ATOM     13  O   LIG    1        0.019   0.510   2.955  0.00  0.00    -0.500 OA
ATOM     14  C   LIG    1        0.024  -0.831   1.107  0.00  0.00    -0.110 A 
ENDROOT
BRANCH   3  15
ATOM     15  C   LIG    1       -0.004  -0.317  -2.513  0.00  0.00    +0.440 C 
BRANCH  15  16
ATOM     16  N   LIG    1        1.377  -0.142  -2.982  0.00  0.00    -0.640 N 
ATOM     17  H   LIG    1        1.865  -1.024  -2.929  0.00  0.00    +0.450 HD
ATOM     18  H   LIG    1        1.846   0.537  -2.402  0.00  0.00    +0.430 HD
ATOM     19  H   LIG    1        1.369   0.181  -3.938  0.00  0.00    +0.450 HD
ENDBRANCH  15  16
ENDBRANCH   3  15
TORSDOF 2
ENDMDL
MODEL      233
REMARK  Name = ZINC000228980347
REMARK                            x       y       z     vdW  Elec       q    Type
REMARK                         _______ _______ _______ _____ _____    ______ ____
ROOT
ATOM      1  C   LIG    1       -0.018   1.461   0.010  0.00  0.00    +0.410 C 
ATOM      2  N   LIG    1        0.002  -0.004   0.002  0.00  0.00    -0.460 N 
ATOM      3  N   LIG    1        0.006  -0.701  -1.214  0.00  0.00    +0.110 NA
ATOM      4  N   LIG    1        0.023  -1.990  -1.226  0.00  0.00    -0.140 NA
ATOM      5  C   LIG    1        0.038  -2.687  -0.075  0.00  0.00    +0.150 A 
ATOM      6  C   LIG    1        0.057  -4.047   0.217  0.00  0.00    +0.050 A 
ATOM      7  N   LIG    1        0.065  -4.168   1.562  0.00  0.00    -0.430 NA
ATOM      8  C   LIG    1        0.052  -2.988   2.109  0.00  0.00    +0.530 A 
ATOM      9  N   LIG    1        0.035  -2.035   1.135  0.00  0.00    -0.470 N 
ATOM     10  C   LIG    1        0.022  -0.688   1.166  0.00  0.00    +0.680 A 
ATOM     11  O   LIG    1        0.025  -0.097   2.228  0.00  0.00    -0.480 OA
ENDROOT
BRANCH   6  12
ATOM     12  C   LIG    1        0.068  -5.146  -0.757  0.00  0.00    +0.610 C 
ATOM     13  N   LIG    1        0.087  -6.424  -0.330  0.00  0.00    -0.720 N 
ATOM     14  H   LIG    1        0.093  -6.618   0.621  0.00  0.00    +0.420 HD
ATOM     15  O   LIG    1        0.060  -4.903  -1.949  0.00  0.00    -0.490 OA
BRANCH  13  16
ATOM     16  C   LIG    1        0.098  -7.521  -1.301  0.00  0.00    +0.270 C 
BRANCH  16  17
ATOM     17  C   LIG    1        0.119  -8.859  -0.559  0.00  0.00    +0.260 C 
BRANCH  17  18
ATOM     18  N   LIG    1        0.130  -9.959  -1.533  0.00  0.00    -0.630 N 
ATOM     19  H   LIG    1       -0.697  -9.906  -2.109  0.00  0.00    +0.440 HD
ATOM     20  H   LIG    1        0.143 -10.841  -1.044  0.00  0.00    +0.440 HD
ATOM     21  H   LIG    1        0.950  -9.884  -2.115  0.00  0.00    +0.440 HD
ENDBRANCH  17  18
ENDBRANCH  16  17
ENDBRANCH  13  16
ENDBRANCH   6  12
TORSDOF 4
ENDMDL
MODEL      234
REMARK  Name = ZINC000585656246
REMARK                            x       y       z     vdW  Elec       q    Type
REMARK                         _______ _______ _______ _____ _____    ______ ____
ROOT
ATOM      1  C   LIG    1       -1.010  -3.054   1.227  0.00  0.00    +0.520 C 
ATOM      2  N   LIG    1       -2.310  -3.351   1.427  0.00  0.00    -0.630 N 
ATOM      3  C   LIG    1       -3.336  -2.953   0.451  0.00  0.00    +0.310 C 
ATOM      4  C   LIG    1       -4.189  -4.181   0.115  0.00  0.00    +0.270 C 
ATOM      5  N   LIG    1       -4.724  -4.757   1.355  0.00  0.00    -0.510 N 
ATOM      6  C   LIG    1       -3.624  -5.257   2.190  0.00  0.00    +0.270 C 
ATOM      7  H   LIG    1       -5.345  -5.520   1.130  0.00  0.00    +0.440 HD
ATOM      8  H   LIG    1       -5.233  -4.049   1.862  0.00  0.00    +0.430 HD
ATOM      9  C   LIG    1       -2.741  -4.088   2.625  0.00  0.00    +0.330 C 
ATOM     10  O   LIG    1       -0.178  -3.395   2.040  0.00  0.00    -0.470 OA
ENDROOT
BRANCH   1  13
ATOM     11  N   LIG    1        0.002  -0.004   0.002  0.00  0.00    -0.480 N 
ATOM     12  C   LIG    1       -1.183  -0.876   0.003  0.00  0.00    +0.300 C 
ATOM     13  C   LIG    1       -0.592  -2.299  -0.008  0.00  0.00    +0.200 C 
ATOM     14  O   LIG    1        0.849  -2.082  -0.014  0.00  0.00    -0.290 OA
ATOM     15  C   LIG    1        1.103  -0.768  -0.013  0.00  0.00    +0.630 C 
ATOM     16  O   LIG    1        2.228  -0.310  -0.017  0.00  0.00    -0.500 OA
BRANCH  11  17
ATOM     17  N   LIG    1       -0.016   1.362   0.009  0.00  0.00    -0.560 NA
ATOM     18  H   LIG    1       -0.555   1.720  -0.765  0.00  0.00    +0.350 HD
ATOM     19  H   LIG    1        0.920   1.736   0.003  0.00  0.00    +0.380 HD
ENDBRANCH  11  17
ENDBRANCH   1  13
TORSDOF 2
ENDMDL
MODEL      235
REMARK  Name = ZINC000082225302
REMARK                            x       y       z     vdW  Elec       q    Type
REMARK                         _______ _______ _______ _____ _____    ______ ____
ROOT
ATOM      1  C   LIG    1       -0.699   1.479   1.216  0.00  0.00    +0.160 C 
ATOM      2  C   LIG    1       -2.121   0.874   1.316  0.00  0.00    +0.190 C 
ATOM      3  C   LIG    1       -2.279   0.525   2.808  0.00  0.00    +0.150 C 
ATOM      4  O   LIG    1       -1.077   0.946   3.475  0.00  0.00    -0.280 OA
ATOM      5  C   LIG    1       -0.019   0.923   2.493  0.00  0.00    +0.430 C 
ENDROOT
BRANCH   5   6
ATOM      6  N   LIG    1        1.090   1.786   2.909  0.00  0.00    -0.550 N 
ATOM      7  C   LIG    1        2.180   1.929   2.095  0.00  0.00    +0.280 A 
ATOM      8  C   LIG    1        3.201   2.724   2.478  0.00  0.00    -0.040 A 
ATOM      9  C   LIG    1        3.122   3.396   3.721  0.00  0.00    +0.540 A 
ATOM     10  N   LIG    1        2.031   3.228   4.495  0.00  0.00    -0.660 N 
ATOM     11  H   LIG    1        1.969   3.686   5.349  0.00  0.00    +0.440 HD
ATOM     12  O   LIG    1        4.031   4.119   4.088  0.00  0.00    -0.480 OA
ATOM     13  C   LIG    1        1.024   2.434   4.087  0.00  0.00    +0.690 A 
ATOM     14  O   LIG    1        0.046   2.292   4.795  0.00  0.00    -0.480 OA
ENDBRANCH   5   6
BRANCH   1  15
ATOM     15  N   LIG    1       -0.012   1.005   0.008  0.00  0.00    -0.620 N 
ATOM     16  H   LIG    1       -0.500   1.339  -0.810  0.00  0.00    +0.450 HD
ATOM     17  H   LIG    1        0.935   1.354   0.000  0.00  0.00    +0.430 HD
ATOM     18  H   LIG    1        0.002  -0.004   0.002  0.00  0.00    +0.450 HD
ENDBRANCH   1  15
BRANCH   2  19
ATOM     19  O   LIG    1       -2.222  -0.302   0.511  0.00  0.00    -0.570 OA
ATOM     20  H   LIG    1       -3.092  -0.723   0.536  0.00  0.00    +0.430 HD
ENDBRANCH   2  19
BRANCH   3  21
ATOM     21  C   LIG    1       -3.487   1.262   3.390  0.00  0.00    +0.210 C 
BRANCH  21  22
ATOM     22  O   LIG    1       -3.695   0.844   4.741  0.00  0.00    -0.560 OA
ATOM     23  H   LIG    1       -4.446   1.272   5.173  0.00  0.00    +0.390 HD
ENDBRANCH  21  22
ENDBRANCH   3  21
TORSDOF 5
ENDMDL
MODEL      236
REMARK  Name = ZINC000000001866
REMARK                            x       y       z     vdW  Elec       q    Type
REMARK                         _______ _______ _______ _____ _____    ______ ____
ROOT
ATOM      1  C   LIG    1       -1.195  -0.717   0.010  0.00  0.00    +0.400 A 
ATOM      2  C   LIG    1       -1.178  -2.112   0.008  0.00  0.00    +0.100 A 
ATOM      3  C   LIG    1       -2.392  -2.777   0.015  0.00  0.00    +0.130 A 
ATOM      4  C   LIG    1       -3.558  -2.009   0.025  0.00  0.00    +0.380 A 
ATOM      5  N   LIG    1       -3.477  -0.689   0.026  0.00  0.00    -0.300 NA
ATOM      6  N   LIG    1       -2.351  -0.073   0.024  0.00  0.00    -0.300 N 
ATOM      7  H   LIG    1       -2.347   0.897   0.025  0.00  0.00    +0.470 HD
ENDROOT
BRANCH   1   8
ATOM      8  N   LIG    1        0.002  -0.004   0.002  0.00  0.00    -0.530 N 
ATOM      9  H   LIG    1        0.849  -0.478  -0.009  0.00  0.00    +0.440 HD
BRANCH   8  10
ATOM     10  N   LIG    1       -0.016   1.362   0.009  0.00  0.00    -0.610 NA
ATOM     11  H   LIG    1       -0.555   1.720  -0.765  0.00  0.00    +0.350 HD
ATOM     12  H   LIG    1        0.920   1.736   0.003  0.00  0.00    +0.400 HD
ENDBRANCH   8  10
ENDBRANCH   1   8
BRANCH   4  13
ATOM     13  N   LIG    1       -4.804  -2.632   0.033  0.00  0.00    -0.550 N 
BRANCH  13  14
ATOM     14  C   LIG    1       -6.025  -1.829  -0.068  0.00  0.00    +0.330 C 
BRANCH  14  15
ATOM     15  C   LIG    1       -6.405  -1.661  -1.540  0.00  0.00    +0.170 C 
BRANCH  15  16
ATOM     16  O   LIG    1       -6.743  -2.934  -2.094  0.00  0.00    -0.570 OA
ATOM     17  H   LIG    1       -6.994  -2.903  -3.027  0.00  0.00    +0.390 HD
ENDBRANCH  15  16
ENDBRANCH  14  15
ENDBRANCH  13  14
BRANCH  13  18
ATOM     18  C   LIG    1       -4.893  -4.091   0.143  0.00  0.00    +0.330 C 
BRANCH  18  19
ATOM     19  C   LIG    1       -4.970  -4.487   1.619  0.00  0.00    +0.170 C 
BRANCH  19  20
ATOM     20  O   LIG    1       -6.186  -3.991   2.183  0.00  0.00    -0.570 OA
ATOM     21  H   LIG    1       -6.302  -4.205   3.119  0.00  0.00    +0.390 HD
ENDBRANCH  19  20
ENDBRANCH  18  19
ENDBRANCH  13  18
ENDBRANCH   4  13
TORSDOF 9
ENDMDL
MODEL      237
REMARK  Name = ZINC000247723557
REMARK                            x       y       z     vdW  Elec       q    Type
REMARK                         _______ _______ _______ _____ _____    ______ ____
ROOT
ATOM      1  C   LIG    1       -2.851  -2.587  -0.110  0.00  0.00    +0.230 C 
ENDROOT
BRANCH   1   2
ATOM      2  C   LIG    1       -2.840  -4.095  -0.369  0.00  0.00    +0.180 C 
ATOM      3  N   LIG    1       -4.228  -4.633  -0.433  0.00  0.00    -0.510 N 
ATOM      4  C   LIG    1       -4.197  -5.945  -1.108  0.00  0.00    +0.290 C 
ATOM      5  C   LIG    1       -3.380  -5.827  -2.415  0.00  0.00    +0.130 C 
ATOM      6  H   LIG    1       -4.814  -3.999  -0.956  0.00  0.00    +0.440 HD
ATOM      7  H   LIG    1       -4.594  -4.740   0.501  0.00  0.00    +0.440 HD
ATOM      8  S   LIG    1       -2.199  -4.466  -2.049  0.00  0.00    -0.110 S 
ENDBRANCH   1   2
BRANCH   1   9
ATOM      9  O   LIG    1       -3.607  -1.934  -1.132  0.00  0.00    -0.540 OA
ATOM     10  H   LIG    1       -3.261  -2.068  -2.024  0.00  0.00    +0.390 HD
ENDBRANCH   1   9
BRANCH   1  11
ATOM     11  C   LIG    1       -1.416  -2.058  -0.121  0.00  0.00    +0.180 C 
BRANCH  11  12
ATOM     12  O   LIG    1       -0.783  -2.420  -1.350  0.00  0.00    -0.530 OA
ATOM     13  H   LIG    1       -1.223  -2.070  -2.137  0.00  0.00    +0.380 HD
ENDBRANCH  11  12
BRANCH  11  14
ATOM     14  C   LIG    1       -1.433  -0.534   0.013  0.00  0.00    +0.210 C 
BRANCH  14  15
ATOM     15  O   LIG    1       -2.066  -0.171   1.242  0.00  0.00    -0.540 OA
ATOM     16  H   LIG    1       -1.626  -0.521   2.029  0.00  0.00    +0.380 HD
ENDBRANCH  14  15
BRANCH  14  17
ATOM     17  C   LIG    1        0.002  -0.004   0.002  0.00  0.00    +0.160 C 
BRANCH  17  18
ATOM     18  O   LIG    1       -0.017   1.425   0.010  0.00  0.00    -0.560 OA
ATOM     19  H   LIG    1        0.861   1.830   0.004  0.00  0.00    +0.390 HD
ENDBRANCH  17  18
ENDBRANCH  14  17
ENDBRANCH  11  14
ENDBRANCH   1  11
TORSDOF 8
ENDMDL
MODEL      238
REMARK  Name = ZINC000022116242
REMARK                            x       y       z     vdW  Elec       q    Type
REMARK                         _______ _______ _______ _____ _____    ______ ____
ROOT
ATOM      1  N   LIG    1       -0.215   1.997   0.899  0.00  0.00    -0.640 N 
ATOM      2  C   LIG    1       -1.144   2.385   0.109  0.00  0.00    +0.400 C 
ATOM      3  H   LIG    1        0.493   2.609   1.153  0.00  0.00    +0.440 HD
ATOM      4  H   LIG    1       -0.218   1.089   1.242  0.00  0.00    +0.440 HD
ENDROOT
BRANCH   2   5
ATOM      5  C   LIG    1       -2.241   1.433  -0.290  0.00  0.00    -0.070 C 
BRANCH   5   6
ATOM      6  C   LIG    1       -2.084   0.121   0.483  0.00  0.00    +0.200 C 
BRANCH   6   7
ATOM      7  O   LIG    1       -3.125  -0.782   0.105  0.00  0.00    -0.550 OA
ATOM      8  H   LIG    1       -3.088  -1.636   0.557  0.00  0.00    +0.400 HD
ENDBRANCH   6   7
ENDBRANCH   5   6
BRANCH   5   9
ATOM      9  C   LIG    1       -2.153   1.153  -1.791  0.00  0.00    +0.260 C 
BRANCH   9  10
ATOM     10  O   LIG    1       -0.884   0.570  -2.094  0.00  0.00    -0.580 OA
ATOM     11  H   LIG    1       -0.758   0.366  -3.030  0.00  0.00    +0.410 HD
ENDBRANCH   9  10
ENDBRANCH   5   9
BRANCH   5  12
ATOM     12  C   LIG    1       -3.600   2.056   0.034  0.00  0.00    +0.260 C 
BRANCH  12  13
ATOM     13  O   LIG    1       -3.751   2.161   1.451  0.00  0.00    -0.570 OA
ATOM     14  H   LIG    1       -4.592   2.549   1.730  0.00  0.00    +0.410 HD
ENDBRANCH  12  13
ENDBRANCH   5  12
ENDBRANCH   2   5
BRANCH   2  15
ATOM     15  C   LIG    1       -1.140   3.795  -0.423  0.00  0.00    +0.050 C 
BRANCH  15  16
ATOM     16  C   LIG    1        0.275   4.370  -0.334  0.00  0.00    +0.030 C 
BRANCH  16  17
ATOM     17  C   LIG    1        0.293   5.777  -0.933  0.00  0.00    +0.200 C 
BRANCH  17  18
ATOM     18  O   LIG    1        1.635   6.267  -0.960  0.00  0.00    -0.570 OA
ATOM     19  H   LIG    1        1.722   7.157  -1.329  0.00  0.00    +0.400 HD
ENDBRANCH  17  18
ENDBRANCH  16  17
ENDBRANCH  15  16
BRANCH  15  20
ATOM     20  C   LIG    1       -2.093   4.657   0.408  0.00  0.00    +0.090 C 
BRANCH  20  21
ATOM     21  C   LIG    1       -1.550   4.789   1.832  0.00  0.00    +0.160 C 
BRANCH  21  22
ATOM     22  O   LIG    1       -2.495   5.496   2.639  0.00  0.00    -0.560 OA
ATOM     23  H   LIG    1       -2.216   5.617   3.556  0.00  0.00    +0.390 HD
ENDBRANCH  21  22
ENDBRANCH  20  21
ENDBRANCH  15  20
ENDBRANCH   2  15
TORSDOF 14
ENDMDL
MODEL      239
REMARK  Name = ZINC000008655600
REMARK                            x       y       z     vdW  Elec       q    Type
REMARK                         _______ _______ _______ _____ _____    ______ ____
ROOT
ATOM      1  C   LIG    1       -4.370  -0.206  -2.217  0.00  0.00    +0.280 C 
ENDROOT
BRANCH   1   2
ATOM      2  N   LIG    1       -5.744  -0.713  -2.207  0.00  0.00    -0.700 N 
ATOM      3  H   LIG    1       -6.047  -1.279  -1.480  0.00  0.00    +0.410 HD
ATOM      4  C   LIG    1       -6.588  -0.394  -3.208  0.00  0.00    +0.500 C 
ATOM      5  O   LIG    1       -6.210   0.314  -4.118  0.00  0.00    -0.520 OA
BRANCH   4   6
ATOM      6  C   LIG    1       -8.002  -0.915  -3.197  0.00  0.00    +0.180 C 
ATOM      7  C   LIG    1       -8.854  -0.060  -2.257  0.00  0.00    +0.120 C 
BRANCH   6   8
ATOM      8  N   LIG    1       -8.558  -0.852  -4.556  0.00  0.00    -0.620 N 
ATOM      9  H   LIG    1       -8.555   0.105  -4.876  0.00  0.00    +0.440 HD
ATOM     10  H   LIG    1       -9.504  -1.201  -4.549  0.00  0.00    +0.440 HD
ATOM     11  H   LIG    1       -7.996  -1.416  -5.176  0.00  0.00    +0.440 HD
ENDBRANCH   6   8
ENDBRANCH   4   6
ENDBRANCH   1   2
BRANCH   1  12
ATOM     12  C   LIG    1       -3.630  -0.713  -0.978  0.00  0.00    +0.270 C 
BRANCH  12  14
ATOM     13  C   LIG    1       -1.412  -0.526   0.013  0.00  0.00    +0.520 C 
ATOM     14  N   LIG    1       -2.256  -0.206  -0.988  0.00  0.00    -0.730 N 
ATOM     15  H   LIG    1       -1.953   0.360  -1.716  0.00  0.00    +0.400 HD
ATOM     16  O   LIG    1       -1.790  -1.233   0.922  0.00  0.00    -0.520 OA
BRANCH  13  18
ATOM     17  C   LIG    1       -0.019   1.526   0.010  0.00  0.00    +0.050 C 
ATOM     18  C   LIG    1        0.002  -0.004   0.002  0.00  0.00    +0.130 C 
BRANCH  18  19
ATOM     19  N   LIG    1        0.713  -0.491   1.192  0.00  0.00    -0.830 NA
ATOM     20  H   LIG    1        1.664  -0.154   1.208  0.00  0.00    +0.350 HD
ATOM     21  H   LIG    1        0.684  -1.498   1.243  0.00  0.00    +0.350 HD
ENDBRANCH  18  19
ENDBRANCH  13  18
ENDBRANCH  12  14
ENDBRANCH   1  12
TORSDOF 7
ENDMDL
MODEL      240
REMARK  Name = ZINC000253495694
REMARK                            x       y       z     vdW  Elec       q    Type
REMARK                         _______ _______ _______ _____ _____    ______ ____
ROOT
ATOM      1  N   LIG    1       -2.607  -2.683  -0.010  0.00  0.00    -0.490 NA
ATOM      2  C   LIG    1       -3.466  -1.986   0.965  0.00  0.00    +0.220 C 
ATOM      3  C   LIG    1       -4.879  -2.563   0.947  0.00  0.00    +0.290 C 
ATOM      4  N   LIG    1       -4.855  -4.014   1.202  0.00  0.00    -0.490 N 
ATOM      5  C   LIG    1       -4.041  -4.643   0.162  0.00  0.00    +0.200 C 
ATOM      6  C   LIG    1       -3.955  -6.175   0.320  0.00  0.00    -0.300 C 
ATOM      7  S   LIG    1       -2.496  -6.583  -0.719  0.00  0.00    +2.420 S 
ATOM      8  C   LIG    1       -1.702  -4.932  -0.646  0.00  0.00    -0.270 C 
ATOM      9  O   LIG    1       -2.924  -6.845  -2.049  0.00  0.00    -0.890 OA
ATOM     10  O   LIG    1       -1.683  -7.528  -0.038  0.00  0.00    -0.900 OA
ATOM     11  H   LIG    1       -5.794  -4.382   1.170  0.00  0.00    +0.440 HD
ATOM     12  H   LIG    1       -4.449  -4.195   2.108  0.00  0.00    +0.430 HD
ATOM     13  C   LIG    1       -2.600  -4.114   0.290  0.00  0.00    +0.160 C 
ENDROOT
BRANCH   1  14
ATOM     14  C   LIG    1       -1.244  -2.135   0.003  0.00  0.00    +0.330 C 
BRANCH  14  15
ATOM     15  C   LIG    1       -0.669  -2.251   1.391  0.00  0.00    +0.440 C 
ATOM     16  O   LIG    1       -1.281  -2.839   2.251  0.00  0.00    -0.530 OA
BRANCH  15  18
ATOM     17  C   LIG    1        1.015  -1.852   3.029  0.00  0.00    +0.280 C 
ATOM     18  O   LIG    1        0.523  -1.702   1.671  0.00  0.00    -0.350 OA
ENDBRANCH  15  18
ENDBRANCH  14  15
ENDBRANCH   1  14
TORSDOF 3
ENDMDL
MODEL      241
REMARK  Name = ZINC000253495697
REMARK                            x       y       z     vdW  Elec       q    Type
REMARK                         _______ _______ _______ _____ _____    ______ ____
ROOT
ATOM      1  N   LIG    1       -2.647  -2.571   0.013  0.00  0.00    -0.500 NA
ATOM      2  C   LIG    1       -3.315  -2.235  -1.257  0.00  0.00    +0.220 C 
ATOM      3  C   LIG    1       -4.773  -2.688  -1.235  0.00  0.00    +0.300 C 
ATOM      4  N   LIG    1       -4.868  -4.130  -0.951  0.00  0.00    -0.500 N 
ATOM      5  C   LIG    1       -4.239  -4.380   0.344  0.00  0.00    +0.210 C 
ATOM      6  C   LIG    1       -4.329  -5.841   0.795  0.00  0.00    -0.310 C 
ATOM      7  S   LIG    1       -2.840  -6.090   1.836  0.00  0.00    +2.410 S 
ATOM      8  C   LIG    1       -2.112  -4.422   1.586  0.00  0.00    -0.260 C 
ATOM      9  O   LIG    1       -2.002  -7.068   1.233  0.00  0.00    -0.900 OA
ATOM     10  O   LIG    1       -3.232  -6.235   3.194  0.00  0.00    -0.890 OA
ATOM     11  H   LIG    1       -4.388  -4.652  -1.669  0.00  0.00    +0.430 HD
ATOM     12  H   LIG    1       -5.837  -4.409  -0.918  0.00  0.00    +0.440 HD
ATOM     13  C   LIG    1       -2.747  -4.013   0.244  0.00  0.00    +0.160 C 
ENDROOT
BRANCH   1  14
ATOM     14  C   LIG    1       -1.244  -2.135   0.003  0.00  0.00    +0.290 C 
BRANCH  14  15
ATOM     15  C   LIG    1       -1.185  -0.630   0.010  0.00  0.00    +0.460 C 
ATOM     16  O   LIG    1       -2.208   0.015   0.023  0.00  0.00    -0.490 OA
BRANCH  15  18
ATOM     17  C   LIG    1       -0.018   1.448   0.010  0.00  0.00    +0.290 C 
ATOM     18  O   LIG    1        0.002  -0.004   0.002  0.00  0.00    -0.350 OA
ENDBRANCH  15  18
ENDBRANCH  14  15
ENDBRANCH   1  14
TORSDOF 3
ENDMDL
MODEL      242
REMARK  Name = ZINC000253495812
REMARK                            x       y       z     vdW  Elec       q    Type
REMARK                         _______ _______ _______ _____ _____    ______ ____
ROOT
ATOM      1  N   LIG    1       -2.197  -0.222  -1.203  0.00  0.00    -0.510 NA
ATOM      2  C   LIG    1       -2.006   1.185  -1.601  0.00  0.00    +0.210 C 
ATOM      3  C   LIG    1       -2.806   1.500  -2.863  0.00  0.00    +0.290 C 
ATOM      4  N   LIG    1       -4.234   1.190  -2.669  0.00  0.00    -0.490 N 
ATOM      5  C   LIG    1       -4.349  -0.231  -2.342  0.00  0.00    +0.200 C 
ATOM      6  C   LIG    1       -5.810  -0.675  -2.130  0.00  0.00    -0.300 C 
ATOM      7  S   LIG    1       -5.598  -2.262  -1.228  0.00  0.00    +2.420 S 
ATOM      8  C   LIG    1       -3.930  -1.911  -0.551  0.00  0.00    -0.260 C 
ATOM      9  O   LIG    1       -5.515  -3.328  -2.164  0.00  0.00    -0.900 OA
ATOM     10  O   LIG    1       -6.535  -2.326  -0.162  0.00  0.00    -0.900 OA
ATOM     11  H   LIG    1       -4.744   1.387  -3.517  0.00  0.00    +0.440 HD
ATOM     12  H   LIG    1       -4.603   1.745  -1.912  0.00  0.00    +0.430 HD
ATOM     13  C   LIG    1       -3.623  -0.480  -1.007  0.00  0.00    +0.170 C 
ENDROOT
BRANCH   1  14
ATOM     14  C   LIG    1       -1.433  -0.534   0.013  0.00  0.00    +0.260 C 
BRANCH  14  15
ATOM     15  C   LIG    1       -1.635   0.581   1.041  0.00  0.00    +0.160 C 
BRANCH  15  16
ATOM     16  O   LIG    1       -3.003   0.607   1.453  0.00  0.00    -0.580 OA
ATOM     17  H   LIG    1       -3.205   1.291   2.106  0.00  0.00    +0.390 HD
ENDBRANCH  15  16
ENDBRANCH  14  15
ENDBRANCH   1  14
TORSDOF 3
ENDMDL
MODEL      243
REMARK  Name = ZINC000253495814
REMARK                            x       y       z     vdW  Elec       q    Type
REMARK                         _______ _______ _______ _____ _____    ______ ____
ROOT
ATOM      1  N   LIG    1       -2.003  -0.170  -1.291  0.00  0.00    -0.510 NA
ATOM      2  C   LIG    1       -1.624   1.198  -1.669  0.00  0.00    +0.220 C 
ATOM      3  C   LIG    1       -2.190   1.496  -3.061  0.00  0.00    +0.290 C 
ATOM      4  N   LIG    1       -3.653   1.405  -3.009  0.00  0.00    -0.510 N 
ATOM      5  C   LIG    1       -4.069   0.043  -2.645  0.00  0.00    +0.230 C 
ATOM      6  C   LIG    1       -5.607   0.054  -2.477  0.00  0.00    -0.290 C 
ATOM      7  S   LIG    1       -5.886   0.459  -0.715  0.00  0.00    +2.400 S 
ATOM      8  C   LIG    1       -4.122   0.514  -0.216  0.00  0.00    -0.350 C 
ATOM      9  O   LIG    1       -6.526  -0.637  -0.075  0.00  0.00    -0.890 OA
ATOM     10  O   LIG    1       -6.446   1.761  -0.614  0.00  0.00    -0.910 OA
ATOM     11  H   LIG    1       -4.034   1.638  -3.913  0.00  0.00    +0.440 HD
ATOM     12  H   LIG    1       -4.003   2.056  -2.321  0.00  0.00    +0.420 HD
ATOM     13  C   LIG    1       -3.449  -0.358  -1.300  0.00  0.00    +0.220 C 
ENDROOT
BRANCH   1  14
ATOM     14  C   LIG    1       -1.433  -0.534   0.013  0.00  0.00    +0.220 C 
BRANCH  14  15
ATOM     15  C   LIG    1       -1.610  -2.035   0.246  0.00  0.00    +0.180 C 
BRANCH  15  16
ATOM     16  O   LIG    1       -0.865  -2.761  -0.735  0.00  0.00    -0.560 OA
ATOM     17  H   LIG    1       -0.931  -3.721  -0.647  0.00  0.00    +0.390 HD
ENDBRANCH  15  16
ENDBRANCH  14  15
ENDBRANCH   1  14
TORSDOF 3
ENDMDL
MODEL      244
REMARK  Name = ZINC000253495815
REMARK                            x       y       z     vdW  Elec       q    Type
REMARK                         _______ _______ _______ _____ _____    ______ ____
ROOT
ATOM      1  N   LIG    1       -2.107  -0.147  -1.234  0.00  0.00    -0.500 NA
ATOM      2  C   LIG    1       -1.529  -0.858  -2.389  0.00  0.00    +0.210 C 
ATOM      3  C   LIG    1       -2.233  -0.448  -3.681  0.00  0.00    +0.290 C 
ATOM      4  N   LIG    1       -3.685  -0.684  -3.583  0.00  0.00    -0.500 N 
ATOM      5  C   LIG    1       -4.196   0.094  -2.457  0.00  0.00    +0.210 C 
ATOM      6  C   LIG    1       -5.714  -0.008  -2.283  0.00  0.00    -0.310 C 
ATOM      7  S   LIG    1       -5.986   0.225  -0.485  0.00  0.00    +2.410 S 
ATOM      8  C   LIG    1       -4.215   0.332  -0.005  0.00  0.00    -0.250 C 
ATOM      9  O   LIG    1       -6.555  -0.956   0.063  0.00  0.00    -0.900 OA
ATOM     10  O   LIG    1       -6.611   1.482  -0.262  0.00  0.00    -0.900 OA
ATOM     11  H   LIG    1       -3.861  -1.665  -3.427  0.00  0.00    +0.430 HD
ATOM     12  H   LIG    1       -4.137  -0.388  -4.435  0.00  0.00    +0.440 HD
ATOM     13  C   LIG    1       -3.542  -0.427  -1.163  0.00  0.00    +0.140 C 
ENDROOT
BRANCH   1  14
ATOM     14  C   LIG    1       -1.433  -0.534   0.013  0.00  0.00    +0.220 C 
BRANCH  14  15
ATOM     15  C   LIG    1        0.002  -0.004   0.002  0.00  0.00    +0.190 C 
BRANCH  15  16
ATOM     16  O   LIG    1       -0.017   1.425   0.010  0.00  0.00    -0.560 OA
ATOM     17  H   LIG    1        0.861   1.830   0.004  0.00  0.00    +0.390 HD
ENDBRANCH  15  16
ENDBRANCH  14  15
ENDBRANCH   1  14
TORSDOF 3
ENDMDL
MODEL      245
REMARK  Name = ZINC000253495696
REMARK                            x       y       z     vdW  Elec       q    Type
REMARK                         _______ _______ _______ _____ _____    ______ ____
ROOT
ATOM      1  N   LIG    1       -2.671  -2.480  -0.062  0.00  0.00    -0.510 NA
ATOM      2  C   LIG    1       -3.460  -1.621   0.830  0.00  0.00    +0.230 C 
ATOM      3  C   LIG    1       -4.941  -1.981   0.672  0.00  0.00    +0.300 C 
ATOM      4  N   LIG    1       -5.135  -3.381   1.065  0.00  0.00    -0.510 N 
ATOM      5  C   LIG    1       -4.367  -4.271   0.182  0.00  0.00    +0.240 C 
ATOM      6  C   LIG    1       -4.508  -5.710   0.734  0.00  0.00    -0.280 C 
ATOM      7  S   LIG    1       -3.118  -5.904   1.907  0.00  0.00    +2.400 S 
ATOM      8  C   LIG    1       -2.355  -4.261   1.624  0.00  0.00    -0.350 C 
ATOM      9  O   LIG    1       -2.243  -6.920   1.437  0.00  0.00    -0.890 OA
ATOM     10  O   LIG    1       -3.626  -5.966   3.233  0.00  0.00    -0.900 OA
ATOM     11  H   LIG    1       -6.114  -3.613   0.999  0.00  0.00    +0.440 HD
ATOM     12  H   LIG    1       -4.825  -3.506   2.017  0.00  0.00    +0.420 HD
ATOM     13  C   LIG    1       -2.879  -3.896   0.217  0.00  0.00    +0.220 C 
ENDROOT
BRANCH   1  14
ATOM     14  C   LIG    1       -1.244  -2.135   0.003  0.00  0.00    +0.300 C 
BRANCH  14  15
ATOM     15  C   LIG    1       -0.509  -2.826  -1.117  0.00  0.00    +0.460 C 
ATOM     16  O   LIG    1       -1.125  -3.442  -1.955  0.00  0.00    -0.490 OA
BRANCH  15  18
ATOM     17  C   LIG    1        1.470  -3.448  -2.290  0.00  0.00    +0.290 C 
ATOM     18  O   LIG    1        0.830  -2.759  -1.184  0.00  0.00    -0.350 OA
ENDBRANCH  15  18
ENDBRANCH  14  15
ENDBRANCH   1  14
TORSDOF 3
ENDMDL
MODEL      246
REMARK  Name = ZINC000084378729
REMARK                            x       y       z     vdW  Elec       q    Type
REMARK                         _______ _______ _______ _____ _____    ______ ____
ROOT
ATOM      1  N   LIG    1       -0.694   1.447   3.637  0.00  0.00    -0.380 N 
ATOM      2  C   LIG    1       -1.266   0.689   4.593  0.00  0.00    +0.320 A 
ATOM      3  C   LIG    1       -1.629   1.534   5.603  0.00  0.00    -0.080 A 
ATOM      4  N   LIG    1       -1.279   2.784   5.259  0.00  0.00    -0.180 NA
ATOM      5  N   LIG    1       -0.716   2.770   4.100  0.00  0.00    -0.060 NA
ENDROOT
BRANCH   3   6
ATOM      6  C   LIG    1       -2.293   1.139   6.860  0.00  0.00    +0.600 C 
ATOM      7  N   LIG    1       -2.731   2.084   7.716  0.00  0.00    -0.600 N 
ATOM      8  C   LIG    1       -2.698   3.510   7.352  0.00  0.00    +0.270 C 
ATOM      9  C   LIG    1       -4.083   4.109   7.623  0.00  0.00    +0.210 C 
ATOM     10  O   LIG    1       -4.474   3.805   8.964  0.00  0.00    -0.380 OA
ATOM     11  C   LIG    1       -4.612   2.407   9.231  0.00  0.00    +0.220 C 
ATOM     12  C   LIG    1       -3.260   1.720   9.040  0.00  0.00    +0.260 C 
ATOM     13  O   LIG    1       -2.446  -0.038   7.124  0.00  0.00    -0.530 OA
ENDBRANCH   3   6
BRANCH   1  14
ATOM     14  C   LIG    1       -0.147   0.978   2.361  0.00  0.00    +0.350 C 
BRANCH  14  15
ATOM     15  C   LIG    1       -0.797   1.751   1.212  0.00  0.00    +0.270 C 
BRANCH  15  16
ATOM     16  N   LIG    1       -0.249   1.280  -0.067  0.00  0.00    -0.630 N 
ATOM     17  H   LIG    1       -0.678   1.790  -0.825  0.00  0.00    +0.450 HD
ATOM     18  H   LIG    1        0.748   1.433  -0.082  0.00  0.00    +0.440 HD
ATOM     19  H   LIG    1       -0.440   0.295  -0.173  0.00  0.00    +0.440 HD
ENDBRANCH  15  16
ENDBRANCH  14  15
ENDBRANCH   1  14
TORSDOF 4
ENDMDL
MODEL      247
REMARK  Name = ZINC000225597893
REMARK                            x       y       z     vdW  Elec       q    Type
REMARK                         _______ _______ _______ _____ _____    ______ ____
ROOT
ATOM      1  C   LIG    1       -0.699   1.479   1.216  0.00  0.00    +0.190 C 
ATOM      2  C   LIG    1       -0.723   3.009   1.221  0.00  0.00    +0.060 C 
ATOM      3  C   LIG    1       -1.190   3.482   2.603  0.00  0.00    +0.070 C 
ATOM      4  C   LIG    1       -0.117   3.125   3.631  0.00  0.00    +0.290 C 
ATOM      5  N   LIG    1        0.258   1.722   3.512  0.00  0.00    -0.560 N 
ATOM      6  C   LIG    1        0.026   0.977   2.432  0.00  0.00    +0.500 C 
ATOM      7  O   LIG    1        0.419  -0.171   2.431  0.00  0.00    -0.530 OA
ENDROOT
BRANCH   1   8
ATOM      8  N   LIG    1       -0.012   1.005   0.008  0.00  0.00    -0.620 N 
ATOM      9  H   LIG    1       -0.500   1.339  -0.810  0.00  0.00    +0.440 HD
ATOM     10  H   LIG    1        0.935   1.354   0.000  0.00  0.00    +0.440 HD
ATOM     11  H   LIG    1        0.002  -0.004   0.002  0.00  0.00    +0.450 HD
ENDBRANCH   1   8
BRANCH   5  12
ATOM     12  C   LIG    1        0.932   1.091   4.650  0.00  0.00    +0.330 C 
BRANCH  12  13
ATOM     13  C   LIG    1       -0.097   0.494   5.575  0.00  0.00    +0.500 C 
ATOM     14  N   LIG    1        0.294  -0.142   6.697  0.00  0.00    -0.720 N 
ATOM     15  H   LIG    1        1.238  -0.215   6.909  0.00  0.00    +0.410 HD
ATOM     16  O   LIG    1       -1.277   0.585   5.310  0.00  0.00    -0.540 OA
BRANCH  14  17
ATOM     17  C   LIG    1       -0.706  -0.723   7.596  0.00  0.00    +0.280 C 
BRANCH  17  18
ATOM     18  C   LIG    1       -0.002  -1.381   8.784  0.00  0.00    +0.190 C 
BRANCH  18  19
ATOM     19  O   LIG    1        0.665  -0.381   9.557  0.00  0.00    -0.570 OA
ATOM     20  H   LIG    1        1.134  -0.727  10.328  0.00  0.00    +0.390 HD
ENDBRANCH  18  19
ENDBRANCH  17  18
ENDBRANCH  14  17
ENDBRANCH  12  13
ENDBRANCH   5  12
TORSDOF 6
ENDMDL
MODEL      248
REMARK  Name = ZINC000257308393
REMARK                            x       y       z     vdW  Elec       q    Type
REMARK                         _______ _______ _______ _____ _____    ______ ____
ROOT
ATOM      1  C   LIG    1        2.795  -0.825  -2.739  0.00  0.00    +0.180 C 
ATOM      2  C   LIG    1        4.218  -0.313  -3.080  0.00  0.00    +0.090 C 
ATOM      3  C   LIG    1        4.383  -0.713  -4.564  0.00  0.00    +0.080 C 
ATOM      4  C   LIG    1        2.948  -0.876  -5.098  0.00  0.00    +0.200 C 
ATOM      5  N   LIG    1        2.028  -0.558  -3.983  0.00  0.00    -0.520 N 
ATOM      6  H   LIG    1        1.757   0.413  -4.021  0.00  0.00    +0.420 HD
ATOM      7  H   LIG    1        1.211  -1.149  -4.026  0.00  0.00    +0.440 HD
ENDROOT
BRANCH   1   8
ATOM      8  C   LIG    1        2.207  -0.042  -1.563  0.00  0.00    +0.320 C 
BRANCH   8   9
ATOM      9  N   LIG    1        0.796  -0.399  -1.397  0.00  0.00    -1.140 NA
ATOM     10  H   LIG    1        0.327  -0.866  -2.105  0.00  0.00    +0.410 HD
BRANCH   9  12
ATOM     11  C   LIG    1       -0.022   1.810   0.012  0.00  0.00    -0.270 C 
ATOM     12  S   LIG    1        0.002  -0.004   0.002  0.00  0.00    +2.610 S 
ATOM     13  O   LIG    1       -1.309  -0.519  -0.182  0.00  0.00    -0.940 OA
ATOM     14  O   LIG    1        0.845  -0.497   1.035  0.00  0.00    -0.940 OA
ENDBRANCH   9  12
ENDBRANCH   8   9
ENDBRANCH   1   8
BRANCH   4  15
ATOM     15  C   LIG    1        2.713   0.086  -6.265  0.00  0.00    +0.100 C 
BRANCH  15  16
ATOM     16  C   LIG    1        1.338  -0.142  -6.836  0.00  0.00    +0.510 C 
ATOM     17  O   LIG    1        0.616  -0.991  -6.357  0.00  0.00    -0.560 OA
ATOM     18  N   LIG    1        0.909   0.596  -7.879  0.00  0.00    -0.840 N 
ATOM     19  H   LIG    1        0.024   0.449  -8.246  0.00  0.00    +0.420 HD
ATOM     20  H   LIG    1        1.487   1.275  -8.262  0.00  0.00    +0.410 HD
ENDBRANCH  15  16
ENDBRANCH   4  15
TORSDOF 5
ENDMDL
MODEL      249
REMARK  Name = ZINC000257261138
REMARK                            x       y       z     vdW  Elec       q    Type
REMARK                         _______ _______ _______ _____ _____    ______ ____
ROOT
ATOM      1  C   LIG    1       -0.699   1.479   1.216  0.00  0.00    +0.200 C 
ATOM      2  C   LIG    1       -0.720   3.008   1.225  0.00  0.00    +0.060 C 
ATOM      3  C   LIG    1       -1.436   3.502   2.483  0.00  0.00    +0.060 C 
ATOM      4  C   LIG    1       -0.696   2.995   3.723  0.00  0.00    +0.290 C 
ATOM      5  C   LIG    1       -0.675   1.465   3.715  0.00  0.00    +0.160 C 
ATOM      6  C   LIG    1        0.041   0.972   2.456  0.00  0.00    +0.150 C 
ENDROOT
BRANCH   4   7
ATOM      7  N   LIG    1       -1.382   3.467   4.928  0.00  0.00    -0.530 N 
ATOM      8  C   LIG    1       -2.683   3.109   5.152  0.00  0.00    +0.360 A 
ATOM      9  C   LIG    1       -3.315   3.545   6.263  0.00  0.00    -0.120 A 
ATOM     10  C   LIG    1       -2.613   4.366   7.177  0.00  0.00    +0.540 A 
ATOM     11  N   LIG    1       -1.331   4.697   6.921  0.00  0.00    -0.660 N 
ATOM     12  H   LIG    1       -0.844   5.259   7.543  0.00  0.00    +0.430 HD
ATOM     13  O   LIG    1       -3.162   4.771   8.187  0.00  0.00    -0.500 OA
ATOM     14  C   LIG    1       -0.724   4.245   5.808  0.00  0.00    +0.700 A 
ATOM     15  O   LIG    1        0.432   4.551   5.590  0.00  0.00    -0.540 OA
ENDBRANCH   4   7
BRANCH   1  16
ATOM     16  N   LIG    1       -0.012   1.005   0.008  0.00  0.00    -0.630 N 
ATOM     17  H   LIG    1       -0.500   1.339  -0.810  0.00  0.00    +0.440 HD
ATOM     18  H   LIG    1        0.935   1.354   0.000  0.00  0.00    +0.440 HD
ATOM     19  H   LIG    1        0.002  -0.004   0.002  0.00  0.00    +0.440 HD
ENDBRANCH   1  16
BRANCH   5  20
ATOM     20  O   LIG    1       -2.016   0.971   3.725  0.00  0.00    -0.550 OA
ATOM     21  H   LIG    1       -2.079   0.006   3.720  0.00  0.00    +0.390 HD
ENDBRANCH   5  20
BRANCH   6  22
ATOM     22  O   LIG    1        1.381   1.466   2.446  0.00  0.00    -0.560 OA
ATOM     23  H   LIG    1        1.911   1.184   3.204  0.00  0.00    +0.410 HD
ENDBRANCH   6  22
TORSDOF 4
ENDMDL
MODEL      250
REMARK  Name = ZINC000257308947
REMARK                            x       y       z     vdW  Elec       q    Type
REMARK                         _______ _______ _______ _____ _____    ______ ____
ROOT
ATOM      1  C   LIG    1        0.713  -0.491   1.192  0.00  0.00    +0.140 C 
ATOM      2  C   LIG    1        2.180  -0.066   1.119  0.00  0.00    +0.060 C 
ATOM      3  C   LIG    1        2.822  -0.660  -0.136  0.00  0.00    +0.030 C 
ATOM      4  C   LIG    1        2.735  -2.187  -0.079  0.00  0.00    +0.060 C 
ATOM      5  C   LIG    1        1.267  -2.612  -0.006  0.00  0.00    +0.180 C 
ATOM      6  C   LIG    1        0.626  -2.017   1.249  0.00  0.00    +0.150 C 
ENDROOT
BRANCH   5   7
ATOM      7  N   LIG    1        1.184  -4.077   0.049  0.00  0.00    -0.510 NA
ATOM      8  C   LIG    1       -0.218  -4.525   0.075  0.00  0.00    +0.200 C 
ATOM      9  C   LIG    1       -0.256  -6.034  -0.179  0.00  0.00    +0.280 C 
ATOM     10  N   LIG    1        0.681  -6.715   0.709  0.00  0.00    -0.720 N 
ATOM     11  H   LIG    1        0.576  -7.669   0.850  0.00  0.00    +0.410 HD
ATOM     12  C   LIG    1        1.679  -6.083   1.336  0.00  0.00    +0.520 C 
ATOM     13  O   LIG    1        2.431  -6.731   2.032  0.00  0.00    -0.540 OA
ATOM     14  C   LIG    1        1.906  -4.602   1.215  0.00  0.00    +0.220 C 
ENDBRANCH   5   7
BRANCH   1  16
ATOM     15  C   LIG    1       -0.018   1.465   0.010  0.00  0.00    +0.330 C 
ATOM     16  N   LIG    1        0.002  -0.004   0.002  0.00  0.00    -0.510 N 
ATOM     17  H   LIG    1        0.474  -0.330  -0.828  0.00  0.00    +0.430 HD
ATOM     18  H   LIG    1       -0.945  -0.353   0.009  0.00  0.00    +0.430 HD
ENDBRANCH   1  16
BRANCH   6  19
ATOM     19  O   LIG    1       -0.745  -2.414   1.317  0.00  0.00    -0.550 OA
ATOM     20  H   LIG    1       -1.216  -2.073   2.090  0.00  0.00    +0.390 HD
ENDBRANCH   6  19
TORSDOF 3
ENDMDL
MODEL      251
REMARK  Name = ZINC000257310009
REMARK                            x       y       z     vdW  Elec       q    Type
REMARK                         _______ _______ _______ _____ _____    ______ ____
ROOT
ATOM      1  C   LIG    1       -0.699   1.479   1.216  0.00  0.00    +0.130 C 
ATOM      2  C   LIG    1       -0.651   3.024   1.305  0.00  0.00    +0.040 C 
ATOM      3  C   LIG    1       -0.824   3.322   2.808  0.00  0.00    +0.160 C 
ATOM      4  C   LIG    1       -0.369   2.060   3.562  0.00  0.00    +0.220 C 
ATOM      5  C   LIG    1        0.062   1.035   2.490  0.00  0.00    +0.210 C 
ENDROOT
BRANCH   4   6
ATOM      6  N   LIG    1       -1.481   1.519   4.354  0.00  0.00    -0.520 NA
ATOM      7  C   LIG    1       -2.596   1.112   3.487  0.00  0.00    +0.130 C 
ATOM      8  C   LIG    1       -3.707   0.500   4.345  0.00  0.00    +0.230 C 
ATOM      9  O   LIG    1       -4.110   1.446   5.339  0.00  0.00    -0.380 OA
ATOM     10  C   LIG    1       -3.049   1.863   6.202  0.00  0.00    +0.240 C 
ATOM     11  C   LIG    1       -1.932   2.489   5.362  0.00  0.00    +0.170 C 
ENDBRANCH   4   6
BRANCH   1  12
ATOM     12  N   LIG    1       -0.012   1.005   0.008  0.00  0.00    -0.630 N 
ATOM     13  H   LIG    1       -0.500   1.339  -0.810  0.00  0.00    +0.440 HD
ATOM     14  H   LIG    1        0.935   1.354   0.000  0.00  0.00    +0.440 HD
ATOM     15  H   LIG    1        0.002  -0.004   0.002  0.00  0.00    +0.440 HD
ENDBRANCH   1  12
BRANCH   3  16
ATOM     16  O   LIG    1       -0.012   4.437   3.183  0.00  0.00    -0.550 OA
ATOM     17  H   LIG    1       -0.236   5.259   2.725  0.00  0.00    +0.390 HD
ENDBRANCH   3  16
BRANCH   5  18
ATOM     18  O   LIG    1        1.473   1.099   2.275  0.00  0.00    -0.530 OA
ATOM     19  H   LIG    1        1.799   0.476   1.611  0.00  0.00    +0.380 HD
ENDBRANCH   5  18
TORSDOF 4
ENDMDL
MODEL      252
REMARK  Name = ZINC000257237667
REMARK                            x       y       z     vdW  Elec       q    Type
REMARK                         _______ _______ _______ _____ _____    ______ ____
ROOT
ATOM      1  C   LIG    1       -1.300  -0.558  -0.020  0.00  0.00    +0.140 C 
ATOM      2  C   LIG    1       -2.032  -0.169   1.281  0.00  0.00    +0.060 C 
ATOM      3  C   LIG    1       -2.939  -1.387   1.585  0.00  0.00    +0.080 C 
ATOM      4  C   LIG    1       -2.049  -2.587   1.174  0.00  0.00    +0.160 C 
ATOM      5  C   LIG    1       -1.310  -2.095  -0.089  0.00  0.00    +0.200 C 
ENDROOT
BRANCH   4   6
ATOM      6  N   LIG    1       -2.877  -3.759   0.864  0.00  0.00    -0.520 NA
ATOM      7  C   LIG    1       -3.762  -4.094   1.992  0.00  0.00    +0.180 C 
ATOM      8  C   LIG    1       -4.805  -5.106   1.516  0.00  0.00    +0.280 C 
ATOM      9  N   LIG    1       -4.149  -6.215   0.828  0.00  0.00    -0.720 N 
ATOM     10  H   LIG    1       -4.639  -7.043   0.712  0.00  0.00    +0.410 HD
ATOM     11  C   LIG    1       -2.901  -6.139   0.353  0.00  0.00    +0.520 C 
ATOM     12  O   LIG    1       -2.443  -7.097  -0.232  0.00  0.00    -0.540 OA
ATOM     13  C   LIG    1       -2.042  -4.916   0.515  0.00  0.00    +0.240 C 
ENDBRANCH   4   6
BRANCH   1  15
ATOM     14  C   LIG    1        0.082   1.403  -0.024  0.00  0.00    +0.320 C 
ATOM     15  N   LIG    1        0.084  -0.065   0.015  0.00  0.00    -0.500 N 
ATOM     16  H   LIG    1        0.531  -0.379   0.863  0.00  0.00    +0.430 HD
ATOM     17  H   LIG    1        0.588  -0.422  -0.783  0.00  0.00    +0.420 HD
ENDBRANCH   1  15
BRANCH   5  18
ATOM     18  O   LIG    1        0.028  -2.594  -0.099  0.00  0.00    -0.550 OA
ATOM     19  H   LIG    1        0.545  -2.320  -0.869  0.00  0.00    +0.380 HD
ENDBRANCH   5  18
TORSDOF 3
ENDMDL
MODEL      253
REMARK  Name = ZINC000001580560
REMARK                            x       y       z     vdW  Elec       q    Type
REMARK                         _______ _______ _______ _____ _____    ______ ____
ROOT
ATOM      1  N   LIG    1        2.781  -2.553   3.982  0.00  0.00    -0.350 N 
ATOM      2  N   LIG    1        2.574  -3.846   4.476  0.00  0.00    -0.290 NA
ATOM      3  C   LIG    1        3.424  -4.079   5.436  0.00  0.00    +0.380 A 
ATOM      4  C   LIG    1        4.229  -2.928   5.605  0.00  0.00    -0.360 A 
ATOM      5  C   LIG    1        3.800  -1.990   4.669  0.00  0.00    +0.460 A 
ENDROOT
BRANCH   1   9
ATOM      6  C   LIG    1        0.694  -0.696   0.992  0.00  0.00    +0.430 A 
ATOM      7  C   LIG    1        0.719  -2.091   0.983  0.00  0.00    +0.100 A 
ATOM      8  C   LIG    1        1.421  -2.735   1.988  0.00  0.00    +0.210 A 
ATOM      9  C   LIG    1        2.059  -1.948   2.947  0.00  0.00    +0.390 A 
ATOM     10  N   LIG    1        1.981  -0.630   2.876  0.00  0.00    -0.260 NA
ATOM     11  N   LIG    1        1.335  -0.032   1.941  0.00  0.00    -0.320 N 
ATOM     12  H   LIG    1        1.309   0.937   1.935  0.00  0.00    +0.470 HD
BRANCH   6  13
ATOM     13  N   LIG    1        0.002  -0.004   0.002  0.00  0.00    -0.510 N 
ATOM     14  H   LIG    1       -0.467  -0.492  -0.693  0.00  0.00    +0.450 HD
BRANCH  13  15
ATOM     15  N   LIG    1       -0.016   1.362   0.009  0.00  0.00    -0.610 NA
ATOM     16  H   LIG    1       -0.555   1.720  -0.765  0.00  0.00    +0.400 HD
ATOM     17  H   LIG    1        0.920   1.736   0.003  0.00  0.00    +0.360 HD
ENDBRANCH  13  15
ENDBRANCH   6  13
ENDBRANCH   1   9
BRANCH   4  18
ATOM     18  C   LIG    1        5.316  -2.757   6.577  0.00  0.00    +0.610 C 
ATOM     19  O   LIG    1        5.935  -1.711   6.619  0.00  0.00    -0.560 OA
ATOM     20  N   LIG    1        5.627  -3.760   7.422  0.00  0.00    -0.850 N 
ATOM     21  H   LIG    1        6.345  -3.647   8.065  0.00  0.00    +0.410 HD
ATOM     22  H   LIG    1        5.133  -4.594   7.389  0.00  0.00    +0.400 HD
ENDBRANCH   4  18
BRANCH   5  23
ATOM     23  N   LIG    1        4.312  -0.723   4.483  0.00  0.00    -0.800 N 
ATOM     24  H   LIG    1        3.939  -0.144   3.799  0.00  0.00    +0.410 HD
ATOM     25  H   LIG    1        5.045  -0.410   5.037  0.00  0.00    +0.440 HD
ENDBRANCH   5  23
TORSDOF 5
ENDMDL
MODEL      254
REMARK  Name = ZINC000001682039
REMARK                            x       y       z     vdW  Elec       q    Type
REMARK                         _______ _______ _______ _____ _____    ______ ____
ROOT
ATOM      1  C   LIG    1       -0.206   5.343  -0.006  0.00  0.00    +0.370 C 
ENDROOT
BRANCH   1   7
ATOM      2  O   LIG    1        4.006   6.860  -3.106  0.00  0.00    -0.500 OA
ATOM      3  C   LIG    1        3.061   6.530  -2.416  0.00  0.00    +0.690 A 
ATOM      4  N   LIG    1        3.049   5.311  -1.846  0.00  0.00    -0.630 N 
ATOM      5  H   LIG    1        3.793   4.706  -1.991  0.00  0.00    +0.450 HD
ATOM      6  C   LIG    1        1.997   4.917  -1.065  0.00  0.00    +0.440 A 
ATOM      7  C   LIG    1        0.961   5.759  -0.864  0.00  0.00    -0.350 A 
ATOM      8  C   LIG    1        0.986   7.039  -1.469  0.00  0.00    +0.560 A 
ATOM      9  O   LIG    1        0.064   7.816  -1.302  0.00  0.00    -0.510 OA
ATOM     10  N   LIG    1        2.044   7.391  -2.228  0.00  0.00    -0.650 N 
ATOM     11  H   LIG    1        2.069   8.267  -2.645  0.00  0.00    +0.440 HD
ENDBRANCH   1   7
BRANCH   1  12
ATOM     12  N   LIG    1        0.008   5.807   1.371  0.00  0.00    -0.380 N 
ATOM     13  H   LIG    1        0.900   5.473   1.704  0.00  0.00    +0.430 HD
BRANCH  12  14
ATOM     14  C   LIG    1       -1.062   5.290   2.234  0.00  0.00    +0.280 C 
BRANCH  14  15
ATOM     15  C   LIG    1       -0.957   3.766   2.319  0.00  0.00    +0.220 C 
BRANCH  15  16
ATOM     16  O   LIG    1        0.276   3.408   2.946  0.00  0.00    -0.580 OA
ATOM     17  H   LIG    1        0.410   2.454   3.033  0.00  0.00    +0.410 HD
ENDBRANCH  15  16
ENDBRANCH  14  15
ENDBRANCH  12  14
BRANCH  12  18
ATOM     18  C   LIG    1       -0.006   7.276   1.401  0.00  0.00    +0.280 C 
BRANCH  18  19
ATOM     19  C   LIG    1        0.340   7.761   2.810  0.00  0.00    +0.210 C 
BRANCH  19  20
ATOM     20  O   LIG    1        1.684   7.389   3.125  0.00  0.00    -0.580 OA
ATOM     21  H   LIG    1        1.972   7.665   4.005  0.00  0.00    +0.410 HD
ENDBRANCH  19  20
ENDBRANCH  18  19
ENDBRANCH  12  18
ENDBRANCH   1  12
TORSDOF 8
ENDMDL
MODEL      255
REMARK  Name = ZINC000002560360
REMARK                            x       y       z     vdW  Elec       q    Type
REMARK                         _______ _______ _______ _____ _____    ______ ____
ROOT
ATOM      1  C   LIG    1        1.827  -4.119  -4.157  0.00  0.00    +0.260 C 
ATOM      2  C   LIG    1        1.499  -3.129  -5.276  0.00  0.00    +0.070 C 
ENDROOT
BRANCH   1   5
ATOM      3  N   LIG    1        1.354  -2.503  -2.345  0.00  0.00    -0.710 N 
ATOM      4  H   LIG    1        1.990  -1.899  -2.760  0.00  0.00    +0.420 HD
ATOM      5  C   LIG    1        1.111  -3.709  -2.896  0.00  0.00    +0.520 C 
ATOM      6  O   LIG    1        0.316  -4.463  -2.377  0.00  0.00    -0.530 OA
BRANCH   3   7
ATOM      7  C   LIG    1        0.657  -2.104  -1.120  0.00  0.00    +0.280 C 
ATOM      8  C   LIG    1        1.412  -2.647   0.096  0.00  0.00    +0.080 C 
BRANCH   7   9
ATOM      9  C   LIG    1        0.598  -0.600  -1.043  0.00  0.00    +0.460 C 
ATOM     10  O   LIG    1        1.088   0.070  -1.921  0.00  0.00    -0.500 OA
BRANCH   9  12
ATOM     11  C   LIG    1       -0.018   1.448   0.010  0.00  0.00    +0.280 C 
ATOM     12  O   LIG    1        0.002  -0.004   0.002  0.00  0.00    -0.350 OA
ENDBRANCH   9  12
ENDBRANCH   7   9
ENDBRANCH   3   7
ENDBRANCH   1   5
BRANCH   1  13
ATOM     13  N   LIG    1        1.393  -5.462  -4.550  0.00  0.00    -0.680 N 
ATOM     14  H   LIG    1        0.524  -5.792  -4.271  0.00  0.00    +0.420 HD
ATOM     15  C   LIG    1        2.200  -6.239  -5.298  0.00  0.00    +0.510 C 
ATOM     16  O   LIG    1        3.286  -5.827  -5.647  0.00  0.00    -0.530 OA
BRANCH  15  17
ATOM     17  C   LIG    1        1.754  -7.620  -5.703  0.00  0.00    +0.180 C 
ATOM     18  C   LIG    1        1.491  -8.459  -4.450  0.00  0.00    +0.120 C 
BRANCH  17  19
ATOM     19  N   LIG    1        2.803  -8.259  -6.508  0.00  0.00    -0.620 N 
ATOM     20  H   LIG    1        2.976  -7.706  -7.335  0.00  0.00    +0.440 HD
ATOM     21  H   LIG    1        2.504  -9.183  -6.779  0.00  0.00    +0.440 HD
ATOM     22  H   LIG    1        3.651  -8.325  -5.965  0.00  0.00    +0.440 HD
ENDBRANCH  17  19
ENDBRANCH  15  17
ENDBRANCH   1  13
TORSDOF 7
ENDMDL
MODEL      256
REMARK  Name = ZINC000225503403
REMARK                            x       y       z     vdW  Elec       q    Type
REMARK                         _______ _______ _______ _____ _____    ______ ____
ROOT
ATOM      1  C   LIG    1        0.148  -4.708   2.006  0.00  0.00    +0.180 C 
ATOM      2  C   LIG    1        0.378  -6.220   1.802  0.00  0.00    +0.080 C 
ATOM      3  C   LIG    1        0.054  -6.843   3.182  0.00  0.00    +0.030 C 
ATOM      4  C   LIG    1       -1.152  -5.999   3.664  0.00  0.00    +0.160 C 
ATOM      5  C   LIG    1       -0.824  -4.567   3.191  0.00  0.00    +0.120 C 
ENDROOT
BRANCH   1   6
ATOM      6  N   LIG    1       -0.444  -4.122   0.796  0.00  0.00    -0.500 N 
ATOM      7  H   LIG    1        0.146  -4.321   0.003  0.00  0.00    +0.430 HD
ATOM      8  H   LIG    1       -1.359  -4.518   0.643  0.00  0.00    +0.430 HD
BRANCH   6  13
ATOM      9  C   LIG    1       -0.018   1.465   0.010  0.00  0.00    +0.210 C 
ATOM     10  N   LIG    1        0.002  -0.004   0.002  0.00  0.00    -0.550 NA
ATOM     11  C   LIG    1       -1.359  -0.548  -0.089  0.00  0.00    +0.200 C 
ATOM     12  C   LIG    1       -1.292  -2.070  -0.241  0.00  0.00    +0.050 C 
ATOM     13  C   LIG    1       -0.563  -2.667   0.965  0.00  0.00    +0.160 C 
ATOM     14  C   LIG    1        0.834  -2.048   1.065  0.00  0.00    +0.060 C 
ATOM     15  C   LIG    1        0.706  -0.527   1.180  0.00  0.00    +0.210 C 
ENDBRANCH   6  13
ENDBRANCH   1   6
BRANCH   4  16
ATOM     16  O   LIG    1       -1.257  -6.045   5.088  0.00  0.00    -0.530 OA
ATOM     17  H   LIG    1       -1.996  -5.533   5.445  0.00  0.00    +0.380 HD
ENDBRANCH   4  16
BRANCH   5  18
ATOM     18  O   LIG    1       -0.207  -3.831   4.248  0.00  0.00    -0.540 OA
ATOM     19  H   LIG    1       -0.764  -3.726   5.032  0.00  0.00    +0.400 HD
ENDBRANCH   5  18
BRANCH   3  20
ATOM     20  C   LIG    1       -0.335  -8.316   3.034  0.00  0.00    +0.190 C 
BRANCH  20  21
ATOM     21  O   LIG    1       -0.514  -8.894   4.329  0.00  0.00    -0.560 OA
ATOM     22  H   LIG    1       -0.762  -9.828   4.312  0.00  0.00    +0.390 HD
ENDBRANCH  20  21
ENDBRANCH   3  20
TORSDOF 6
ENDMDL
MODEL      257
REMARK  Name = ZINC000002579085
REMARK                            x       y       z     vdW  Elec       q    Type
REMARK                         _______ _______ _______ _____ _____    ______ ____
ROOT
ATOM      1  CA  ARG A  2        0.738  -0.999  -3.621  0.00  0.00    +0.160 C 
ENDROOT
BRANCH   1   3
ATOM      2  C   ALA A  1        0.707  -0.490  -1.238  0.00  0.00    +0.500 C 
ATOM      3  N   ARG A  2        0.053  -0.526  -2.415  0.00  0.00    -0.670 N 
ATOM      4  H   ARG A  2       -0.873  -0.239  -2.465  0.00  0.00    +0.400 HD
ATOM      5  O   ALA A  1        1.864  -0.849  -1.176  0.00  0.00    -0.530 OA
BRANCH   2   7
ATOM      6  CB  ALA A  1       -0.019   1.526   0.010  0.00  0.00    +0.110 C 
ATOM      7  CA  ALA A  1        0.002  -0.004   0.002  0.00  0.00    +0.160 C 
BRANCH   7   8
ATOM      8  N   ALA A  1        0.713  -0.491   1.192  0.00  0.00    -0.620 N 
ATOM      9  H1  ALA A  1        0.726  -1.500   1.187  0.00  0.00    +0.440 HD
ATOM     10  H2  ALA A  1        0.240  -0.165   2.022  0.00  0.00    +0.440 HD
ATOM     11  H3  ALA A  1        1.659  -0.141   1.185  0.00  0.00    +0.440 HD
ENDBRANCH   7   8
ENDBRANCH   2   7
ENDBRANCH   1   3
BRANCH   1  12
ATOM     12  C   ARG A  2        1.501   0.142  -4.244  0.00  0.00    +0.490 C 
ATOM     13  OXT ARG A  2        2.145  -0.041  -5.263  0.00  0.00    -0.680 OA
ATOM     14  O   ARG A  2        1.474   1.247  -3.730  0.00  0.00    -0.680 OA
ENDBRANCH   1  12
BRANCH   1  15
ATOM     15  CB  ARG A  2       -0.292  -1.529  -4.619  0.00  0.00    +0.060 C 
BRANCH  15  16
ATOM     16  CG  ARG A  2       -0.980  -2.764  -4.034  0.00  0.00    +0.020 C 
BRANCH  16  17
ATOM     17  CD  ARG A  2       -2.011  -3.295  -5.032  0.00  0.00    +0.280 C 
BRANCH  17  18
ATOM     18  NE  ARG A  2       -2.670  -4.478  -4.472  0.00  0.00    -0.690 N 
ATOM     19  HE  ARG A  2       -2.421  -4.800  -3.592  0.00  0.00    +0.430 HD
ATOM     20  CZ  ARG A  2       -3.635  -5.127  -5.191  0.00  0.00    +0.740 C 
BRANCH  20  21
ATOM     21  NH2 ARG A  2       -4.234  -6.203  -4.682  0.00  0.00    -0.800 N 
ATOM     22 HH21 ARG A  2       -3.985  -6.525  -3.801  0.00  0.00    +0.440 HD
ATOM     23 HH22 ARG A  2       -4.919  -6.663  -5.191  0.00  0.00    +0.440 HD
ENDBRANCH  20  21
BRANCH  20  24
ATOM     24  NH1 ARG A  2       -3.977  -4.685  -6.400  0.00  0.00    -0.790 N 
ATOM     25 HH11 ARG A  2       -4.662  -5.145  -6.909  0.00  0.00    +0.440 HD
ATOM     26 HH12 ARG A  2       -3.541  -3.901  -6.771  0.00  0.00    +0.440 HD
ENDBRANCH  20  24
ENDBRANCH  17  18
ENDBRANCH  16  17
ENDBRANCH  15  16
ENDBRANCH   1  15
TORSDOF 10
ENDMDL
MODEL      258
REMARK  Name = ZINC000062718373
REMARK                            x       y       z     vdW  Elec       q    Type
REMARK                         _______ _______ _______ _____ _____    ______ ____
ROOT
ATOM      1  N   LIG    1        0.059  -4.669  -1.411  0.00  0.00    -0.680 NA
ATOM      2  H   LIG    1       -0.730  -4.301  -1.921  0.00  0.00    +0.350 HD
ENDROOT
BRANCH   1   3
ATOM      3  C   LIG    1        0.059  -4.188  -0.023  0.00  0.00    +0.260 C 
BRANCH   3   7
ATOM      4  C   LIG    1        0.002  -0.004   0.002  0.00  0.00    +0.570 A 
ATOM      5  N   LIG    1       -1.145  -0.666   0.004  0.00  0.00    -0.570 NA
ATOM      6  C   LIG    1       -1.163  -1.989  -0.004  0.00  0.00    +0.370 A 
ATOM      7  C   LIG    1        0.038  -2.681  -0.014  0.00  0.00    -0.280 A 
ATOM      8  C   LIG    1        1.220  -1.957  -0.015  0.00  0.00    +0.390 A 
ATOM      9  N   LIG    1        1.167  -0.635  -0.013  0.00  0.00    -0.570 NA
BRANCH   4  10
ATOM     10  N   LIG    1       -0.017   1.380   0.010  0.00  0.00    -0.810 N 
ATOM     11  H   LIG    1       -0.863   1.853   0.016  0.00  0.00    +0.420 HD
ATOM     12  H   LIG    1        0.817   1.876   0.004  0.00  0.00    +0.420 HD
ENDBRANCH   4  10
ENDBRANCH   3   7
ENDBRANCH   1   3
BRANCH   1  13
ATOM     13  C   LIG    1        0.079  -6.137  -1.459  0.00  0.00    +0.190 C 
BRANCH  13  14
ATOM     14  C   LIG    1        0.078  -6.599  -2.918  0.00  0.00    +0.260 C 
BRANCH  14  15
ATOM     15  N   LIG    1        0.098  -8.067  -2.966  0.00  0.00    -0.510 N 
ATOM     16  H   LIG    1       -0.719  -8.430  -2.498  0.00  0.00    +0.430 HD
ATOM     17  H   LIG    1        0.928  -8.408  -2.505  0.00  0.00    +0.430 HD
BRANCH  15  18
ATOM     18  C   LIG    1        0.097  -8.511  -4.366  0.00  0.00    +0.290 C 
BRANCH  18  19
ATOM     19  C   LIG    1        0.117 -10.040  -4.416  0.00  0.00    +0.210 C 
BRANCH  19  20
ATOM     20  O   LIG    1       -1.094 -10.552  -3.857  0.00  0.00    -0.580 OA
ATOM     21  H   LIG    1       -1.150 -11.517  -3.856  0.00  0.00    +0.410 HD
ENDBRANCH  19  20
ENDBRANCH  18  19
ENDBRANCH  15  18
ENDBRANCH  14  15
ENDBRANCH  13  14
ENDBRANCH   1  13
TORSDOF 9
ENDMDL
MODEL      259
REMARK  Name = ZINC000050224790
REMARK                            x       y       z     vdW  Elec       q    Type
REMARK                         _______ _______ _______ _____ _____    ______ ____
ROOT
ATOM      1  N   LIG    1        2.257  -5.738  -1.776  0.00  0.00    -0.270 N 
ATOM      2  C   LIG    1        1.857  -6.443  -2.860  0.00  0.00    +0.200 A 
ATOM      3  C   LIG    1        1.981  -7.749  -2.527  0.00  0.00    -0.110 A 
ATOM      4  N   LIG    1        2.445  -7.779  -1.273  0.00  0.00    -0.240 NA
ATOM      5  N   LIG    1        2.603  -6.571  -0.859  0.00  0.00    -0.020 NA
ENDROOT
BRANCH   1   6
ATOM      6  C   LIG    1        2.296  -4.277  -1.669  0.00  0.00    +0.380 C 
BRANCH   6   9
ATOM      7  N   LIG    1        1.401  -2.532  -0.162  0.00  0.00    -0.710 N 
ATOM      8  H   LIG    1        1.835  -1.870  -0.723  0.00  0.00    +0.410 HD
ATOM      9  C   LIG    1        1.505  -3.841  -0.462  0.00  0.00    +0.500 C 
ATOM     10  O   LIG    1        0.963  -4.669   0.239  0.00  0.00    -0.510 OA
BRANCH   7  11
ATOM     11  C   LIG    1        0.633  -2.108   1.011  0.00  0.00    +0.290 C 
BRANCH  11  12
ATOM     12  C   LIG    1        0.673  -0.582   1.123  0.00  0.00    +0.170 C 
BRANCH  12  14
ATOM     13  C   LIG    1       -0.017   1.425   0.010  0.00  0.00    +0.210 C 
ATOM     14  O   LIG    1        0.002  -0.004   0.002  0.00  0.00    -0.390 OA
ENDBRANCH  12  14
ENDBRANCH  11  12
ENDBRANCH   7  11
ENDBRANCH   6   9
ENDBRANCH   1   6
BRANCH   3  15
ATOM     15  C   LIG    1        1.659  -8.936  -3.399  0.00  0.00    +0.400 C 
BRANCH  15  16
ATOM     16  N   LIG    1        2.882  -9.395  -4.071  0.00  0.00    -0.640 N 
ATOM     17  H   LIG    1        2.667 -10.190  -4.654  0.00  0.00    +0.440 HD
ATOM     18  H   LIG    1        3.567  -9.661  -3.379  0.00  0.00    +0.440 HD
ATOM     19  H   LIG    1        3.253  -8.649  -4.641  0.00  0.00    +0.430 HD
ENDBRANCH  15  16
ENDBRANCH   3  15
TORSDOF 7
ENDMDL
MODEL      260
REMARK  Name = ZINC000050242766
REMARK                            x       y       z     vdW  Elec       q    Type
REMARK                         _______ _______ _______ _____ _____    ______ ____
ROOT
ATOM      1  C   LIG    1        2.296  -4.277  -1.669  0.00  0.00    +0.210 C 
ENDROOT
BRANCH   1   2
ATOM      2  N   LIG    1        2.257  -5.742  -1.777  0.00  0.00    -0.490 NA
ATOM      3  C   LIG    1        0.918  -6.207  -2.220  0.00  0.00    +0.210 C 
ATOM      4  C   LIG    1        1.201  -7.627  -2.773  0.00  0.00    +0.070 C 
ATOM      5  C   LIG    1        2.575  -7.461  -3.462  0.00  0.00    +0.170 C 
ATOM      6  C   LIG    1        3.210  -6.224  -2.800  0.00  0.00    +0.200 C 
BRANCH   5   7
ATOM      7  N   LIG    1        3.408  -8.649  -3.229  0.00  0.00    -0.630 N 
ATOM      8  H   LIG    1        3.529  -8.786  -2.237  0.00  0.00    +0.440 HD
ATOM      9  H   LIG    1        4.309  -8.518  -3.663  0.00  0.00    +0.440 HD
ATOM     10  H   LIG    1        2.957  -9.459  -3.629  0.00  0.00    +0.440 HD
ENDBRANCH   5   7
ENDBRANCH   1   2
BRANCH   1  13
ATOM     11  N   LIG    1        1.401  -2.532  -0.162  0.00  0.00    -0.720 N 
ATOM     12  H   LIG    1        1.835  -1.870  -0.723  0.00  0.00    +0.400 HD
ATOM     13  C   LIG    1        1.505  -3.841  -0.462  0.00  0.00    +0.510 C 
ATOM     14  O   LIG    1        0.963  -4.669   0.239  0.00  0.00    -0.520 OA
BRANCH  11  15
ATOM     15  C   LIG    1        0.633  -2.108   1.011  0.00  0.00    +0.290 C 
BRANCH  15  16
ATOM     16  C   LIG    1        0.673  -0.582   1.123  0.00  0.00    +0.170 C 
BRANCH  16  18
ATOM     17  C   LIG    1       -0.017   1.425   0.010  0.00  0.00    +0.210 C 
ATOM     18  O   LIG    1        0.002  -0.004   0.002  0.00  0.00    -0.390 OA
ENDBRANCH  16  18
ENDBRANCH  15  16
ENDBRANCH  11  15
ENDBRANCH   1  13
TORSDOF 6
ENDMDL
MODEL      261
REMARK  Name = ZINC000019677177
REMARK                            x       y       z     vdW  Elec       q    Type
REMARK                         _______ _______ _______ _____ _____    ______ ____
ROOT
ATOM      1  C   LIG    1        0.609  -0.451  -1.303  0.00  0.00    +0.500 C 
ATOM      2  N   LIG    1        0.088  -0.024  -2.470  0.00  0.00    -0.580 N 
ATOM      3  C   LIG    1       -0.997   0.967  -2.486  0.00  0.00    +0.280 C 
ATOM      4  C   LIG    1       -0.564   2.153  -3.357  0.00  0.00    +0.300 C 
ATOM      5  N   LIG    1       -0.057   1.637  -4.636  0.00  0.00    -1.010 NA
ATOM      6  C   LIG    1        1.028   0.646  -4.620  0.00  0.00    +0.300 C 
ATOM      7  C   LIG    1        0.599  -0.536  -3.749  0.00  0.00    +0.300 C 
ATOM      8  O   LIG    1        1.567  -1.195  -1.302  0.00  0.00    -0.520 OA
ENDROOT
BRANCH   5   9
ATOM      9  S   LIG    1       -0.697   2.163  -6.070  0.00  0.00    +2.610 S 
ATOM     10  O   LIG    1       -2.019   2.565  -5.738  0.00  0.00    -0.950 OA
ATOM     11  O   LIG    1       -0.462   1.090  -6.973  0.00  0.00    -0.940 OA
ATOM     12  C   LIG    1        0.313   3.602  -6.516  0.00  0.00    -0.280 C 
ENDBRANCH   5   9
BRANCH   1  14
ATOM     13  C   LIG    1        0.613   1.335   0.418  0.00  0.00    +0.120 C 
ATOM     14  C   LIG    1        0.002  -0.005   0.002  0.00  0.00    +0.160 C 
BRANCH  14  15
ATOM     15  N   LIG    1        0.273  -1.010   1.038  0.00  0.00    -0.620 N 
ATOM     16  H   LIG    1        1.270  -1.116   1.150  0.00  0.00    +0.440 HD
ATOM     17  H   LIG    1       -0.130  -1.893   0.764  0.00  0.00    +0.440 HD
ATOM     18  H   LIG    1       -0.134  -0.711   1.912  0.00  0.00    +0.440 HD
ENDBRANCH  14  15
ENDBRANCH   1  14
TORSDOF 3
ENDMDL
MODEL      262
REMARK  Name = ZINC000257215071
REMARK                            x       y       z     vdW  Elec       q    Type
REMARK                         _______ _______ _______ _____ _____    ______ ____
ROOT
ATOM      1  C   LIG    1        0.144   0.858   2.571  0.00  0.00    -0.050 C 
ATOM      2  C   LIG    1       -0.084  -0.660   2.779  0.00  0.00    +0.010 C 
ATOM      3  C   LIG    1       -0.019  -0.807   4.320  0.00  0.00    +0.140 C 
ATOM      4  C   LIG    1       -0.722   0.460   4.851  0.00  0.00    +0.190 C 
ATOM      5  C   LIG    1       -0.616   1.521   3.739  0.00  0.00    +0.220 C 
ENDROOT
BRANCH   5   6
ATOM      6  N   LIG    1        0.125   2.691   4.229  0.00  0.00    -0.520 NA
ATOM      7  C   LIG    1        0.213   3.731   3.193  0.00  0.00    +0.150 C 
ATOM      8  C   LIG    1        0.939   4.952   3.764  0.00  0.00    +0.230 C 
ATOM      9  O   LIG    1        2.226   4.554   4.243  0.00  0.00    -0.380 OA
ATOM     10  C   LIG    1        2.178   3.543   5.254  0.00  0.00    +0.240 C 
ATOM     11  C   LIG    1        1.464   2.308   4.698  0.00  0.00    +0.150 C 
ENDBRANCH   5   6
BRANCH   4  12
ATOM     12  O   LIG    1       -2.094   0.177   5.132  0.00  0.00    -0.550 OA
ATOM     13  H   LIG    1       -2.225  -0.499   5.811  0.00  0.00    +0.400 HD
ENDBRANCH   4  12
BRANCH   3  14
ATOM     14  O   LIG    1       -0.716  -1.982   4.740  0.00  0.00    -0.550 OA
ATOM     15  H   LIG    1       -0.349  -2.804   4.387  0.00  0.00    +0.390 HD
ENDBRANCH   3  14
BRANCH   1  16
ATOM     16  C   LIG    1       -0.438   1.308   1.230  0.00  0.00    +0.280 C 
BRANCH  16  17
ATOM     17  N   LIG    1        0.348   0.724   0.135  0.00  0.00    -0.640 N 
ATOM     18  H   LIG    1       -0.036   1.021  -0.750  0.00  0.00    +0.440 HD
ATOM     19  H   LIG    1        1.306   1.033   0.206  0.00  0.00    +0.440 HD
ATOM     20  H   LIG    1        0.314  -0.282   0.196  0.00  0.00    +0.430 HD
ENDBRANCH  16  17
ENDBRANCH   1  16
TORSDOF 5
ENDMDL
MODEL      263
REMARK  Name = ZINC000257212366
REMARK                            x       y       z     vdW  Elec       q    Type
REMARK                         _______ _______ _______ _____ _____    ______ ____
ROOT
ATOM      1  C   LIG    1       -0.657   1.366   1.218  0.00  0.00    +0.150 C 
ATOM      2  C   LIG    1       -0.678   2.894   1.157  0.00  0.00    +0.060 C 
ATOM      3  C   LIG    1       -1.415   3.443   2.380  0.00  0.00    +0.040 C 
ATOM      4  C   LIG    1       -0.696   2.994   3.653  0.00  0.00    +0.180 C 
ATOM      5  C   LIG    1       -0.675   1.465   3.715  0.00  0.00    +0.180 C 
ATOM      6  C   LIG    1        0.062   0.916   2.491  0.00  0.00    +0.180 C 
ENDROOT
BRANCH   5   7
ATOM      7  N   LIG    1       -2.054   0.957   3.725  0.00  0.00    -0.530 NA
ATOM      8  C   LIG    1       -2.834   1.573   4.808  0.00  0.00    +0.170 C 
ATOM      9  C   LIG    1       -4.276   1.061   4.745  0.00  0.00    +0.230 C 
ATOM     10  O   LIG    1       -4.273  -0.367   4.824  0.00  0.00    -0.380 OA
ATOM     11  C   LIG    1       -3.523  -1.000   3.784  0.00  0.00    +0.220 C 
ATOM     12  C   LIG    1       -2.073  -0.509   3.837  0.00  0.00    +0.150 C 
ENDBRANCH   5   7
BRANCH   1  13
ATOM     13  N   LIG    1        0.050   0.838   0.044  0.00  0.00    -0.640 N 
ATOM     14  H   LIG    1       -0.424   1.135  -0.796  0.00  0.00    +0.440 HD
ATOM     15  H   LIG    1        0.997   1.187   0.037  0.00  0.00    +0.430 HD
ATOM     16  H   LIG    1        0.064  -0.170   0.084  0.00  0.00    +0.440 HD
ENDBRANCH   1  13
BRANCH   4  17
ATOM     17  O   LIG    1        0.644   3.488   3.643  0.00  0.00    -0.540 OA
ATOM     18  H   LIG    1        0.708   4.453   3.605  0.00  0.00    +0.380 HD
ENDBRANCH   4  17
BRANCH   6  19
ATOM     19  O   LIG    1        1.402   1.410   2.481  0.00  0.00    -0.510 OA
ATOM     20  H   LIG    1        1.930   1.102   1.732  0.00  0.00    +0.370 HD
ENDBRANCH   6  19
TORSDOF 4
ENDMDL
MODEL      264
REMARK  Name = ZINC000257211999
REMARK                            x       y       z     vdW  Elec       q    Type
REMARK                         _______ _______ _______ _____ _____    ______ ____
ROOT
ATOM      1  C   LIG    1       -0.018   1.461   0.010  0.00  0.00    +0.310 C 
ATOM      2  N   LIG    1        0.002  -0.004   0.002  0.00  0.00    -0.610 N 
ATOM      3  C   LIG    1        0.006  -0.699  -1.159  0.00  0.00    +0.490 C 
ATOM      4  C   LIG    1       -0.092  -2.194  -1.242  0.00  0.00    +0.310 C 
ATOM      5  O   LIG    1       -0.093  -2.817   0.055  0.00  0.00    -0.330 OA
ATOM      6  C   LIG    1       -0.828  -2.042   0.979  0.00  0.00    +0.140 C 
ATOM      7  C   LIG    1       -0.990  -2.573   2.402  0.00  0.00    +0.320 C 
ATOM      8  N   LIG    1       -1.239  -1.342   3.206  0.00  0.00    -0.390 N 
ATOM      9  C   LIG    1       -0.656  -0.184   2.476  0.00  0.00    +0.280 C 
ATOM     10  H   LIG    1       -2.232  -1.206   3.321  0.00  0.00    +0.430 HD
ATOM     11  O   LIG    1        0.096  -0.076  -2.196  0.00  0.00    -0.500 OA
ATOM     12  C   LIG    1        0.024  -0.760   1.234  0.00  0.00    +0.200 C 
ENDROOT
BRANCH   8  13
ATOM     13  C   LIG    1       -0.599  -1.470   4.521  0.00  0.00    +0.300 C 
BRANCH  13  14
ATOM     14  C   LIG    1       -1.289  -2.579   5.319  0.00  0.00    +0.060 C 
BRANCH  14  15
ATOM     15  C   LIG    1       -0.632  -2.710   6.668  0.00  0.00    +0.520 C 
ATOM     16  O   LIG    1        0.297  -1.988   6.964  0.00  0.00    -0.530 OA
ATOM     17  N   LIG    1       -1.076  -3.630   7.547  0.00  0.00    -0.840 N 
ATOM     18  H   LIG    1       -0.654  -3.715   8.416  0.00  0.00    +0.420 HD
ATOM     19  H   LIG    1       -1.819  -4.208   7.311  0.00  0.00    +0.410 HD
ENDBRANCH  14  15
ENDBRANCH  13  14
ENDBRANCH   8  13
TORSDOF 3
ENDMDL
MODEL      265
REMARK  Name = ZINC000257198308
REMARK                            x       y       z     vdW  Elec       q    Type
REMARK                         _______ _______ _______ _____ _____    ______ ____
ROOT
ATOM      1  C   LIG    1       -0.018   1.465   0.010  0.00  0.00    +0.230 C 
ATOM      2  N   LIG    1        0.002  -0.004   0.002  0.00  0.00    -0.550 NA
ATOM      3  C   LIG    1       -1.357  -0.551  -0.195  0.00  0.00    +0.220 C 
ATOM      4  C   LIG    1       -1.221  -1.896  -0.864  0.00  0.00    +0.280 C 
ATOM      5  N   LIG    1       -1.232  -3.005   0.110  0.00  0.00    -0.500 N 
ATOM      6  C   LIG    1       -0.441  -2.712   1.326  0.00  0.00    +0.280 C 
ATOM      7  C   LIG    1        0.872  -2.033   1.030  0.00  0.00    +0.100 C 
ATOM      8  H   LIG    1       -0.854  -3.829  -0.331  0.00  0.00    +0.430 HD
ATOM      9  H   LIG    1       -2.187  -3.190   0.381  0.00  0.00    +0.430 HD
ATOM     10  C   LIG    1        0.673  -0.503   1.124  0.00  0.00    +0.190 C 
ENDROOT
BRANCH   7  11
ATOM     11  O   LIG    1        1.304  -2.380  -0.288  0.00  0.00    -0.550 OA
ATOM     12  H   LIG    1        2.145  -1.976  -0.545  0.00  0.00    +0.400 HD
ENDBRANCH   7  11
BRANCH   7  13
ATOM     13  C   LIG    1        1.922  -2.481   2.048  0.00  0.00    +0.300 C 
BRANCH  13  14
ATOM     14  N   LIG    1        3.163  -1.732   1.833  0.00  0.00    -0.630 N 
ATOM     15  C   LIG    1        4.243  -2.159   0.937  0.00  0.00    +0.260 C 
ATOM     16  C   LIG    1        5.103  -0.898   0.696  0.00  0.00    +0.060 C 
ATOM     17  C   LIG    1        4.810  -0.070   1.969  0.00  0.00    +0.060 C 
ATOM     18  C   LIG    1        3.454  -0.561   2.426  0.00  0.00    +0.520 C 
ATOM     19  O   LIG    1        2.737   0.014   3.217  0.00  0.00    -0.520 OA
ENDBRANCH  13  14
ENDBRANCH   7  13
TORSDOF 3
ENDMDL
MODEL      266
REMARK  Name = ZINC000020101592
REMARK                            x       y       z     vdW  Elec       q    Type
REMARK                         _______ _______ _______ _____ _____    ______ ____
ROOT
ATOM      1  N   LIG    1       -3.452  -0.617  -1.276  0.00  0.00    -0.430 N 
ATOM      2  C   LIG    1       -3.883  -1.774  -1.814  0.00  0.00    +0.470 A 
ATOM      3  N   LIG    1       -5.173  -1.890  -1.609  0.00  0.00    -0.440 NA
ATOM      4  C   LIG    1       -5.614  -0.831  -0.942  0.00  0.00    +0.120 A 
ATOM      5  C   LIG    1       -6.969  -0.406  -0.429  0.00  0.00    +0.290 C 
ATOM      6  C   LIG    1       -7.052   0.916   0.304  0.00  0.00    +0.500 C 
ATOM      7  O   LIG    1       -8.114   1.312   0.736  0.00  0.00    -0.460 OA
ATOM      8  N   LIG    1       -5.934   1.646   0.473  0.00  0.00    -0.660 N 
ATOM      9  H   LIG    1       -5.996   2.490   0.946  0.00  0.00    +0.430 HD
ATOM     10  C   LIG    1       -4.738   1.251   0.015  0.00  0.00    +0.620 C 
ATOM     11  O   LIG    1       -3.773   1.966   0.207  0.00  0.00    -0.520 OA
ATOM     12  C   LIG    1       -4.549  -0.003  -0.708  0.00  0.00    -0.120 A 
ENDROOT
BRANCH   5  13
ATOM     13  N   LIG    1       -7.879  -0.341  -1.580  0.00  0.00    -0.800 NA
ATOM     14  H   LIG    1       -7.582   0.365  -2.237  0.00  0.00    +0.350 HD
ATOM     15  H   LIG    1       -8.829  -0.180  -1.281  0.00  0.00    +0.370 HD
ENDBRANCH   5  13
BRANCH   1  16
ATOM     16  C   LIG    1       -2.078  -0.110  -1.286  0.00  0.00    +0.330 C 
BRANCH  16  17
ATOM     17  C   LIG    1       -1.376  -0.512   0.012  0.00  0.00    +0.250 C 
BRANCH  17  19
ATOM     18  C   LIG    1       -0.018   1.465   0.010  0.00  0.00    +0.330 C 
ATOM     19  N   LIG    1        0.002  -0.004   0.002  0.00  0.00    -0.380 N 
ATOM     20  C   LIG    1        0.713  -0.491   1.192  0.00  0.00    +0.330 C 
ATOM     21  H   LIG    1        0.474  -0.330  -0.828  0.00  0.00    +0.430 HD
ENDBRANCH  17  19
ENDBRANCH  16  17
ENDBRANCH   1  16
TORSDOF 4
ENDMDL
MODEL      267
REMARK  Name = ZINC000257224027
REMARK                            x       y       z     vdW  Elec       q    Type
REMARK                         _______ _______ _______ _____ _____    ______ ____
ROOT
ATOM      1  C   LIG    1       -0.699   1.479   1.216  0.00  0.00    +0.200 C 
ATOM      2  C   LIG    1       -0.712   3.021   1.246  0.00  0.00    +0.070 C 
ATOM      3  C   LIG    1       -0.521   3.373   2.743  0.00  0.00    +0.300 C 
ATOM      4  C   LIG    1        0.489   2.301   3.220  0.00  0.00    +0.150 C 
ATOM      5  C   LIG    1        0.064   1.020   2.471  0.00  0.00    +0.150 C 
ENDROOT
BRANCH   3   6
ATOM      6  N   LIG    1        0.035   4.720   2.892  0.00  0.00    -0.530 N 
ATOM      7  C   LIG    1        1.236   5.026   2.311  0.00  0.00    +0.310 A 
ATOM      8  C   LIG    1        1.748   6.267   2.448  0.00  0.00    -0.080 A 
ATOM      9  C   LIG    1        1.029   7.231   3.195  0.00  0.00    +0.540 A 
ATOM     10  N   LIG    1       -0.151   6.890   3.752  0.00  0.00    -0.660 N 
ATOM     11  H   LIG    1       -0.649   7.545   4.265  0.00  0.00    +0.440 HD
ATOM     12  O   LIG    1        1.471   8.357   3.332  0.00  0.00    -0.490 OA
ATOM     13  C   LIG    1       -0.641   5.646   3.595  0.00  0.00    +0.700 A 
ATOM     14  O   LIG    1       -1.706   5.354   4.103  0.00  0.00    -0.530 OA
ENDBRANCH   3   6
BRANCH   1  15
ATOM     15  N   LIG    1       -0.012   1.005   0.008  0.00  0.00    -0.630 N 
ATOM     16  H   LIG    1       -0.500   1.339  -0.810  0.00  0.00    +0.450 HD
ATOM     17  H   LIG    1        0.935   1.354   0.000  0.00  0.00    +0.430 HD
ATOM     18  H   LIG    1        0.002  -0.004   0.002  0.00  0.00    +0.440 HD
ENDBRANCH   1  15
BRANCH   4  19
ATOM     19  O   LIG    1        0.389   2.113   4.633  0.00  0.00    -0.530 OA
ATOM     20  H   LIG    1        1.000   1.452   4.986  0.00  0.00    +0.390 HD
ENDBRANCH   4  19
BRANCH   5  21
ATOM     21  O   LIG    1       -0.786   0.227   3.301  0.00  0.00    -0.540 OA
ATOM     22  H   LIG    1       -0.367  -0.075   4.119  0.00  0.00    +0.410 HD
ENDBRANCH   5  21
TORSDOF 4
ENDMDL
MODEL      268
REMARK  Name = ZINC000257223097
REMARK                            x       y       z     vdW  Elec       q    Type
REMARK                         _______ _______ _______ _____ _____    ______ ____
ROOT
ATOM      1  C   LIG    1        2.795  -0.825  -2.739  0.00  0.00    +0.070 C 
ATOM      2  C   LIG    1        4.280  -0.564  -2.828  0.00  0.00    +0.290 C 
ATOM      3  N   LIG    1        4.798  -0.586  -4.213  0.00  0.00    -0.500 N 
ATOM      4  C   LIG    1        4.232  -1.686  -5.012  0.00  0.00    +0.250 C 
ATOM      5  C   LIG    1        4.142  -2.967  -4.216  0.00  0.00    +0.260 C 
ATOM      6  O   LIG    1        2.817  -3.036  -3.668  0.00  0.00    -0.350 OA
ATOM      7  H   LIG    1        5.801  -0.688  -4.185  0.00  0.00    +0.430 HD
ATOM      8  H   LIG    1        4.572   0.290  -4.660  0.00  0.00    +0.440 HD
ATOM      9  C   LIG    1        2.564  -2.340  -2.521  0.00  0.00    +0.220 C 
ENDROOT
BRANCH   1  10
ATOM     10  O   LIG    1        2.162  -0.414  -3.952  0.00  0.00    -0.550 OA
ATOM     11  H   LIG    1        1.206  -0.557  -3.965  0.00  0.00    +0.410 HD
ENDBRANCH   1  10
BRANCH   1  12
ATOM     12  C   LIG    1        2.207  -0.042  -1.563  0.00  0.00    +0.290 C 
BRANCH  12  13
ATOM     13  N   LIG    1        0.796  -0.399  -1.397  0.00  0.00    -1.130 NA
ATOM     14  H   LIG    1        0.327  -0.866  -2.105  0.00  0.00    +0.420 HD
BRANCH  13  16
ATOM     15  C   LIG    1       -0.022   1.810   0.012  0.00  0.00    -0.270 C 
ATOM     16  S   LIG    1        0.002  -0.004   0.002  0.00  0.00    +2.610 S 
ATOM     17  O   LIG    1       -1.309  -0.519  -0.182  0.00  0.00    -0.940 OA
ATOM     18  O   LIG    1        0.845  -0.497   1.035  0.00  0.00    -0.950 OA
ENDBRANCH  13  16
ENDBRANCH  12  13
ENDBRANCH   1  12
TORSDOF 4
ENDMDL
MODEL      269
REMARK  Name = ZINC000020101590
REMARK                            x       y       z     vdW  Elec       q    Type
REMARK                         _______ _______ _______ _____ _____    ______ ____
ROOT
ATOM      1  N   LIG    1       -3.452  -0.617  -1.276  0.00  0.00    -0.420 N 
ATOM      2  C   LIG    1       -3.883  -1.774  -1.814  0.00  0.00    +0.480 A 
ATOM      3  N   LIG    1       -5.173  -1.890  -1.609  0.00  0.00    -0.460 NA
ATOM      4  C   LIG    1       -5.614  -0.831  -0.942  0.00  0.00    +0.110 A 
ATOM      5  C   LIG    1       -6.969  -0.406  -0.429  0.00  0.00    +0.240 C 
ATOM      6  C   LIG    1       -7.052   0.916   0.304  0.00  0.00    +0.550 C 
ATOM      7  O   LIG    1       -8.114   1.312   0.736  0.00  0.00    -0.460 OA
ATOM      8  N   LIG    1       -5.934   1.646   0.473  0.00  0.00    -0.660 N 
ATOM      9  H   LIG    1       -5.996   2.490   0.946  0.00  0.00    +0.430 HD
ATOM     10  C   LIG    1       -4.738   1.251   0.015  0.00  0.00    +0.620 C 
ATOM     11  O   LIG    1       -3.773   1.966   0.207  0.00  0.00    -0.520 OA
ATOM     12  C   LIG    1       -4.549  -0.003  -0.708  0.00  0.00    -0.110 A 
ENDROOT
BRANCH   5  13
ATOM     13  N   LIG    1       -7.464  -1.454   0.474  0.00  0.00    -0.830 NA
ATOM     14  H   LIG    1       -7.370  -2.367   0.054  0.00  0.00    +0.370 HD
ATOM     15  H   LIG    1       -8.420  -1.277   0.743  0.00  0.00    +0.370 HD
ENDBRANCH   5  13
BRANCH   1  16
ATOM     16  C   LIG    1       -2.078  -0.110  -1.286  0.00  0.00    +0.340 C 
BRANCH  16  17
ATOM     17  C   LIG    1       -1.376  -0.512   0.012  0.00  0.00    +0.250 C 
BRANCH  17  19
ATOM     18  C   LIG    1       -0.018   1.465   0.010  0.00  0.00    +0.330 C 
ATOM     19  N   LIG    1        0.002  -0.004   0.002  0.00  0.00    -0.380 N 
ATOM     20  C   LIG    1        0.713  -0.491   1.192  0.00  0.00    +0.330 C 
ATOM     21  H   LIG    1        0.474  -0.330  -0.828  0.00  0.00    +0.430 HD
ENDBRANCH  17  19
ENDBRANCH  16  17
ENDBRANCH   1  16
TORSDOF 4
ENDMDL
MODEL      270
REMARK  Name = ZINC000257224028
REMARK                            x       y       z     vdW  Elec       q    Type
REMARK                         _______ _______ _______ _____ _____    ______ ____
ROOT
ATOM      1  C   LIG    1       -0.810   1.800   0.897  0.00  0.00    +0.180 C 
ATOM      2  C   LIG    1       -0.723   3.307   1.241  0.00  0.00    +0.090 C 
ATOM      3  C   LIG    1       -0.868   3.315   2.783  0.00  0.00    +0.300 C 
ATOM      4  C   LIG    1       -0.084   2.068   3.243  0.00  0.00    +0.170 C 
ATOM      5  C   LIG    1       -0.049   1.102   2.044  0.00  0.00    +0.160 C 
ENDROOT
BRANCH   3   6
ATOM      6  N   LIG    1       -2.278   3.207   3.166  0.00  0.00    -0.520 N 
ATOM      7  C   LIG    1       -2.967   2.055   2.900  0.00  0.00    +0.320 A 
ATOM      8  C   LIG    1       -4.266   1.956   3.253  0.00  0.00    -0.090 A 
ATOM      9  C   LIG    1       -4.891   3.052   3.895  0.00  0.00    +0.540 A 
ATOM     10  N   LIG    1       -4.178   4.170   4.140  0.00  0.00    -0.660 N 
ATOM     11  H   LIG    1       -4.599   4.925   4.580  0.00  0.00    +0.440 HD
ATOM     12  O   LIG    1       -6.062   2.986   4.223  0.00  0.00    -0.500 OA
ATOM     13  C   LIG    1       -2.882   4.240   3.782  0.00  0.00    +0.700 A 
ATOM     14  O   LIG    1       -2.251   5.254   4.010  0.00  0.00    -0.530 OA
ENDBRANCH   3   6
BRANCH   1  15
ATOM     15  N   LIG    1       -0.160   1.528  -0.392  0.00  0.00    -0.620 N 
ATOM     16  H   LIG    1       -0.637   2.034  -1.123  0.00  0.00    +0.440 HD
ATOM     17  H   LIG    1        0.803   1.825  -0.351  0.00  0.00    +0.440 HD
ATOM     18  H   LIG    1       -0.199   0.539  -0.586  0.00  0.00    +0.440 HD
ENDBRANCH   1  15
BRANCH   4  19
ATOM     19  O   LIG    1       -0.749   1.452   4.348  0.00  0.00    -0.540 OA
ATOM     20  H   LIG    1       -0.304   0.661   4.683  0.00  0.00    +0.400 HD
ENDBRANCH   4  19
BRANCH   5  21
ATOM     21  O   LIG    1        1.303   0.855   1.653  0.00  0.00    -0.570 OA
ATOM     22  H   LIG    1        1.841   0.439   2.340  0.00  0.00    +0.420 HD
ENDBRANCH   5  21
TORSDOF 4
ENDMDL
MODEL      271
REMARK  Name = ZINC000257230002
REMARK                            x       y       z     vdW  Elec       q    Type
REMARK                         _______ _______ _______ _____ _____    ______ ____
ROOT
ATOM      1  C   LIG    1       -0.018   1.503   0.010  0.00  0.00    +0.110 C 
ATOM      2  C   LIG    1        0.002  -0.004   0.002  0.00  0.00    +0.510 C 
ATOM      3  N   LIG    1        0.000  -0.672  -1.169  0.00  0.00    -0.640 N 
ATOM      4  C   LIG    1       -0.016   0.105  -2.423  0.00  0.00    +0.310 C 
ATOM      5  C   LIG    1        0.942  -0.481  -3.475  0.00  0.00    +0.260 C 
ATOM      6  N   LIG    1        2.166  -0.906  -2.824  0.00  0.00    -0.360 N 
ATOM      7  C   LIG    1        2.066  -2.327  -2.504  0.00  0.00    +0.280 C 
ATOM      8  C   LIG    1        1.479  -2.626  -1.183  0.00  0.00    -0.020 C 
ATOM      9  H   LIG    1        2.298  -0.377  -1.975  0.00  0.00    +0.430 HD
ATOM     10  C   LIG    1        0.020  -2.120  -1.140  0.00  0.00    +0.330 C 
ATOM     11  O   LIG    1        0.020  -0.616   1.049  0.00  0.00    -0.510 OA
ENDROOT
BRANCH   8  12
ATOM     12  C   LIG    1        1.503  -4.115  -0.948  0.00  0.00    +0.540 C 
ATOM     13  O   LIG    1        1.962  -4.854  -1.793  0.00  0.00    -0.530 OA
ATOM     14  N   LIG    1        1.015  -4.624   0.201  0.00  0.00    -0.840 N 
ATOM     15  H   LIG    1        1.031  -5.582   0.352  0.00  0.00    +0.420 HD
ATOM     16  H   LIG    1        0.649  -4.032   0.876  0.00  0.00    +0.410 HD
ENDBRANCH   8  12
BRANCH   6  17
ATOM     17  C   LIG    1        3.304  -0.682  -3.725  0.00  0.00    +0.300 C 
BRANCH  17  18
ATOM     18  C   LIG    1        3.473   0.796  -3.964  0.00  0.00    +0.510 C 
ATOM     19  O   LIG    1        2.719   1.585  -3.435  0.00  0.00    -0.530 OA
ATOM     20  N   LIG    1        4.462   1.241  -4.764  0.00  0.00    -0.820 N 
ATOM     21  H   LIG    1        4.571   2.193  -4.918  0.00  0.00    +0.430 HD
ATOM     22  H   LIG    1        5.065   0.610  -5.187  0.00  0.00    +0.420 HD
ENDBRANCH  17  18
ENDBRANCH   6  17
TORSDOF 3
ENDMDL
MODEL      272
REMARK  Name = ZINC000257235233
REMARK                            x       y       z     vdW  Elec       q    Type
REMARK                         _______ _______ _______ _____ _____    ______ ____
ROOT
ATOM      1  C   LIG    1       -0.504  -2.910  -1.366  0.00  0.00    +0.300 C 
ATOM      2  C   LIG    1       -0.814  -3.278  -2.833  0.00  0.00    +0.280 C 
ATOM      3  N   LIG    1       -0.305  -4.666  -2.986  0.00  0.00    -0.400 N 
ATOM      4  C   LIG    1       -0.666  -5.330  -1.707  0.00  0.00    +0.310 C 
ATOM      5  C   LIG    1       -0.963  -5.332  -4.117  0.00  0.00    +0.340 C 
ATOM      6  H   LIG    1        0.696  -4.662  -3.112  0.00  0.00    +0.440 HD
ATOM      7  C   LIG    1       -0.407  -4.258  -0.623  0.00  0.00    -0.010 C 
ENDROOT
BRANCH   7   8
ATOM      8  C   LIG    1        0.968  -4.434  -0.031  0.00  0.00    +0.520 C 
ATOM      9  N   LIG    1        1.189  -4.123   1.262  0.00  0.00    -0.720 N 
ATOM     10  H   LIG    1        0.464  -3.787   1.811  0.00  0.00    +0.410 HD
ATOM     11  C   LIG    1        2.525  -4.294   1.837  0.00  0.00    +0.300 C 
ATOM     12  O   LIG    1        1.874  -4.855  -0.718  0.00  0.00    -0.530 OA
ENDBRANCH   7   8
BRANCH   1  13
ATOM     13  N   LIG    1        0.769  -2.189  -1.282  0.00  0.00    -1.130 NA
ATOM     14  H   LIG    1        1.590  -2.619  -1.571  0.00  0.00    +0.430 HD
BRANCH  13  15
ATOM     15  S   LIG    1        0.807  -0.642  -0.692  0.00  0.00    +2.600 S 
ATOM     16  O   LIG    1        2.175  -0.267  -0.782  0.00  0.00    -0.930 OA
ATOM     17  O   LIG    1       -0.191   0.042  -1.438  0.00  0.00    -0.940 OA
BRANCH  15  19
ATOM     18  C   LIG    1        0.301   0.573   1.706  0.00  0.00    +0.100 C 
ATOM     19  C   LIG    1        0.305  -0.806   1.043  0.00  0.00    -0.370 C 
ENDBRANCH  15  19
ENDBRANCH  13  15
ENDBRANCH   1  13
TORSDOF 4
ENDMDL
MODEL      273
REMARK  Name = ZINC000002560956
REMARK                            x       y       z     vdW  Elec       q    Type
REMARK                         _______ _______ _______ _____ _____    ______ ____
ROOT
ATOM      1  CA  ARG A  1        2.783  -1.099   2.395  0.00  0.00    +0.180 C 
ENDROOT
BRANCH   1   4
ATOM      2  N   ALA A  2        0.711  -0.489   1.189  0.00  0.00    -0.650 N 
ATOM      3  H   ALA A  2        0.213  -0.731   1.986  0.00  0.00    +0.410 HD
ATOM      4  C   ARG A  1        2.054  -0.600   1.174  0.00  0.00    +0.480 C 
ATOM      5  O   ARG A  1        2.676  -0.297   0.177  0.00  0.00    -0.540 OA
BRANCH   2   7
ATOM      6  CB  ALA A  2       -0.019   1.526   0.010  0.00  0.00    +0.050 C 
ATOM      7  CA  ALA A  2        0.002  -0.004   0.002  0.00  0.00    +0.150 C 
BRANCH   7   8
ATOM      8  C   ALA A  2       -1.412  -0.526   0.013  0.00  0.00    +0.490 C 
ATOM      9  OXT ALA A  2       -1.974  -0.742   1.073  0.00  0.00    -0.690 OA
ATOM     10  O   ALA A  2       -1.994  -0.731  -1.039  0.00  0.00    -0.660 OA
ENDBRANCH   7   8
ENDBRANCH   2   7
ENDBRANCH   1   4
BRANCH   1  11
ATOM     11  N   ARG A  1        4.115  -1.580   2.007  0.00  0.00    -0.620 N 
ATOM     12  H1  ARG A  1        4.637  -0.824   1.589  0.00  0.00    +0.440 HD
ATOM     13  H2  ARG A  1        4.021  -2.332   1.341  0.00  0.00    +0.450 HD
ATOM     14  H3  ARG A  1        4.603  -1.914   2.824  0.00  0.00    +0.430 HD
ENDBRANCH   1  11
BRANCH   1  15
ATOM     15  CB  ARG A  1        2.926   0.041   3.405  0.00  0.00    +0.100 C 
BRANCH  15  16
ATOM     16  CG  ARG A  1        3.554  -0.495   4.693  0.00  0.00    +0.030 C 
BRANCH  16  17
ATOM     17  CD  ARG A  1        3.697   0.645   5.703  0.00  0.00    +0.290 C 
BRANCH  17  18
ATOM     18  NE  ARG A  1        4.298   0.132   6.937  0.00  0.00    -0.700 N 
ATOM     19  HE  ARG A  1        4.535  -0.806   7.007  0.00  0.00    +0.440 HD
ATOM     20  CZ  ARG A  1        4.525   0.976   7.989  0.00  0.00    +0.750 C 
BRANCH  20  21
ATOM     21  NH2 ARG A  1        5.071   0.509   9.111  0.00  0.00    -0.790 N 
ATOM     22 HH21 ARG A  1        5.308  -0.429   9.181  0.00  0.00    +0.440 HD
ATOM     23 HH22 ARG A  1        5.232   1.107   9.857  0.00  0.00    +0.440 HD
ENDBRANCH  20  21
BRANCH  20  24
ATOM     24  NH1 ARG A  1        4.199   2.264   7.893  0.00  0.00    -0.790 N 
ATOM     25 HH11 ARG A  1        4.359   2.862   8.640  0.00  0.00    +0.440 HD
ATOM     26 HH12 ARG A  1        3.801   2.603   7.076  0.00  0.00    +0.440 HD
ENDBRANCH  20  24
ENDBRANCH  17  18
ENDBRANCH  16  17
ENDBRANCH  15  16
ENDBRANCH   1  15
TORSDOF 10
ENDMDL
MODEL      274
REMARK  Name = ZINC000257223096
REMARK                            x       y       z     vdW  Elec       q    Type
REMARK                         _______ _______ _______ _____ _____    ______ ____
ROOT
ATOM      1  C   LIG    1        2.795  -0.825  -2.739  0.00  0.00    +0.080 C 
ATOM      2  C   LIG    1        4.288  -0.494  -2.861  0.00  0.00    +0.300 C 
ATOM      3  N   LIG    1        4.840  -0.856  -4.186  0.00  0.00    -0.500 N 
ATOM      4  C   LIG    1        4.356  -2.135  -4.660  0.00  0.00    +0.230 C 
ATOM      5  C   LIG    1        3.128  -1.899  -5.563  0.00  0.00    +0.250 C 
ATOM      6  O   LIG    1        2.005  -1.642  -4.836  0.00  0.00    -0.340 OA
ATOM      7  H   LIG    1        5.846  -0.893  -4.121  0.00  0.00    +0.440 HD
ATOM      8  H   LIG    1        4.582  -0.143  -4.852  0.00  0.00    +0.420 HD
ATOM      9  C   LIG    1        2.030  -0.475  -3.992  0.00  0.00    +0.220 C 
ENDROOT
BRANCH   1  10
ATOM     10  O   LIG    1        2.652  -2.223  -2.483  0.00  0.00    -0.540 OA
ATOM     11  H   LIG    1        1.735  -2.511  -2.373  0.00  0.00    +0.400 HD
ENDBRANCH   1  10
BRANCH   1  12
ATOM     12  C   LIG    1        2.207  -0.042  -1.563  0.00  0.00    +0.290 C 
BRANCH  12  13
ATOM     13  N   LIG    1        0.796  -0.399  -1.397  0.00  0.00    -1.130 NA
ATOM     14  H   LIG    1        0.327  -0.866  -2.105  0.00  0.00    +0.420 HD
BRANCH  13  16
ATOM     15  C   LIG    1       -0.022   1.810   0.012  0.00  0.00    -0.270 C 
ATOM     16  S   LIG    1        0.002  -0.004   0.002  0.00  0.00    +2.610 S 
ATOM     17  O   LIG    1       -1.309  -0.519  -0.182  0.00  0.00    -0.940 OA
ATOM     18  O   LIG    1        0.845  -0.497   1.035  0.00  0.00    -0.950 OA
ENDBRANCH  13  16
ENDBRANCH  12  13
ENDBRANCH   1  12
TORSDOF 4
ENDMDL
MODEL      275
REMARK  Name = ZINC000257273378
REMARK                            x       y       z     vdW  Elec       q    Type
REMARK                         _______ _______ _______ _____ _____    ______ ____
ROOT
ATOM      1  C   LIG    1        0.002  -0.004   0.002  0.00  0.00    +0.640 A 
ATOM      2  N   LIG    1       -1.149  -0.660   0.004  0.00  0.00    -0.620 NA
ATOM      3  C   LIG    1       -1.166  -1.994  -0.011  0.00  0.00    +0.530 A 
ATOM      4  C   LIG    1        0.039  -2.674  -0.030  0.00  0.00    -0.410 A 
ATOM      5  C   LIG    1        0.412  -4.143  -0.086  0.00  0.00    +0.150 C 
ATOM      6  C   LIG    1        1.868  -4.044  -0.619  0.00  0.00    +0.060 C 
ATOM      7  O   LIG    1        2.300  -2.803  -0.015  0.00  0.00    -0.270 OA
ATOM      8  C   LIG    1        1.812  -3.851  -2.142  0.00  0.00    +0.260 C 
ATOM      9  N   LIG    1        3.002  -3.143  -2.537  0.00  0.00    -0.500 N 
ATOM     10  C   LIG    1        4.091  -4.057  -2.960  0.00  0.00    +0.240 C 
ATOM     11  C   LIG    1        4.195  -5.299  -2.052  0.00  0.00    +0.240 C 
ATOM     12  O   LIG    1        4.051  -5.021  -0.688  0.00  0.00    -0.340 OA
ATOM     13  H   LIG    1        3.327  -2.590  -1.758  0.00  0.00    +0.430 HD
ATOM     14  H   LIG    1        2.777  -2.526  -3.303  0.00  0.00    +0.430 HD
ATOM     15  C   LIG    1        2.688  -5.185  -0.219  0.00  0.00    +0.300 C 
ATOM     16  C   LIG    1        1.233  -1.959  -0.016  0.00  0.00    +0.400 A 
ATOM     17  N   LIG    1        1.170  -0.628  -0.013  0.00  0.00    -0.600 NA
ENDROOT
BRANCH   1  18
ATOM     18  N   LIG    1       -0.017   1.380   0.010  0.00  0.00    -0.800 N 
ATOM     19  H   LIG    1       -0.863   1.853   0.016  0.00  0.00    +0.420 HD
ATOM     20  H   LIG    1        0.817   1.876   0.004  0.00  0.00    +0.420 HD
ENDBRANCH   1  18
BRANCH   3  21
ATOM     21  N   LIG    1       -2.367  -2.685  -0.009  0.00  0.00    -0.820 N 
ATOM     22  H   LIG    1       -2.369  -3.655  -0.020  0.00  0.00    +0.420 HD
ATOM     23  H   LIG    1       -3.206  -2.198   0.004  0.00  0.00    +0.420 HD
ENDBRANCH   3  21
TORSDOF 2
ENDMDL
MODEL      276
REMARK  Name = ZINC000257273379
REMARK                            x       y       z     vdW  Elec       q    Type
REMARK                         _______ _______ _______ _____ _____    ______ ____
ROOT
ATOM      1  C   LIG    1        0.002  -0.004   0.002  0.00  0.00    +0.650 A 
ATOM      2  N   LIG    1       -1.148  -0.660   0.004  0.00  0.00    -0.620 NA
ATOM      3  C   LIG    1       -1.166  -1.994  -0.011  0.00  0.00    +0.530 A 
ATOM      4  C   LIG    1        0.039  -2.674  -0.027  0.00  0.00    -0.410 A 
ATOM      5  C   LIG    1        0.410  -4.145  -0.075  0.00  0.00    +0.140 C 
ATOM      6  C   LIG    1        1.869  -4.049  -0.571  0.00  0.00    +0.040 C 
ATOM      7  O   LIG    1        2.303  -2.802  -0.010  0.00  0.00    -0.280 OA
ATOM      8  C   LIG    1        2.701  -5.210  -0.097  0.00  0.00    +0.310 C 
ATOM      9  N   LIG    1        4.100  -4.822   0.210  0.00  0.00    -0.510 N 
ATOM     10  C   LIG    1        4.660  -3.892  -0.788  0.00  0.00    +0.260 C 
ATOM     11  C   LIG    1        4.270  -4.273  -2.196  0.00  0.00    +0.260 C 
ATOM     12  O   LIG    1        3.104  -3.510  -2.540  0.00  0.00    -0.350 OA
ATOM     13  H   LIG    1        4.672  -5.653   0.237  0.00  0.00    +0.430 HD
ATOM     14  H   LIG    1        4.125  -4.380   1.117  0.00  0.00    +0.440 HD
ATOM     15  C   LIG    1        1.891  -3.975  -2.112  0.00  0.00    +0.250 C 
ATOM     16  C   LIG    1        1.233  -1.959  -0.014  0.00  0.00    +0.430 A 
ATOM     17  N   LIG    1        1.170  -0.628  -0.013  0.00  0.00    -0.600 NA
ENDROOT
BRANCH   1  18
ATOM     18  N   LIG    1       -0.017   1.380   0.010  0.00  0.00    -0.810 N 
ATOM     19  H   LIG    1       -0.863   1.853   0.016  0.00  0.00    +0.420 HD
ATOM     20  H   LIG    1        0.817   1.876   0.004  0.00  0.00    +0.420 HD
ENDBRANCH   1  18
BRANCH   3  21
ATOM     21  N   LIG    1       -2.367  -2.685  -0.011  0.00  0.00    -0.830 N 
ATOM     22  H   LIG    1       -2.369  -3.655  -0.023  0.00  0.00    +0.410 HD
ATOM     23  H   LIG    1       -3.206  -2.198  -0.001  0.00  0.00    +0.410 HD
ENDBRANCH   3  21
TORSDOF 2
ENDMDL
MODEL      277
REMARK  Name = ZINC000257261277
REMARK                            x       y       z     vdW  Elec       q    Type
REMARK                         _______ _______ _______ _____ _____    ______ ____
ROOT
ATOM      1  N   LIG    1       -3.547  -1.902  -1.230  0.00  0.00    -0.390 N 
ATOM      2  C   LIG    1       -3.641  -0.420  -1.273  0.00  0.00    +0.260 C 
ATOM      3  C   LIG    1       -4.777  -0.132  -2.278  0.00  0.00    +0.180 C 
ATOM      4  C   LIG    1       -5.644  -1.407  -2.279  0.00  0.00    +0.280 C 
ATOM      5  C   LIG    1       -4.958  -2.362  -1.276  0.00  0.00    +0.280 C 
ATOM      6  H   LIG    1       -3.037  -2.247  -2.029  0.00  0.00    +0.430 HD
ENDROOT
BRANCH   4   7
ATOM      7  N   LIG    1       -7.007  -1.096  -1.841  0.00  0.00    -0.730 N 
ATOM      8  H   LIG    1       -7.250  -1.194  -0.907  0.00  0.00    +0.410 HD
ATOM      9  C   LIG    1       -7.923  -0.674  -2.735  0.00  0.00    +0.520 C 
ATOM     10  O   LIG    1       -7.619  -0.552  -3.903  0.00  0.00    -0.490 OA
BRANCH   9  11
ATOM     11  C   LIG    1       -9.325  -0.354  -2.284  0.00  0.00    +0.220 C 
BRANCH  11  12
ATOM     12  O   LIG    1      -10.101   0.069  -3.407  0.00  0.00    -0.370 OA
ATOM     13  C   LIG    1      -11.454   0.398  -3.086  0.00  0.00    +0.230 C 
ENDBRANCH  11  12
ENDBRANCH   9  11
ENDBRANCH   4   7
BRANCH   3  14
ATOM     14  O   LIG    1       -4.239   0.106  -3.581  0.00  0.00    -0.540 OA
ATOM     15  H   LIG    1       -3.650   0.871  -3.629  0.00  0.00    +0.400 HD
ENDBRANCH   3  14
BRANCH   1  16
ATOM     16  C   LIG    1       -2.905  -2.339   0.017  0.00  0.00    +0.290 C 
BRANCH  16  17
ATOM     17  C   LIG    1       -1.432  -1.925   0.005  0.00  0.00    +0.200 C 
BRANCH  17  18
ATOM     18  O   LIG    1       -1.339  -0.499   0.012  0.00  0.00    -0.400 OA
BRANCH  18  20
ATOM     19  C   LIG    1       -0.019   1.526   0.010  0.00  0.00    +0.050 C 
ATOM     20  C   LIG    1        0.002  -0.004   0.002  0.00  0.00    +0.180 C 
ENDBRANCH  18  20
ENDBRANCH  17  18
ENDBRANCH  16  17
ENDBRANCH   1  16
TORSDOF 8
ENDMDL
MODEL      278
REMARK  Name = ZINC000084409686
REMARK                            x       y       z     vdW  Elec       q    Type
REMARK                         _______ _______ _______ _____ _____    ______ ____
ROOT
ATOM      1  C   LIG    1       -0.018   1.503   0.010  0.00  0.00    +0.100 C 
ATOM      2  C   LIG    1        0.002  -0.004   0.002  0.00  0.00    +0.520 C 
ATOM      3  N   LIG    1       -1.156  -0.694   0.009  0.00  0.00    -0.620 N 
ATOM      4  C   LIG    1       -2.446   0.010   0.019  0.00  0.00    +0.280 C 
ATOM      5  C   LIG    1       -3.281  -0.481  -1.169  0.00  0.00    +0.290 C 
ATOM      6  N   LIG    1       -3.276  -1.950  -1.172  0.00  0.00    -0.590 N 
ATOM      7  C   LIG    1       -1.986  -2.654  -1.182  0.00  0.00    +0.270 C 
ATOM      8  C   LIG    1       -4.434  -2.640  -1.165  0.00  0.00    +0.520 C 
ATOM      9  O   LIG    1       -5.493  -2.048  -1.158  0.00  0.00    -0.530 OA
ATOM     10  C   LIG    1       -1.151  -2.163   0.001  0.00  0.00    +0.280 C 
ATOM     11  O   LIG    1        1.060  -0.596  -0.011  0.00  0.00    -0.530 OA
ENDROOT
BRANCH   8  12
ATOM     12  C   LIG    1       -4.414  -4.147  -1.168  0.00  0.00    -0.010 C 
ATOM     13  C   LIG    1       -4.231  -4.766   0.230  0.00  0.00    +0.340 C 
ATOM     14  N   LIG    1       -5.708  -4.762   0.316  0.00  0.00    -0.540 N 
ATOM     15  H   LIG    1       -6.077  -3.915   0.722  0.00  0.00    +0.440 HD
ATOM     16  H   LIG    1       -6.080  -5.593   0.751  0.00  0.00    +0.430 HD
ATOM     17  C   LIG    1       -5.814  -4.785  -1.160  0.00  0.00    +0.350 C 
ENDBRANCH   8  12
TORSDOF 1
ENDMDL
MODEL      279
REMARK  Name = ZINC000257258384
REMARK                            x       y       z     vdW  Elec       q    Type
REMARK                         _______ _______ _______ _____ _____    ______ ____
ROOT
ATOM      1  C   LIG    1        0.020  -2.136  -1.177  0.00  0.00    +0.250 C 
ATOM      2  C   LIG    1       -1.342  -2.635  -1.029  0.00  0.00    +0.050 C 
ATOM      3  C   LIG    1       -1.422  -4.169  -0.983  0.00  0.00    +0.270 C 
ATOM      4  N   LIG    1       -1.430  -4.653  -2.342  0.00  0.00    -0.380 N 
ATOM      5  C   LIG    1       -0.079  -5.052  -2.793  0.00  0.00    +0.260 C 
ATOM      6  C   LIG    1        1.029  -4.079  -2.353  0.00  0.00    +0.040 C 
ATOM      7  H   LIG    1       -1.776  -3.924  -2.948  0.00  0.00    +0.420 HD
ATOM      8  C   LIG    1        0.649  -2.629  -2.504  0.00  0.00    +0.150 C 
ENDROOT
BRANCH   1  11
ATOM      9  C   LIG    1       -0.018   1.503   0.010  0.00  0.00    +0.100 C 
ATOM     10  C   LIG    1        0.002  -0.004   0.002  0.00  0.00    +0.520 C 
ATOM     11  N   LIG    1        0.000  -0.672  -1.169  0.00  0.00    -0.720 N 
ATOM     12  H   LIG    1       -0.015  -0.182  -2.006  0.00  0.00    +0.410 HD
ATOM     13  O   LIG    1        0.020  -0.616   1.049  0.00  0.00    -0.540 OA
ENDBRANCH   1  11
BRANCH   8  14
ATOM     14  O   LIG    1        1.815  -1.857  -2.798  0.00  0.00    -0.540 OA
ATOM     15  H   LIG    1        2.266  -2.120  -3.613  0.00  0.00    +0.390 HD
ENDBRANCH   8  14
BRANCH   4  16
ATOM     16  C   LIG    1       -2.324  -5.814  -2.432  0.00  0.00    +0.280 C 
BRANCH  16  17
ATOM     17  C   LIG    1       -2.438  -6.260  -3.891  0.00  0.00    +0.060 C 
BRANCH  17  18
ATOM     18  C   LIG    1       -3.356  -7.452  -3.982  0.00  0.00    +0.520 C 
ATOM     19  O   LIG    1       -3.869  -7.901  -2.979  0.00  0.00    -0.530 OA
ATOM     20  N   LIG    1       -3.606  -8.019  -5.179  0.00  0.00    -0.840 N 
ATOM     21  H   LIG    1       -4.197  -8.786  -5.238  0.00  0.00    +0.420 HD
ATOM     22  H   LIG    1       -3.196  -7.660  -5.981  0.00  0.00    +0.410 HD
ENDBRANCH  17  18
ENDBRANCH  16  17
ENDBRANCH   4  16
TORSDOF 5
ENDMDL
MODEL      280
REMARK  Name = ZINC000257288121
REMARK                            x       y       z     vdW  Elec       q    Type
REMARK                         _______ _______ _______ _____ _____    ______ ____
ROOT
ATOM      1  C   LIG    1       -0.699   1.479   1.216  0.00  0.00    +0.200 C 
ATOM      2  C   LIG    1       -0.712   3.021   1.246  0.00  0.00    +0.080 C 
ATOM      3  C   LIG    1       -0.521   3.373   2.743  0.00  0.00    +0.310 C 
ATOM      4  C   LIG    1        0.489   2.301   3.220  0.00  0.00    +0.150 C 
ATOM      5  C   LIG    1        0.064   1.020   2.471  0.00  0.00    +0.150 C 
ENDROOT
BRANCH   3   6
ATOM      6  N   LIG    1        0.035   4.720   2.892  0.00  0.00    -0.520 N 
ATOM      7  C   LIG    1        1.238   5.026   2.309  0.00  0.00    +0.290 A 
ATOM      8  C   LIG    1        1.750   6.268   2.447  0.00  0.00    -0.030 A 
ATOM      9  C   LIG    1        1.028   7.232   3.196  0.00  0.00    +0.530 A 
ATOM     10  N   LIG    1       -0.151   6.890   3.752  0.00  0.00    -0.650 N 
ATOM     11  H   LIG    1       -0.650   7.544   4.266  0.00  0.00    +0.450 HD
ATOM     12  O   LIG    1        1.469   8.359   3.334  0.00  0.00    -0.470 OA
ATOM     13  F   LIG    1        2.933   6.588   1.880  0.00  0.00    -0.090 F 
ATOM     14  C   LIG    1       -0.641   5.646   3.595  0.00  0.00    +0.700 A 
ATOM     15  O   LIG    1       -1.706   5.353   4.103  0.00  0.00    -0.510 OA
ENDBRANCH   3   6
BRANCH   1  16
ATOM     16  N   LIG    1       -0.012   1.005   0.008  0.00  0.00    -0.630 N 
ATOM     17  H   LIG    1       -0.500   1.339  -0.810  0.00  0.00    +0.450 HD
ATOM     18  H   LIG    1        0.935   1.354   0.000  0.00  0.00    +0.430 HD
ATOM     19  H   LIG    1        0.002  -0.004   0.002  0.00  0.00    +0.440 HD
ENDBRANCH   1  16
BRANCH   4  20
ATOM     20  O   LIG    1        0.389   2.113   4.633  0.00  0.00    -0.530 OA
ATOM     21  H   LIG    1        1.000   1.452   4.986  0.00  0.00    +0.390 HD
ENDBRANCH   4  20
BRANCH   5  22
ATOM     22  O   LIG    1       -0.786   0.227   3.301  0.00  0.00    -0.540 OA
ATOM     23  H   LIG    1       -0.367  -0.075   4.119  0.00  0.00    +0.410 HD
ENDBRANCH   5  22
TORSDOF 4
ENDMDL
MODEL      281
REMARK  Name = ZINC000257319395
REMARK                            x       y       z     vdW  Elec       q    Type
REMARK                         _______ _______ _______ _____ _____    ______ ____
ROOT
ATOM      1  C   LIG    1       -0.475   1.482   1.109  0.00  0.00    +0.180 C 
ATOM      2  C   LIG    1       -0.496   3.012   1.117  0.00  0.00    +0.060 C 
ATOM      3  C   LIG    1       -1.417   3.503   2.236  0.00  0.00    +0.030 C 
ATOM      4  C   LIG    1       -0.901   2.993   3.583  0.00  0.00    +0.140 C 
ATOM      5  C   LIG    1       -0.880   1.463   3.574  0.00  0.00    +0.170 C 
ATOM      6  C   LIG    1        0.041   0.972   2.456  0.00  0.00    +0.190 C 
ENDROOT
BRANCH   6   7
ATOM      7  N   LIG    1        0.061  -0.497   2.448  0.00  0.00    -0.540 NA
ATOM      8  C   LIG    1       -1.304  -1.043   2.490  0.00  0.00    +0.140 C 
ATOM      9  C   LIG    1       -1.239  -2.571   2.420  0.00  0.00    +0.220 C 
ATOM     10  O   LIG    1       -0.427  -3.058   3.492  0.00  0.00    -0.380 OA
ATOM     11  C   LIG    1        0.909  -2.547   3.481  0.00  0.00    +0.230 C 
ATOM     12  C   LIG    1        0.866  -1.019   3.562  0.00  0.00    +0.190 C 
ENDBRANCH   6   7
BRANCH   1  13
ATOM     13  N   LIG    1        0.409   1.010   0.035  0.00  0.00    -0.630 N 
ATOM     14  H   LIG    1        0.069   1.347  -0.853  0.00  0.00    +0.440 HD
ATOM     15  H   LIG    1        1.343   1.359   0.191  0.00  0.00    +0.430 HD
ATOM     16  H   LIG    1        0.423   0.002   0.029  0.00  0.00    +0.440 HD
ENDBRANCH   1  13
BRANCH   5  17
ATOM     17  O   LIG    1       -0.398   0.986   4.832  0.00  0.00    -0.540 OA
ATOM     18  H   LIG    1       -0.935   1.260   5.588  0.00  0.00    +0.390 HD
ENDBRANCH   5  17
BRANCH   4  19
ATOM     19  O   LIG    1        0.422   3.486   3.804  0.00  0.00    -0.550 OA
ATOM     20  H   LIG    1        0.484   4.451   3.821  0.00  0.00    +0.390 HD
ENDBRANCH   4  19
TORSDOF 4
ENDMDL
MODEL      282
REMARK  Name = ZINC000257316293
REMARK                            x       y       z     vdW  Elec       q    Type
REMARK                         _______ _______ _______ _____ _____    ______ ____
ROOT
ATOM      1  C   LIG    1       -0.689   1.478   1.210  0.00  0.00    +0.220 C 
ATOM      2  C   LIG    1       -0.601   3.004   1.282  0.00  0.00    +0.190 C 
ATOM      3  C   LIG    1       -1.327   3.498   2.535  0.00  0.00    +0.130 C 
ATOM      4  C   LIG    1       -0.673   2.891   3.777  0.00  0.00    +0.110 C 
ATOM      5  C   LIG    1       -0.760   1.365   3.705  0.00  0.00    +0.220 C 
ATOM      6  C   LIG    1       -0.034   0.871   2.453  0.00  0.00    +0.010 C 
ENDROOT
BRANCH   6   7
ATOM      7  C   LIG    1       -0.122  -0.655   2.381  0.00  0.00    +0.190 C 
ATOM      8  C   LIG    1        0.438  -1.274   3.680  0.00  0.00    +0.030 C 
ATOM      9  C   LIG    1        1.205  -2.516   3.150  0.00  0.00    +0.020 C 
ATOM     10  C   LIG    1        1.725  -1.982   1.791  0.00  0.00    +0.230 C 
ATOM     11  O   LIG    1        0.674  -1.137   1.292  0.00  0.00    -0.420 OA
ENDBRANCH   6   7
BRANCH   1  12
ATOM     12  N   LIG    1        0.009   1.004   0.008  0.00  0.00    -0.630 N 
ATOM     13  H   LIG    1       -0.334   1.504  -0.799  0.00  0.00    +0.440 HD
ATOM     14  H   LIG    1        1.000   1.165   0.108  0.00  0.00    +0.430 HD
ATOM     15  H   LIG    1       -0.161   0.016  -0.112  0.00  0.00    +0.440 HD
ENDBRANCH   1  12
BRANCH   5  16
ATOM     16  O   LIG    1       -2.132   0.969   3.648  0.00  0.00    -0.540 OA
ATOM     17  H   LIG    1       -2.655   1.249   4.412  0.00  0.00    +0.400 HD
ENDBRANCH   5  16
BRANCH   4  18
ATOM     18  O   LIG    1       -1.351   3.352   4.947  0.00  0.00    -0.550 OA
ATOM     19  H   LIG    1       -1.336   4.313   5.057  0.00  0.00    +0.390 HD
ENDBRANCH   4  18
BRANCH   3  20
ATOM     20  O   LIG    1       -2.699   3.102   2.477  0.00  0.00    -0.530 OA
ATOM     21  H   LIG    1       -3.222   3.383   3.241  0.00  0.00    +0.390 HD
ENDBRANCH   3  20
BRANCH   2  22
ATOM     22  O   LIG    1       -1.212   3.571   0.122  0.00  0.00    -0.560 OA
ATOM     23  H   LIG    1       -1.193   4.538   0.100  0.00  0.00    +0.410 HD
ENDBRANCH   2  22
TORSDOF 6
ENDMDL
MODEL      283
REMARK  Name = ZINC000257316292
REMARK                            x       y       z     vdW  Elec       q    Type
REMARK                         _______ _______ _______ _____ _____    ______ ____
ROOT
ATOM      1  C   LIG    1       -0.699   1.479   1.216  0.00  0.00    +0.230 C 
ATOM      2  C   LIG    1       -0.720   3.008   1.225  0.00  0.00    +0.190 C 
ATOM      3  C   LIG    1       -1.436   3.502   2.483  0.00  0.00    +0.130 C 
ATOM      4  C   LIG    1       -0.696   2.995   3.723  0.00  0.00    +0.100 C 
ATOM      5  C   LIG    1       -0.675   1.465   3.715  0.00  0.00    +0.210 C 
ATOM      6  C   LIG    1        0.041   0.972   2.456  0.00  0.00    +0.020 C 
ENDROOT
BRANCH   6   7
ATOM      7  C   LIG    1        0.061  -0.558   2.447  0.00  0.00    +0.140 C 
ATOM      8  C   LIG    1        0.777  -1.093   3.713  0.00  0.00    +0.030 C 
ATOM      9  C   LIG    1        0.141  -2.505   3.837  0.00  0.00    +0.010 C 
ATOM     10  C   LIG    1       -1.296  -2.263   3.326  0.00  0.00    +0.200 C 
ATOM     11  O   LIG    1       -1.276  -1.075   2.523  0.00  0.00    -0.350 OA
ENDBRANCH   6   7
BRANCH   1  12
ATOM     12  N   LIG    1       -0.012   1.005   0.008  0.00  0.00    -0.630 N 
ATOM     13  H   LIG    1       -0.500   1.339  -0.810  0.00  0.00    +0.450 HD
ATOM     14  H   LIG    1        0.935   1.354   0.000  0.00  0.00    +0.430 HD
ATOM     15  H   LIG    1        0.002  -0.004   0.002  0.00  0.00    +0.440 HD
ENDBRANCH   1  12
BRANCH   5  16
ATOM     16  O   LIG    1       -2.016   0.971   3.725  0.00  0.00    -0.520 OA
ATOM     17  H   LIG    1       -2.530   1.245   4.496  0.00  0.00    +0.390 HD
ENDBRANCH   5  16
BRANCH   4  18
ATOM     18  O   LIG    1       -1.365   3.456   4.899  0.00  0.00    -0.550 OA
ATOM     19  H   LIG    1       -1.416   4.419   4.970  0.00  0.00    +0.390 HD
ENDBRANCH   4  18
BRANCH   3  20
ATOM     20  O   LIG    1       -2.777   3.007   2.494  0.00  0.00    -0.530 OA
ATOM     21  H   LIG    1       -3.291   3.281   3.265  0.00  0.00    +0.390 HD
ENDBRANCH   3  20
BRANCH   2  22
ATOM     22  O   LIG    1       -1.411   3.482   0.067  0.00  0.00    -0.560 OA
ATOM     23  H   LIG    1       -1.463   4.446   0.006  0.00  0.00    +0.410 HD
ENDBRANCH   2  22
TORSDOF 6
ENDMDL
MODEL      284
REMARK  Name = ZINC000005530332
REMARK                            x       y       z     vdW  Elec       q    Type
REMARK                         _______ _______ _______ _____ _____    ______ ____
ROOT
ATOM      1  C   LIG    1        0.141   1.628  -0.344  0.00  0.00    +0.210 C 
ATOM      2  C   LIG    1        0.158   0.121  -0.373  0.00  0.00    +0.470 A 
ATOM      3  N   LIG    1        0.393  -0.489  -1.502  0.00  0.00    -0.570 NA
ATOM      4  C   LIG    1        0.418  -1.829  -1.577  0.00  0.00    +0.510 A 
ATOM      5  C   LIG    1        0.191  -2.582  -0.437  0.00  0.00    -0.460 A 
ATOM      6  C   LIG    1       -0.061  -1.910   0.767  0.00  0.00    +0.550 A 
ATOM      7  O   LIG    1       -0.266  -2.533   1.796  0.00  0.00    -0.540 OA
ATOM      8  N   LIG    1       -0.065  -0.560   0.768  0.00  0.00    -0.640 N 
ATOM      9  H   LIG    1       -0.237  -0.079   1.592  0.00  0.00    +0.430 HD
ENDROOT
BRANCH   4  10
ATOM     10  N   LIG    1        0.670  -2.453  -2.782  0.00  0.00    -0.810 N 
ATOM     11  H   LIG    1        0.687  -3.421  -2.833  0.00  0.00    +0.410 HD
ATOM     12  H   LIG    1        0.829  -1.923  -3.579  0.00  0.00    +0.420 HD
ENDBRANCH   4  10
BRANCH   5  13
ATOM     13  C   LIG    1        0.213  -4.088  -0.490  0.00  0.00    +0.350 C 
BRANCH  13  14
ATOM     14  N   LIG    1        1.547  -4.572  -0.112  0.00  0.00    -0.380 N 
ATOM     15  H   LIG    1        2.241  -4.138  -0.702  0.00  0.00    +0.430 HD
BRANCH  14  16
ATOM     16  C   LIG    1        1.605  -6.030  -0.278  0.00  0.00    +0.260 C 
BRANCH  16  17
ATOM     17  C   LIG    1        1.478  -6.380  -1.762  0.00  0.00    +0.220 C 
BRANCH  17  18
ATOM     18  O   LIG    1        2.598  -5.848  -2.474  0.00  0.00    -0.580 OA
ATOM     19  H   LIG    1        2.547  -5.966  -3.432  0.00  0.00    +0.410 HD
ENDBRANCH  17  18
ENDBRANCH  16  17
ENDBRANCH  14  16
BRANCH  14  20
ATOM     20  C   LIG    1        1.813  -4.228   1.291  0.00  0.00    +0.280 C 
BRANCH  20  21
ATOM     21  C   LIG    1        3.243  -4.635   1.654  0.00  0.00    +0.210 C 
BRANCH  21  22
ATOM     22  O   LIG    1        4.167  -3.879   0.868  0.00  0.00    -0.580 OA
ATOM     23  H   LIG    1        5.095  -4.086   1.045  0.00  0.00    +0.410 HD
ENDBRANCH  21  22
ENDBRANCH  20  21
ENDBRANCH  14  20
ENDBRANCH  13  14
ENDBRANCH   5  13
TORSDOF 9
ENDMDL
MODEL      285
REMARK  Name = ZINC000005551934
REMARK                            x       y       z     vdW  Elec       q    Type
REMARK                         _______ _______ _______ _____ _____    ______ ____
ROOT
ATOM      1  C   LIG    1        0.001  -4.173  -0.023  0.00  0.00    +0.450 C 
ATOM      2  C   LIG    1       -0.549  -4.717   1.320  0.00  0.00    +0.090 C 
ATOM      3  C   LIG    1       -2.079  -4.594   1.117  0.00  0.00    +0.170 C 
ATOM      4  C   LIG    1       -2.253  -4.530  -0.413  0.00  0.00    +0.160 C 
ATOM      5  O   LIG    1       -0.944  -4.659  -1.000  0.00  0.00    -0.320 OA
ENDROOT
BRANCH   1   9
ATOM      6  C   LIG    1        0.123  -0.006   0.053  0.00  0.00    +0.510 A 
ATOM      7  N   LIG    1        0.916  -0.727   0.835  0.00  0.00    -0.610 NA
ATOM      8  C   LIG    1        0.872  -2.058   0.806  0.00  0.00    +0.660 A 
ATOM      9  N   LIG    1        0.026  -2.708  -0.014  0.00  0.00    -0.560 N 
ATOM     10  C   LIG    1       -0.807  -2.011  -0.836  0.00  0.00    +0.350 A 
ATOM     11  O   LIG    1        1.611  -2.698   1.536  0.00  0.00    -0.540 OA
ATOM     12  C   LIG    1       -0.779  -0.657  -0.814  0.00  0.00    -0.130 A 
BRANCH   6  13
ATOM     13  N   LIG    1        0.176   1.368   0.091  0.00  0.00    -0.800 N 
ATOM     14  H   LIG    1        0.795   1.812   0.692  0.00  0.00    +0.420 HD
ATOM     15  H   LIG    1       -0.407   1.892  -0.479  0.00  0.00    +0.420 HD
ENDBRANCH   6  13
ENDBRANCH   1   9
BRANCH   3  16
ATOM     16  N   LIG    1       -2.767  -5.769   1.667  0.00  0.00    -0.630 N 
ATOM     17  H   LIG    1       -2.423  -6.603   1.214  0.00  0.00    +0.440 HD
ATOM     18  H   LIG    1       -3.760  -5.684   1.506  0.00  0.00    +0.440 HD
ATOM     19  H   LIG    1       -2.592  -5.828   2.659  0.00  0.00    +0.440 HD
ENDBRANCH   3  16
BRANCH   4  20
ATOM     20  C   LIG    1       -3.152  -5.675  -0.882  0.00  0.00    +0.190 C 
BRANCH  20  21
ATOM     21  O   LIG    1       -3.403  -5.541  -2.283  0.00  0.00    -0.550 OA
ATOM     22  H   LIG    1       -3.967  -6.235  -2.650  0.00  0.00    +0.400 HD
ENDBRANCH  20  21
ENDBRANCH   4  20
TORSDOF 5
ENDMDL
MODEL      286
REMARK  Name = ZINC000005551938
REMARK                            x       y       z     vdW  Elec       q    Type
REMARK                         _______ _______ _______ _____ _____    ______ ____
ROOT
ATOM      1  C   LIG    1        0.001  -4.173  -0.023  0.00  0.00    +0.430 C 
ATOM      2  C   LIG    1       -0.648  -4.707   1.279  0.00  0.00    +0.070 C 
ATOM      3  C   LIG    1       -1.153  -6.098   0.807  0.00  0.00    +0.170 C 
ATOM      4  C   LIG    1       -1.544  -5.824  -0.661  0.00  0.00    +0.190 C 
ATOM      5  O   LIG    1       -0.838  -4.650  -1.086  0.00  0.00    -0.330 OA
ENDROOT
BRANCH   1   9
ATOM      6  C   LIG    1        0.002  -0.004   0.002  0.00  0.00    +0.510 A 
ATOM      7  N   LIG    1       -1.135  -0.687   0.004  0.00  0.00    -0.620 NA
ATOM      8  C   LIG    1       -1.129  -2.018  -0.004  0.00  0.00    +0.670 A 
ATOM      9  N   LIG    1        0.026  -2.708  -0.014  0.00  0.00    -0.540 N 
ATOM     10  C   LIG    1        1.220  -2.050  -0.016  0.00  0.00    +0.370 A 
ATOM     11  O   LIG    1       -2.189  -2.623  -0.003  0.00  0.00    -0.550 OA
ATOM     12  C   LIG    1        1.230  -0.697  -0.013  0.00  0.00    -0.130 A 
BRANCH   6  13
ATOM     13  N   LIG    1       -0.017   1.371   0.010  0.00  0.00    -0.800 N 
ATOM     14  H   LIG    1       -0.863   1.845   0.016  0.00  0.00    +0.420 HD
ATOM     15  H   LIG    1        0.817   1.868   0.004  0.00  0.00    +0.420 HD
ENDBRANCH   6  13
ENDBRANCH   1   9
BRANCH   3  16
ATOM     16  N   LIG    1       -2.318  -6.525   1.592  0.00  0.00    -0.630 N 
ATOM     17  H   LIG    1       -2.058  -6.609   2.563  0.00  0.00    +0.440 HD
ATOM     18  H   LIG    1       -2.643  -7.418   1.253  0.00  0.00    +0.440 HD
ATOM     19  H   LIG    1       -3.055  -5.842   1.499  0.00  0.00    +0.440 HD
ENDBRANCH   3  16
BRANCH   4  20
ATOM     20  C   LIG    1       -1.146  -7.014  -1.536  0.00  0.00    +0.180 C 
BRANCH  20  21
ATOM     21  O   LIG    1       -1.615  -6.804  -2.869  0.00  0.00    -0.560 OA
ATOM     22  H   LIG    1       -1.397  -7.521  -3.480  0.00  0.00    +0.400 HD
ENDBRANCH  20  21
ENDBRANCH   4  20
TORSDOF 5
ENDMDL
MODEL      287
REMARK  Name = ZINC000169726383
REMARK                            x       y       z     vdW  Elec       q    Type
REMARK                         _______ _______ _______ _____ _____    ______ ____
ROOT
ATOM      1  C   LIG    1        2.952   1.438   1.416  0.00  0.00    +0.200 C 
ENDROOT
BRANCH   1   2
ATOM      2  N   LIG    1        4.352   0.992   1.394  0.00  0.00    -0.530 NA
ATOM      3  C   LIG    1        4.537  -0.113   0.443  0.00  0.00    +0.210 C 
ATOM      4  C   LIG    1        6.016  -0.508   0.406  0.00  0.00    +0.280 C 
ATOM      5  N   LIG    1        6.447  -0.917   1.749  0.00  0.00    -0.510 N 
ATOM      6  C   LIG    1        6.278   0.204   2.683  0.00  0.00    +0.280 C 
ATOM      7  H   LIG    1        7.418  -1.189   1.722  0.00  0.00    +0.440 HD
ATOM      8  H   LIG    1        5.888  -1.699   2.058  0.00  0.00    +0.430 HD
ATOM      9  C   LIG    1        4.802   0.605   2.738  0.00  0.00    +0.210 C 
ENDBRANCH   1   2
BRANCH   1  10
ATOM     10  C   LIG    1        2.444   1.593  -0.019  0.00  0.00    +0.330 C 
BRANCH  10  17
ATOM     11  O   LIG    1        0.002  -0.004   0.002  0.00  0.00    -0.450 OA
ATOM     12  C   LIG    1       -0.014   1.208   0.009  0.00  0.00    +0.500 C 
ATOM     13  C   LIG    1       -1.234   2.108   0.032  0.00  0.00    +0.310 C 
ATOM     14  O   LIG    1       -0.671   3.455   0.030  0.00  0.00    -0.300 OA
ATOM     15  C   LIG    1        0.664   3.320   0.010  0.00  0.00    +0.650 C 
ATOM     16  O   LIG    1        1.438   4.256   0.003  0.00  0.00    -0.460 OA
ATOM     17  N   LIG    1        1.048   2.038   0.003  0.00  0.00    -0.590 N 
ENDBRANCH  10  17
ENDBRANCH   1  10
TORSDOF 3
ENDMDL
MODEL      288
REMARK  Name = ZINC000001497589
REMARK                            x       y       z     vdW  Elec       q    Type
REMARK                         _______ _______ _______ _____ _____    ______ ____
ROOT
ATOM      1  C   LIG    1        0.025   1.461  -0.005  0.00  0.00    +0.350 C 
ATOM      2  N   LIG    1        0.024  -0.004  -0.006  0.00  0.00    -0.560 N 
ATOM      3  C   LIG    1       -0.690  -0.671  -0.934  0.00  0.00    +0.550 A 
ATOM      4  C   LIG    1       -0.689  -2.075  -0.932  0.00  0.00    -0.170 A 
ATOM      5  C   LIG    1        0.039  -2.737   0.016  0.00  0.00    +0.450 A 
ATOM      6  N   LIG    1        0.752  -2.017   0.944  0.00  0.00    -0.650 N 
ATOM      7  H   LIG    1        1.271  -2.481   1.619  0.00  0.00    +0.430 HD
ATOM      8  O   LIG    1       -1.332  -0.059  -1.771  0.00  0.00    -0.510 OA
ATOM      9  C   LIG    1        0.739  -0.672   0.917  0.00  0.00    +0.710 A 
ATOM     10  O   LIG    1        1.376  -0.050   1.746  0.00  0.00    -0.520 OA
ENDROOT
BRANCH   5  11
ATOM     11  N   LIG    1        0.059  -4.108   0.041  0.00  0.00    -0.640 N 
ATOM     12  C   LIG    1       -0.040  -4.889  -1.202  0.00  0.00    +0.350 C 
ATOM     13  C   LIG    1        1.096  -5.917  -1.221  0.00  0.00    +0.270 C 
ATOM     14  N   LIG    1        1.046  -6.722   0.006  0.00  0.00    -0.380 N 
ATOM     15  C   LIG    1        1.304  -5.871   1.174  0.00  0.00    +0.260 C 
ATOM     16  C   LIG    1        2.067  -7.777  -0.062  0.00  0.00    +0.330 C 
ATOM     17  H   LIG    1        0.134  -7.144   0.093  0.00  0.00    +0.430 HD
ATOM     18  C   LIG    1        0.184  -4.840   1.311  0.00  0.00    +0.320 C 
ENDBRANCH   5  11
TORSDOF 1
ENDMDL
MODEL      289
REMARK  Name = ZINC000229015739
REMARK                            x       y       z     vdW  Elec       q    Type
REMARK                         _______ _______ _______ _____ _____    ______ ____
ROOT
ATOM      1  O   LIG    1        0.002  -0.004   0.002  0.00  0.00    -0.510 OA
ATOM      2  C   LIG    1       -0.015   1.215   0.009  0.00  0.00    +0.650 A 
ATOM      3  N   LIG    1       -1.115   1.995   0.029  0.00  0.00    -0.520 N 
ATOM      4  H   LIG    1       -2.035   1.687   0.041  0.00  0.00    +0.470 HD
ATOM      5  N   LIG    1       -0.688   3.331   0.031  0.00  0.00    -0.260 NA
ATOM      6  C   LIG    1        0.618   3.334   0.011  0.00  0.00    +0.240 A 
ATOM      7  C   LIG    1        1.622   4.406   0.003  0.00  0.00    +0.460 A 
ATOM      8  N   LIG    1        2.898   4.082  -0.018  0.00  0.00    -0.490 NA
ATOM      9  C   LIG    1        3.292   2.801  -0.031  0.00  0.00    +0.230 A 
ATOM     10  C   LIG    1        2.421   1.782  -0.025  0.00  0.00    +0.230 A 
ATOM     11  N   LIG    1        1.061   2.022   0.003  0.00  0.00    -0.460 N 
ENDROOT
BRANCH   7  12
ATOM     12  N   LIG    1        1.233   5.734   0.016  0.00  0.00    -0.600 N 
ATOM     13  C   LIG    1       -0.190   6.106   0.046  0.00  0.00    +0.330 C 
ATOM     14  C   LIG    1       -0.404   7.119   1.175  0.00  0.00    +0.270 C 
ATOM     15  N   LIG    1        0.514   8.251   0.997  0.00  0.00    -0.510 N 
ATOM     16  C   LIG    1        1.903   7.794   1.133  0.00  0.00    +0.270 C 
ATOM     17  H   LIG    1        0.323   8.951   1.697  0.00  0.00    +0.440 HD
ATOM     18  H   LIG    1        0.381   8.649   0.079  0.00  0.00    +0.430 HD
ATOM     19  C   LIG    1        2.232   6.815   0.008  0.00  0.00    +0.340 C 
ENDBRANCH   7  12
TORSDOF 1
ENDMDL
MODEL      290
REMARK  Name = ZINC000020465675
REMARK                            x       y       z     vdW  Elec       q    Type
REMARK                         _______ _______ _______ _____ _____    ______ ____
ROOT
ATOM      1  C   LIG    1       -1.362  -0.549   0.012  0.00  0.00    +0.150 C 
ATOM      2  C   LIG    1       -1.376  -1.983  -0.563  0.00  0.00    +0.140 C 
ATOM      3  O   LIG    1       -1.277  -2.845   0.592  0.00  0.00    -0.350 OA
ATOM      4  C   LIG    1       -2.124  -2.239   1.592  0.00  0.00    +0.140 C 
ATOM      5  C   LIG    1       -1.867  -0.718   1.463  0.00  0.00    +0.170 C 
ENDROOT
BRANCH   1   7
ATOM      6  C   LIG    1       -0.018   1.465   0.010  0.00  0.00    +0.220 C 
ATOM      7  N   LIG    1        0.002  -0.004   0.002  0.00  0.00    -0.660 NA
ATOM      8  H   LIG    1        0.526  -0.354  -0.786  0.00  0.00    +0.330 HD
ENDBRANCH   1   7
BRANCH   5   9
ATOM      9  O   LIG    1       -0.869  -0.298   2.395  0.00  0.00    -0.520 OA
ATOM     10  H   LIG    1       -1.110  -0.440   3.320  0.00  0.00    +0.380 HD
ENDBRANCH   5   9
BRANCH   4  11
ATOM     11  C   LIG    1       -1.735  -2.731   2.988  0.00  0.00    +0.220 C 
BRANCH  11  12
ATOM     12  O   LIG    1       -2.024  -4.126   3.099  0.00  0.00    -0.570 OA
ATOM     13  H   LIG    1       -1.802  -4.506   3.960  0.00  0.00    +0.390 HD
ENDBRANCH  11  12
ENDBRANCH   4  11
BRANCH   2  14
ATOM     14  C   LIG    1       -0.180  -2.195  -1.494  0.00  0.00    +0.280 C 
BRANCH  14  15
ATOM     15  N   LIG    1       -0.278  -3.520  -2.121  0.00  0.00    -0.500 N 
ATOM     16  H   LIG    1       -1.133  -3.578  -2.654  0.00  0.00    +0.420 HD
ATOM     17  H   LIG    1       -0.278  -4.232  -1.406  0.00  0.00    +0.440 HD
BRANCH  15  18
ATOM     18  C   LIG    1        0.870  -3.724  -3.015  0.00  0.00    +0.160 C 
ATOM     19  C   LIG    1        0.802  -2.723  -4.170  0.00  0.00    +0.080 C 
ATOM     20  C   LIG    1        0.836  -5.149  -3.572  0.00  0.00    +0.090 C 
ENDBRANCH  15  18
ENDBRANCH  14  15
ENDBRANCH   2  14
TORSDOF 7
ENDMDL
MODEL      291
REMARK  Name = ZINC000050242767
REMARK                            x       y       z     vdW  Elec       q    Type
REMARK                         _______ _______ _______ _____ _____    ______ ____
ROOT
ATOM      1  C   LIG    1        2.296  -4.277  -1.669  0.00  0.00    +0.220 C 
ENDROOT
BRANCH   1   2
ATOM      2  N   LIG    1        2.257  -5.742  -1.777  0.00  0.00    -0.500 NA
ATOM      3  C   LIG    1        2.592  -6.378  -0.485  0.00  0.00    +0.230 C 
ATOM      4  C   LIG    1        3.340  -7.679  -0.867  0.00  0.00    +0.060 C 
ATOM      5  C   LIG    1        4.158  -7.220  -2.103  0.00  0.00    +0.150 C 
ATOM      6  C   LIG    1        3.207  -6.222  -2.797  0.00  0.00    +0.220 C 
BRANCH   5   7
ATOM      7  N   LIG    1        4.454  -8.359  -2.982  0.00  0.00    -0.630 N 
ATOM      8  H   LIG    1        5.010  -9.035  -2.481  0.00  0.00    +0.440 HD
ATOM      9  H   LIG    1        4.964  -8.036  -3.791  0.00  0.00    +0.440 HD
ATOM     10  H   LIG    1        3.590  -8.788  -3.279  0.00  0.00    +0.440 HD
ENDBRANCH   5   7
ENDBRANCH   1   2
BRANCH   1  13
ATOM     11  N   LIG    1        1.401  -2.532  -0.162  0.00  0.00    -0.720 N 
ATOM     12  H   LIG    1        1.835  -1.870  -0.723  0.00  0.00    +0.410 HD
ATOM     13  C   LIG    1        1.505  -3.841  -0.462  0.00  0.00    +0.510 C 
ATOM     14  O   LIG    1        0.963  -4.669   0.239  0.00  0.00    -0.530 OA
BRANCH  11  15
ATOM     15  C   LIG    1        0.633  -2.108   1.011  0.00  0.00    +0.290 C 
BRANCH  15  16
ATOM     16  C   LIG    1        0.673  -0.582   1.123  0.00  0.00    +0.170 C 
BRANCH  16  18
ATOM     17  C   LIG    1       -0.017   1.425   0.010  0.00  0.00    +0.210 C 
ATOM     18  O   LIG    1        0.002  -0.004   0.002  0.00  0.00    -0.390 OA
ENDBRANCH  16  18
ENDBRANCH  15  16
ENDBRANCH  11  15
ENDBRANCH   1  13
TORSDOF 6
ENDMDL
MODEL      292
REMARK  Name = ZINC000050224791
REMARK                            x       y       z     vdW  Elec       q    Type
REMARK                         _______ _______ _______ _____ _____    ______ ____
ROOT
ATOM      1  C   LIG    1        1.790  -6.419  -3.044  0.00  0.00    +0.380 C 
ENDROOT
BRANCH   1   2
ATOM      2  N   LIG    1        2.456  -7.000  -4.213  0.00  0.00    -0.270 N 
ATOM      3  C   LIG    1        3.477  -7.887  -4.184  0.00  0.00    +0.210 A 
ATOM      4  C   LIG    1        3.782  -8.154  -5.476  0.00  0.00    -0.110 A 
ATOM      5  N   LIG    1        2.943  -7.426  -6.222  0.00  0.00    -0.240 NA
ATOM      6  N   LIG    1        2.167  -6.757  -5.444  0.00  0.00    -0.020 NA
BRANCH   4   7
ATOM      7  C   LIG    1        4.854  -9.087  -5.975  0.00  0.00    +0.400 C 
BRANCH   7   8
ATOM      8  N   LIG    1        4.267 -10.405  -6.250  0.00  0.00    -0.640 N 
ATOM      9  H   LIG    1        4.985 -11.030  -6.585  0.00  0.00    +0.440 HD
ATOM     10  H   LIG    1        3.548 -10.313  -6.952  0.00  0.00    +0.440 HD
ATOM     11  H   LIG    1        3.865 -10.777  -5.403  0.00  0.00    +0.430 HD
ENDBRANCH   7   8
ENDBRANCH   4   7
ENDBRANCH   1   2
BRANCH   1  14
ATOM     12  N   LIG    1        1.272  -4.165  -2.169  0.00  0.00    -0.720 N 
ATOM     13  H   LIG    1        0.847  -4.592  -1.409  0.00  0.00    +0.410 HD
ATOM     14  C   LIG    1        1.828  -4.916  -3.140  0.00  0.00    +0.500 C 
ATOM     15  O   LIG    1        2.359  -4.382  -4.090  0.00  0.00    -0.510 OA
BRANCH  12  16
ATOM     16  C   LIG    1        1.309  -2.703  -2.261  0.00  0.00    +0.280 C 
BRANCH  16  17
ATOM     17  C   LIG    1        0.613  -2.097  -1.041  0.00  0.00    +0.030 C 
BRANCH  17  18
ATOM     18  C   LIG    1        0.652  -0.570  -1.138  0.00  0.00    +0.160 C 
BRANCH  18  20
ATOM     19  C   LIG    1       -0.017   1.425   0.010  0.00  0.00    +0.200 C 
ATOM     20  O   LIG    1        0.002  -0.004   0.002  0.00  0.00    -0.390 OA
ENDBRANCH  18  20
ENDBRANCH  17  18
ENDBRANCH  16  17
ENDBRANCH  12  16
ENDBRANCH   1  14
TORSDOF 8
ENDMDL
MODEL      293
REMARK  Name = ZINC000041028381
REMARK                            x       y       z     vdW  Elec       q    Type
REMARK                         _______ _______ _______ _____ _____    ______ ____
ROOT
ATOM      1  C   LIG    1       -0.699   1.479   1.216  0.00  0.00    +0.160 C 
ATOM      2  C   LIG    1       -2.135   0.948   1.228  0.00  0.00    +0.050 C 
ATOM      3  C   LIG    1       -2.862   1.468   2.471  0.00  0.00    +0.060 C 
ATOM      4  C   LIG    1       -2.147   0.958   3.726  0.00  0.00    +0.280 C 
ATOM      5  N   LIG    1       -0.731   1.341   3.652  0.00  0.00    -0.610 N 
ATOM      6  C   LIG    1       -0.149   2.019   4.661  0.00  0.00    +0.510 C 
ATOM      7  O   LIG    1        1.021   2.329   4.588  0.00  0.00    -0.490 OA
ATOM      8  C   LIG    1        0.040   0.970   2.458  0.00  0.00    +0.310 C 
ENDROOT
BRANCH   1   9
ATOM      9  N   LIG    1       -0.012   1.005   0.008  0.00  0.00    -0.630 N 
ATOM     10  H   LIG    1       -0.500   1.339  -0.810  0.00  0.00    +0.440 HD
ATOM     11  H   LIG    1        0.935   1.354   0.000  0.00  0.00    +0.440 HD
ATOM     12  H   LIG    1        0.002  -0.004   0.002  0.00  0.00    +0.440 HD
ENDBRANCH   1   9
BRANCH   6  13
ATOM     13  C   LIG    1       -0.953   2.393   5.880  0.00  0.00    +0.390 C 
BRANCH  13  14
ATOM     14  N   LIG    1       -0.099   3.119   6.824  0.00  0.00    -0.310 N 
ATOM     15  C   LIG    1       -0.342   4.334   7.350  0.00  0.00    +0.410 A 
ATOM     16  N   LIG    1        0.666   4.610   8.140  0.00  0.00    -0.300 NA
ATOM     17  N   LIG    1        1.486   3.617   8.101  0.00  0.00    -0.060 NA
ATOM     18  N   LIG    1        1.024   2.712   7.311  0.00  0.00    -0.070 NA
ENDBRANCH  13  14
ENDBRANCH   6  13
TORSDOF 3
ENDMDL
MODEL      294
REMARK  Name = ZINC000257342019
REMARK                            x       y       z     vdW  Elec       q    Type
REMARK                         _______ _______ _______ _____ _____    ______ ____
ROOT
ATOM      1  C   LIG    1        0.002  -0.004   0.002  0.00  0.00    +0.650 A 
ATOM      2  N   LIG    1       -1.151  -0.660   0.004  0.00  0.00    -0.630 NA
ATOM      3  C   LIG    1       -1.185  -1.988  -0.003  0.00  0.00    +0.560 A 
ATOM      4  C   LIG    1        0.031  -2.692  -0.013  0.00  0.00    -0.160 A 
ATOM      5  N   LIG    1        0.371  -4.005  -0.021  0.00  0.00    -0.410 NA
ATOM      6  C   LIG    1        1.667  -4.117  -0.028  0.00  0.00    +0.400 A 
ATOM      7  N   LIG    1        2.241  -2.879  -0.024  0.00  0.00    -0.490 N 
ATOM      8  C   LIG    1        1.227  -1.955  -0.015  0.00  0.00    +0.370 A 
ATOM      9  N   LIG    1        1.169  -0.627  -0.013  0.00  0.00    -0.620 NA
ENDROOT
BRANCH   7  10
ATOM     10  C   LIG    1        3.677  -2.590  -0.029  0.00  0.00    +0.290 C 
ATOM     11  C   LIG    1        4.364  -3.259   1.181  0.00  0.00    +0.300 C 
ATOM     12  N   LIG    1        4.875  -4.550   0.654  0.00  0.00    -0.520 N 
ATOM     13  C   LIG    1        5.380  -4.217  -0.703  0.00  0.00    +0.260 C 
ATOM     14  H   LIG    1        4.130  -5.229   0.598  0.00  0.00    +0.430 HD
ATOM     15  H   LIG    1        5.625  -4.896   1.234  0.00  0.00    +0.440 HD
ATOM     16  C   LIG    1        4.346  -3.217  -1.270  0.00  0.00    +0.190 C 
BRANCH  16  17
ATOM     17  O   LIG    1        5.000  -2.214  -2.048  0.00  0.00    -0.530 OA
ATOM     18  H   LIG    1        5.475  -2.559  -2.817  0.00  0.00    +0.400 HD
ENDBRANCH  16  17
ENDBRANCH   7  10
BRANCH   1  19
ATOM     19  N   LIG    1       -0.017   1.381   0.010  0.00  0.00    -0.810 N 
ATOM     20  H   LIG    1       -0.863   1.855   0.016  0.00  0.00    +0.420 HD
ATOM     21  H   LIG    1        0.817   1.877   0.004  0.00  0.00    +0.420 HD
ENDBRANCH   1  19
BRANCH   3  22
ATOM     22  N   LIG    1       -2.393  -2.664  -0.001  0.00  0.00    -0.810 N 
ATOM     23  H   LIG    1       -2.406  -3.634  -0.006  0.00  0.00    +0.420 HD
ATOM     24  H   LIG    1       -3.226  -2.168   0.005  0.00  0.00    +0.420 HD
ENDBRANCH   3  22
TORSDOF 4
ENDMDL
MODEL      295
REMARK  Name = ZINC000028631557
REMARK                            x       y       z     vdW  Elec       q    Type
REMARK                         _______ _______ _______ _____ _____    ______ ____
ROOT
ATOM      1  C   LIG    1        1.827  -4.119  -4.157  0.00  0.00    +0.260 C 
ATOM      2  C   LIG    1        3.337  -4.124  -3.907  0.00  0.00    +0.060 C 
ENDROOT
BRANCH   1   5
ATOM      3  N   LIG    1        1.354  -2.503  -2.345  0.00  0.00    -0.710 N 
ATOM      4  H   LIG    1        1.990  -1.899  -2.760  0.00  0.00    +0.420 HD
ATOM      5  C   LIG    1        1.111  -3.709  -2.896  0.00  0.00    +0.520 C 
ATOM      6  O   LIG    1        0.316  -4.463  -2.377  0.00  0.00    -0.530 OA
BRANCH   3   7
ATOM      7  C   LIG    1        0.657  -2.104  -1.120  0.00  0.00    +0.280 C 
ATOM      8  C   LIG    1        1.412  -2.647   0.096  0.00  0.00    +0.080 C 
BRANCH   7   9
ATOM      9  C   LIG    1        0.598  -0.600  -1.043  0.00  0.00    +0.460 C 
ATOM     10  O   LIG    1        1.088   0.070  -1.921  0.00  0.00    -0.500 OA
BRANCH   9  12
ATOM     11  C   LIG    1       -0.018   1.448   0.010  0.00  0.00    +0.280 C 
ATOM     12  O   LIG    1        0.002  -0.004   0.002  0.00  0.00    -0.350 OA
ENDBRANCH   9  12
ENDBRANCH   7   9
ENDBRANCH   3   7
ENDBRANCH   1   5
BRANCH   1  13
ATOM     13  N   LIG    1        1.393  -5.462  -4.550  0.00  0.00    -0.680 N 
ATOM     14  H   LIG    1        1.047  -6.075  -3.882  0.00  0.00    +0.420 HD
ATOM     15  C   LIG    1        1.474  -5.846  -5.839  0.00  0.00    +0.510 C 
ATOM     16  O   LIG    1        1.907  -5.080  -6.674  0.00  0.00    -0.530 OA
BRANCH  15  17
ATOM     17  C   LIG    1        1.028  -7.228  -6.243  0.00  0.00    +0.180 C 
ATOM     18  C   LIG    1       -0.452  -7.407  -5.897  0.00  0.00    +0.120 C 
BRANCH  17  19
ATOM     19  N   LIG    1        1.216  -7.399  -7.690  0.00  0.00    -0.620 N 
ATOM     20  H   LIG    1        0.669  -6.710  -8.185  0.00  0.00    +0.440 HD
ATOM     21  H   LIG    1        0.917  -8.324  -7.961  0.00  0.00    +0.440 HD
ATOM     22  H   LIG    1        2.192  -7.281  -7.918  0.00  0.00    +0.440 HD
ENDBRANCH  17  19
ENDBRANCH  15  17
ENDBRANCH   1  13
TORSDOF 7
ENDMDL
MODEL      296
REMARK  Name = ZINC000028631561
REMARK                            x       y       z     vdW  Elec       q    Type
REMARK                         _______ _______ _______ _____ _____    ______ ____
ROOT
ATOM      1  C   LIG    1        1.827  -4.119  -4.157  0.00  0.00    +0.260 C 
ATOM      2  C   LIG    1        1.499  -3.129  -5.276  0.00  0.00    +0.070 C 
ENDROOT
BRANCH   1   5
ATOM      3  N   LIG    1        1.354  -2.503  -2.345  0.00  0.00    -0.710 N 
ATOM      4  H   LIG    1        1.990  -1.899  -2.760  0.00  0.00    +0.420 HD
ATOM      5  C   LIG    1        1.111  -3.709  -2.896  0.00  0.00    +0.520 C 
ATOM      6  O   LIG    1        0.316  -4.463  -2.377  0.00  0.00    -0.530 OA
BRANCH   3   7
ATOM      7  C   LIG    1        0.657  -2.104  -1.120  0.00  0.00    +0.280 C 
ATOM      8  C   LIG    1        1.412  -2.647   0.096  0.00  0.00    +0.080 C 
BRANCH   7   9
ATOM      9  C   LIG    1        0.598  -0.600  -1.043  0.00  0.00    +0.460 C 
ATOM     10  O   LIG    1        1.088   0.070  -1.921  0.00  0.00    -0.500 OA
BRANCH   9  12
ATOM     11  C   LIG    1       -0.018   1.448   0.010  0.00  0.00    +0.280 C 
ATOM     12  O   LIG    1        0.002  -0.004   0.002  0.00  0.00    -0.350 OA
ENDBRANCH   9  12
ENDBRANCH   7   9
ENDBRANCH   3   7
ENDBRANCH   1   5
BRANCH   1  13
ATOM     13  N   LIG    1        1.393  -5.462  -4.550  0.00  0.00    -0.680 N 
ATOM     14  H   LIG    1        0.524  -5.792  -4.271  0.00  0.00    +0.420 HD
ATOM     15  C   LIG    1        2.200  -6.239  -5.298  0.00  0.00    +0.510 C 
ATOM     16  O   LIG    1        3.286  -5.827  -5.647  0.00  0.00    -0.530 OA
BRANCH  15  17
ATOM     17  C   LIG    1        1.754  -7.620  -5.703  0.00  0.00    +0.180 C 
ATOM     18  C   LIG    1        0.469  -7.520  -6.527  0.00  0.00    +0.120 C 
BRANCH  17  19
ATOM     19  N   LIG    1        2.803  -8.259  -6.508  0.00  0.00    -0.620 N 
ATOM     20  H   LIG    1        2.976  -7.706  -7.335  0.00  0.00    +0.440 HD
ATOM     21  H   LIG    1        2.504  -9.183  -6.779  0.00  0.00    +0.440 HD
ATOM     22  H   LIG    1        3.651  -8.325  -5.965  0.00  0.00    +0.440 HD
ENDBRANCH  17  19
ENDBRANCH  15  17
ENDBRANCH   1  13
TORSDOF 7
ENDMDL
MODEL      297
REMARK  Name = ZINC000215281795
REMARK                            x       y       z     vdW  Elec       q    Type
REMARK                         _______ _______ _______ _____ _____    ______ ____
ROOT
ATOM      1  O   LIG    1        0.002  -0.004   0.002  0.00  0.00    -0.970 OA
ATOM      2  S   LIG    1       -0.017   1.417   0.010  0.00  0.00    +2.780 S 
ATOM      3  N   LIG    1       -0.590   1.884   1.505  0.00  0.00    -1.120 NA
ATOM      4  H   LIG    1       -1.151   1.298   2.037  0.00  0.00    +0.430 HD
ATOM      5  C   LIG    1       -0.207   3.224   1.982  0.00  0.00    +0.290 C 
ATOM      6  C   LIG    1        1.317   3.346   1.971  0.00  0.00    +0.030 C 
ATOM      7  C   LIG    1        1.856   3.259   0.544  0.00  0.00    +0.270 C 
ATOM      8  O   LIG    1       -0.704   2.198  -0.958  0.00  0.00    -0.960 OA
ATOM      9  N   LIG    1        1.572   1.921  -0.003  0.00  0.00    -1.010 NA
ENDROOT
BRANCH   9  10
ATOM     10  C   LIG    1        2.640   1.070  -0.534  0.00  0.00    +0.280 C 
ATOM     11  C   LIG    1        3.721   0.830   0.545  0.00  0.00    +0.080 C 
ATOM     12  C   LIG    1        5.040   0.892  -0.266  0.00  0.00    +0.280 C 
ATOM     13  N   LIG    1        4.777   1.965  -1.259  0.00  0.00    -0.520 N 
ATOM     14  H   LIG    1        5.396   1.865  -2.050  0.00  0.00    +0.440 HD
ATOM     15  H   LIG    1        4.900   2.871  -0.833  0.00  0.00    +0.430 HD
ATOM     16  C   LIG    1        3.370   1.785  -1.685  0.00  0.00    +0.260 C 
ENDBRANCH   9  10
TORSDOF 1
ENDMDL
MODEL      298
REMARK  Name = ZINC000215281360
REMARK                            x       y       z     vdW  Elec       q    Type
REMARK                         _______ _______ _______ _____ _____    ______ ____
ROOT
ATOM      1  C   LIG    1       -0.018   1.461   0.010  0.00  0.00    +0.340 C 
ATOM      2  N   LIG    1        0.002  -0.004   0.002  0.00  0.00    -1.000 NA
ATOM      3  C   LIG    1        0.010  -0.905  -1.166  0.00  0.00    +0.280 C 
ATOM      4  C   LIG    1       -0.729  -2.190  -0.777  0.00  0.00    +0.260 C 
ATOM      5  N   LIG    1       -0.466  -2.487   0.640  0.00  0.00    -1.010 NA
ATOM      6  S   LIG    1        0.029  -1.039   1.313  0.00  0.00    +2.760 S 
ATOM      7  O   LIG    1       -1.002  -0.614   2.194  0.00  0.00    -0.960 OA
ATOM      8  O   LIG    1        1.386  -1.200   1.702  0.00  0.00    -0.960 OA
ENDROOT
BRANCH   5   9
ATOM      9  C   LIG    1       -0.602  -3.779   1.317  0.00  0.00    +0.310 C 
ATOM     10  C   LIG    1        0.274  -4.845   0.620  0.00  0.00    +0.080 C 
ATOM     11  C   LIG    1       -0.619  -6.110   0.663  0.00  0.00    +0.280 C 
ATOM     12  N   LIG    1       -1.984  -5.570   0.435  0.00  0.00    -0.520 N 
ATOM     13  H   LIG    1       -2.676  -6.216   0.783  0.00  0.00    +0.440 HD
ATOM     14  H   LIG    1       -2.131  -5.399  -0.548  0.00  0.00    +0.430 HD
ATOM     15  C   LIG    1       -2.046  -4.298   1.192  0.00  0.00    +0.270 C 
ENDBRANCH   5   9
TORSDOF 1
ENDMDL
MODEL      299
REMARK  Name = ZINC000215281852
REMARK                            x       y       z     vdW  Elec       q    Type
REMARK                         _______ _______ _______ _____ _____    ______ ____
ROOT
ATOM      1  O   LIG    1        0.002  -0.004   0.002  0.00  0.00    -0.970 OA
ATOM      2  S   LIG    1       -0.017   1.417   0.010  0.00  0.00    +2.780 S 
ATOM      3  N   LIG    1       -0.590   1.884   1.505  0.00  0.00    -1.120 NA
ATOM      4  H   LIG    1       -1.151   1.298   2.037  0.00  0.00    +0.430 HD
ATOM      5  C   LIG    1       -0.207   3.224   1.982  0.00  0.00    +0.290 C 
ATOM      6  C   LIG    1        1.317   3.346   1.971  0.00  0.00    +0.020 C 
ATOM      7  C   LIG    1        1.856   3.259   0.544  0.00  0.00    +0.270 C 
ATOM      8  O   LIG    1       -0.704   2.198  -0.958  0.00  0.00    -0.960 OA
ATOM      9  N   LIG    1        1.572   1.921  -0.003  0.00  0.00    -1.010 NA
ENDROOT
BRANCH   9  10
ATOM     10  C   LIG    1        2.640   1.070  -0.534  0.00  0.00    +0.280 C 
ATOM     11  C   LIG    1        3.396   1.802  -1.667  0.00  0.00    +0.080 C 
ATOM     12  C   LIG    1        4.629   2.391  -0.936  0.00  0.00    +0.270 C 
ATOM     13  N   LIG    1        4.985   1.329   0.040  0.00  0.00    -0.520 N 
ATOM     14  H   LIG    1        5.528   1.720   0.795  0.00  0.00    +0.440 HD
ATOM     15  H   LIG    1        5.504   0.595  -0.419  0.00  0.00    +0.440 HD
ATOM     16  C   LIG    1        3.699   0.802   0.552  0.00  0.00    +0.270 C 
ENDBRANCH   9  10
TORSDOF 1
ENDMDL
MODEL      300
REMARK  Name = ZINC000236171391
REMARK                            x       y       z     vdW  Elec       q    Type
REMARK                         _______ _______ _______ _____ _____    ______ ____
ROOT
ATOM      1  C   LIG    1       -3.273  -2.593   1.475  0.00  0.00    +0.320 C 
ENDROOT
BRANCH   1   2
ATOM      2  N   LIG    1       -2.672  -2.928   2.769  0.00  0.00    -0.570 N 
ATOM      3  C   LIG    1       -1.334  -3.013   2.876  0.00  0.00    +0.500 C 
ATOM      4  C   LIG    1       -0.694  -3.338   4.202  0.00  0.00    +0.290 C 
ATOM      5  O   LIG    1       -1.606  -4.115   4.984  0.00  0.00    -0.350 OA
ATOM      6  C   LIG    1       -2.871  -3.474   5.176  0.00  0.00    +0.300 C 
ATOM      7  O   LIG    1       -0.638  -2.826   1.901  0.00  0.00    -0.490 OA
ATOM      8  C   LIG    1       -3.468  -3.140   3.833  0.00  0.00    +0.490 C 
ATOM      9  O   LIG    1       -4.672  -3.071   3.709  0.00  0.00    -0.480 OA
ENDBRANCH   1   2
BRANCH   1  10
ATOM     10  C   LIG    1       -3.413  -1.074   1.356  0.00  0.00    +0.200 C 
BRANCH  10  11
ATOM     11  O   LIG    1       -2.116  -0.476   1.337  0.00  0.00    -0.390 OA
BRANCH  11  12
ATOM     12  C   LIG    1       -2.135   0.949   1.227  0.00  0.00    +0.200 C 
BRANCH  12  13
ATOM     13  C   LIG    1       -0.699   1.479   1.216  0.00  0.00    +0.290 C 
BRANCH  13  14
ATOM     14  N   LIG    1       -0.012   1.005   0.008  0.00  0.00    -0.640 N 
ATOM     15  H   LIG    1       -0.500   1.339  -0.810  0.00  0.00    +0.430 HD
ATOM     16  H   LIG    1        0.935   1.354   0.000  0.00  0.00    +0.440 HD
ATOM     17  H   LIG    1        0.002  -0.004   0.002  0.00  0.00    +0.440 HD
ENDBRANCH  13  14
ENDBRANCH  12  13
ENDBRANCH  11  12
ENDBRANCH  10  11
ENDBRANCH   1  10
TORSDOF 6
ENDMDL
MODEL      301
REMARK  Name = ZINC000095908523
REMARK                            x       y       z     vdW  Elec       q    Type
REMARK                         _______ _______ _______ _____ _____    ______ ____
ROOT
ATOM      1  S   LIG    1        0.026  -0.329   2.771  0.00  0.00    +2.550 S 
ATOM      2  O   LIG    1       -0.567  -1.422   3.458  0.00  0.00    -0.860 OA
ATOM      3  O   LIG    1       -0.590   0.952   2.761  0.00  0.00    -0.900 OA
ENDROOT
BRANCH   1   4
ATOM      4  C   LIG    1        1.784  -0.186   3.197  0.00  0.00    -0.440 C 
ATOM      5  C   LIG    1        2.462   0.933   2.364  0.00  0.00    +0.120 C 
ATOM      6  C   LIG    1        3.635   1.344   3.288  0.00  0.00    +0.290 C 
ATOM      7  N   LIG    1        3.087   1.254   4.658  0.00  0.00    -0.510 N 
ATOM      8  H   LIG    1        2.766   2.163   4.955  0.00  0.00    +0.440 HD
ATOM      9  H   LIG    1        3.801   0.921   5.288  0.00  0.00    +0.440 HD
ATOM     10  C   LIG    1        1.954   0.305   4.650  0.00  0.00    +0.320 C 
ENDBRANCH   1   4
BRANCH   1  16
ATOM     11  C   LIG    1       -0.018   1.461   0.010  0.00  0.00    +0.360 C 
ATOM     12  N   LIG    1        0.002  -0.004   0.002  0.00  0.00    -0.430 N 
ATOM     13  C   LIG    1        0.009  -0.813  -1.085  0.00  0.00    +0.450 A 
ATOM     14  N   LIG    1        0.027  -2.044  -0.652  0.00  0.00    -0.280 NA
ATOM     15  N   LIG    1        0.032  -2.051   0.634  0.00  0.00    -0.170 NA
ATOM     16  C   LIG    1        0.024  -0.825   1.080  0.00  0.00    -0.390 A 
ENDBRANCH   1  16
TORSDOF 2
ENDMDL
MODEL      302
REMARK  Name = ZINC000095908522
REMARK                            x       y       z     vdW  Elec       q    Type
REMARK                         _______ _______ _______ _____ _____    ______ ____
ROOT
ATOM      1  S   LIG    1        0.026  -0.329   2.771  0.00  0.00    +2.540 S 
ATOM      2  O   LIG    1       -0.567  -1.422   3.458  0.00  0.00    -0.880 OA
ATOM      3  O   LIG    1       -0.590   0.952   2.761  0.00  0.00    -0.900 OA
ENDROOT
BRANCH   1   4
ATOM      4  C   LIG    1        1.784  -0.186   3.197  0.00  0.00    -0.440 C 
ATOM      5  C   LIG    1        2.506  -1.530   2.950  0.00  0.00    +0.130 C 
ATOM      6  C   LIG    1        3.481  -1.626   4.151  0.00  0.00    +0.300 C 
ATOM      7  N   LIG    1        2.693  -1.056   5.274  0.00  0.00    -0.520 N 
ATOM      8  H   LIG    1        3.310  -0.739   6.007  0.00  0.00    +0.440 HD
ATOM      9  H   LIG    1        2.051  -1.745   5.634  0.00  0.00    +0.440 HD
ATOM     10  C   LIG    1        1.947   0.090   4.704  0.00  0.00    +0.320 C 
ENDBRANCH   1   4
BRANCH   1  16
ATOM     11  C   LIG    1       -0.018   1.461   0.010  0.00  0.00    +0.370 C 
ATOM     12  N   LIG    1        0.002  -0.004   0.002  0.00  0.00    -0.420 N 
ATOM     13  C   LIG    1        0.009  -0.813  -1.085  0.00  0.00    +0.450 A 
ATOM     14  N   LIG    1        0.027  -2.044  -0.652  0.00  0.00    -0.280 NA
ATOM     15  N   LIG    1        0.032  -2.051   0.634  0.00  0.00    -0.180 NA
ATOM     16  C   LIG    1        0.024  -0.825   1.080  0.00  0.00    -0.390 A 
ENDBRANCH   1  16
TORSDOF 2
ENDMDL
MODEL      303
REMARK  Name = ZINC000306448586
REMARK                            x       y       z     vdW  Elec       q    Type
REMARK                         _______ _______ _______ _____ _____    ______ ____
ROOT
ATOM      1  O   LIG    1        0.002  -0.004   0.002  0.00  0.00    -0.920 OA
ATOM      2  S   LIG    1       -0.017   1.417   0.010  0.00  0.00    +2.730 S 
ATOM      3  O   LIG    1        1.162   2.210   0.003  0.00  0.00    -0.930 OA
ENDROOT
BRANCH   2   4
ATOM      4  C   LIG    1       -0.930   1.894   1.440  0.00  0.00    -0.800 A 
ATOM      5  C   LIG    1       -0.871   3.068   2.113  0.00  0.00    +0.320 A 
ATOM      6  O   LIG    1       -1.743   2.968   3.126  0.00  0.00    +0.120 OA
ATOM      7  N   LIG    1       -2.300   1.895   3.129  0.00  0.00    -0.340 NA
ATOM      8  C   LIG    1       -1.897   1.143   2.146  0.00  0.00    +0.290 A 
ENDBRANCH   2   4
BRANCH   2   9
ATOM      9  N   LIG    1       -0.900   1.880  -1.312  0.00  0.00    -1.110 NA
ATOM     10  H   LIG    1       -1.261   1.209  -1.914  0.00  0.00    +0.430 HD
BRANCH   9  11
ATOM     11  C   LIG    1       -1.137   3.302  -1.574  0.00  0.00    +0.250 C 
ATOM     12  C   LIG    1       -0.546   3.793  -2.908  0.00  0.00    +0.320 C 
ATOM     13  N   LIG    1       -1.855   3.440  -3.503  0.00  0.00    -0.540 N 
ATOM     14  H   LIG    1       -1.888   2.493  -3.848  0.00  0.00    +0.440 HD
ATOM     15  H   LIG    1       -2.171   4.113  -4.186  0.00  0.00    +0.430 HD
ATOM     16  C   LIG    1       -2.517   3.597  -2.189  0.00  0.00    +0.320 C 
ENDBRANCH   9  11
ENDBRANCH   2   9
TORSDOF 3
ENDMDL
MODEL      304
REMARK  Name = ZINC000307220059
REMARK                            x       y       z     vdW  Elec       q    Type
REMARK                         _______ _______ _______ _____ _____    ______ ____
ROOT
ATOM      1  C   LIG    1       -1.295  -0.603   0.011  0.00  0.00    +0.170 C 
ATOM      2  C   LIG    1       -1.737  -0.948   1.455  0.00  0.00    +0.270 C 
ATOM      3  N   LIG    1       -2.710  -2.045   1.300  0.00  0.00    -0.600 N 
ATOM      4  C   LIG    1       -2.446  -2.733   0.028  0.00  0.00    +0.230 C 
ATOM      5  C   LIG    1       -3.681  -2.364   2.179  0.00  0.00    +0.530 C 
ATOM      6  O   LIG    1       -3.808  -1.724   3.201  0.00  0.00    -0.520 OA
ATOM      7  C   LIG    1       -1.265  -2.006  -0.650  0.00  0.00    +0.190 C 
ENDROOT
BRANCH   5   8
ATOM      8  C   LIG    1       -4.609  -3.516   1.891  0.00  0.00    -0.010 C 
ATOM      9  C   LIG    1       -4.034  -4.888   2.284  0.00  0.00    +0.340 C 
ATOM     10  N   LIG    1       -4.675  -4.669   3.600  0.00  0.00    -0.540 N 
ATOM     11  H   LIG    1       -4.068  -4.207   4.261  0.00  0.00    +0.440 HD
ATOM     12  H   LIG    1       -5.095  -5.505   3.977  0.00  0.00    +0.430 HD
ATOM     13  C   LIG    1       -5.662  -3.752   2.988  0.00  0.00    +0.350 C 
ENDBRANCH   5   8
BRANCH   1  15
ATOM     14  C   LIG    1       -0.017   1.425   0.010  0.00  0.00    +0.230 C 
ATOM     15  O   LIG    1        0.002  -0.004   0.002  0.00  0.00    -0.370 OA
ENDBRANCH   1  15
BRANCH   7  16
ATOM     16  O   LIG    1       -1.473  -1.910  -2.061  0.00  0.00    -0.550 OA
ATOM     17  H   LIG    1       -1.537  -2.765  -2.508  0.00  0.00    +0.390 HD
ENDBRANCH   7  16
TORSDOF 3
ENDMDL
MODEL      305
REMARK  Name = ZINC000409426497
REMARK                            x       y       z     vdW  Elec       q    Type
REMARK                         _______ _______ _______ _____ _____    ______ ____
ROOT
ATOM      1  N   LIG    1        0.688  -0.476  -1.203  0.00  0.00    -0.570 N 
ATOM      2  C   LIG    1        0.047  -0.715  -2.354  0.00  0.00    +0.520 C 
ATOM      3  C   LIG    1        1.040  -1.187  -3.392  0.00  0.00    +0.040 C 
ATOM      4  C   LIG    1        1.184  -0.107  -4.485  0.00  0.00    +0.350 C 
ATOM      5  N   LIG    1        2.218   0.818  -3.967  0.00  0.00    -0.650 N 
ATOM      6  C   LIG    1        3.223  -0.071  -3.339  0.00  0.00    +0.350 C 
ATOM      7  C   LIG    1        2.240   2.183  -4.049  0.00  0.00    +0.780 C 
ATOM      8  C   LIG    1        2.391  -1.180  -2.627  0.00  0.00    +0.030 C 
ATOM      9  O   LIG    1       -1.143  -0.573  -2.535  0.00  0.00    -0.460 OA
ATOM     10  C   LIG    1        2.006  -0.700  -1.245  0.00  0.00    +0.520 C 
ATOM     11  O   LIG    1        2.775  -0.532  -0.323  0.00  0.00    -0.460 OA
ENDROOT
BRANCH   7  12
ATOM     12  N   LIG    1        1.750   2.793  -5.127  0.00  0.00    -0.780 N 
ATOM     13  H   LIG    1        1.766   3.761  -5.185  0.00  0.00    +0.440 HD
ATOM     14  H   LIG    1        1.379   2.269  -5.854  0.00  0.00    +0.440 HD
ENDBRANCH   7  12
BRANCH   7  15
ATOM     15  N   LIG    1        2.750   2.902  -3.051  0.00  0.00    -0.780 N 
ATOM     16  H   LIG    1        2.765   3.870  -3.109  0.00  0.00    +0.440 HD
ATOM     17  H   LIG    1        3.106   2.458  -2.265  0.00  0.00    +0.440 HD
ENDBRANCH   7  15
BRANCH   1  19
ATOM     18  C   LIG    1       -0.019   1.526   0.010  0.00  0.00    +0.040 C 
ATOM     19  C   LIG    1        0.002  -0.004   0.002  0.00  0.00    +0.290 C 
ENDBRANCH   1  19
TORSDOF 3
ENDMDL
MODEL      306
REMARK  Name = ZINC000409426474
REMARK                            x       y       z     vdW  Elec       q    Type
REMARK                         _______ _______ _______ _____ _____    ______ ____
ROOT
ATOM      1  C   LIG    1       -0.018   1.461   0.010  0.00  0.00    +0.320 C 
ATOM      2  N   LIG    1        0.002  -0.004   0.002  0.00  0.00    -0.590 N 
ATOM      3  C   LIG    1       -1.125  -0.766   0.003  0.00  0.00    +0.540 C 
ATOM      4  C   LIG    1       -0.683  -2.158  -0.321  0.00  0.00    -0.010 C 
ATOM      5  C   LIG    1       -1.422  -3.328   0.294  0.00  0.00    +0.070 C 
ATOM      6  C   LIG    1       -0.707  -4.601  -0.210  0.00  0.00    +0.270 C 
ATOM      7  N   LIG    1        0.739  -4.516   0.013  0.00  0.00    -0.610 N 
ATOM      8  C   LIG    1        1.496  -3.290  -0.325  0.00  0.00    +0.350 C 
ATOM      9  C   LIG    1        1.390  -5.573   0.536  0.00  0.00    +0.520 C 
ATOM     10  O   LIG    1        2.587  -5.515   0.725  0.00  0.00    -0.520 OA
ATOM     11  C   LIG    1        0.746  -2.143   0.302  0.00  0.00    -0.020 C 
ATOM     12  O   LIG    1       -2.257  -0.392   0.223  0.00  0.00    -0.460 OA
ATOM     13  C   LIG    1        1.149  -0.735  -0.013  0.00  0.00    +0.550 C 
ATOM     14  O   LIG    1        2.272  -0.327  -0.221  0.00  0.00    -0.450 OA
ENDROOT
BRANCH   9  15
ATOM     15  C   LIG    1        0.632  -6.828   0.885  0.00  0.00    +0.060 C 
BRANCH  15  16
ATOM     16  C   LIG    1        1.600  -7.866   1.456  0.00  0.00    +0.290 C 
BRANCH  16  17
ATOM     17  N   LIG    1        0.861  -9.089   1.797  0.00  0.00    -0.640 N 
ATOM     18  H   LIG    1        1.499  -9.774   2.174  0.00  0.00    +0.440 HD
ATOM     19  H   LIG    1        0.422  -9.459   0.967  0.00  0.00    +0.440 HD
ATOM     20  H   LIG    1        0.154  -8.875   2.484  0.00  0.00    +0.440 HD
ENDBRANCH  16  17
ENDBRANCH  15  16
ENDBRANCH   9  15
TORSDOF 3
ENDMDL
MODEL      307
REMARK  Name = ZINC000409426498
REMARK                            x       y       z     vdW  Elec       q    Type
REMARK                         _______ _______ _______ _____ _____    ______ ____
ROOT
ATOM      1  N   LIG    1        0.688  -0.476  -1.203  0.00  0.00    -0.600 N 
ATOM      2  C   LIG    1        0.051  -0.727  -2.393  0.00  0.00    +0.570 C 
ATOM      3  C   LIG    1        1.125  -0.823  -3.379  0.00  0.00    -0.040 C 
ATOM      4  C   LIG    1        1.288  -1.573  -4.650  0.00  0.00    +0.360 C 
ATOM      5  N   LIG    1        2.757  -1.834  -4.748  0.00  0.00    -0.640 N 
ATOM      6  C   LIG    1        3.384  -1.381  -3.465  0.00  0.00    +0.360 C 
ATOM      7  C   LIG    1        3.411  -2.386  -5.815  0.00  0.00    +0.780 C 
ATOM      8  C   LIG    1        2.231  -1.522  -2.493  0.00  0.00    -0.010 C 
ATOM      9  O   LIG    1       -1.140  -0.844  -2.584  0.00  0.00    -0.440 OA
ATOM     10  C   LIG    1        2.036  -0.712  -1.269  0.00  0.00    +0.560 C 
ATOM     11  O   LIG    1        2.889  -0.331  -0.495  0.00  0.00    -0.440 OA
ENDROOT
BRANCH   7  12
ATOM     12  N   LIG    1        2.819  -3.333  -6.541  0.00  0.00    -0.780 N 
ATOM     13  H   LIG    1        3.282  -3.724  -7.298  0.00  0.00    +0.440 HD
ATOM     14  H   LIG    1        1.924  -3.631  -6.313  0.00  0.00    +0.440 HD
ENDBRANCH   7  12
BRANCH   7  15
ATOM     15  N   LIG    1        4.639  -1.977  -6.128  0.00  0.00    -0.780 N 
ATOM     16  H   LIG    1        5.102  -2.369  -6.886  0.00  0.00    +0.440 HD
ATOM     17  H   LIG    1        5.070  -1.288  -5.600  0.00  0.00    +0.440 HD
ENDBRANCH   7  15
BRANCH   1  19
ATOM     18  C   LIG    1       -0.019   1.526   0.010  0.00  0.00    +0.030 C 
ATOM     19  C   LIG    1        0.002  -0.004   0.002  0.00  0.00    +0.300 C 
ENDBRANCH   1  19
TORSDOF 3
ENDMDL
MODEL      308
REMARK  Name = ZINC000409426476
REMARK                            x       y       z     vdW  Elec       q    Type
REMARK                         _______ _______ _______ _____ _____    ______ ____
ROOT
ATOM      1  C   LIG    1       -0.018   1.461   0.010  0.00  0.00    +0.320 C 
ATOM      2  N   LIG    1        0.002  -0.004   0.002  0.00  0.00    -0.580 N 
ATOM      3  C   LIG    1       -1.117  -0.748   0.004  0.00  0.00    +0.530 C 
ATOM      4  C   LIG    1       -0.713  -2.195  -0.089  0.00  0.00    +0.000 C 
ATOM      5  C   LIG    1       -1.540  -3.131   0.716  0.00  0.00    +0.070 C 
ATOM      6  C   LIG    1       -0.999  -3.458   2.092  0.00  0.00    +0.280 C 
ATOM      7  N   LIG    1        0.443  -3.644   2.046  0.00  0.00    -0.590 N 
ATOM      8  C   LIG    1        1.320  -2.703   1.382  0.00  0.00    +0.320 C 
ATOM      9  C   LIG    1        0.980  -4.728   2.641  0.00  0.00    +0.520 C 
ATOM     10  O   LIG    1        2.180  -4.902   2.614  0.00  0.00    -0.520 OA
ATOM     11  C   LIG    1        0.790  -2.199   0.079  0.00  0.00    +0.010 C 
ATOM     12  O   LIG    1       -2.252  -0.328   0.068  0.00  0.00    -0.460 OA
ATOM     13  C   LIG    1        1.138  -0.716  -0.013  0.00  0.00    +0.530 C 
ATOM     14  O   LIG    1        2.257  -0.258  -0.105  0.00  0.00    -0.460 OA
ENDROOT
BRANCH   9  15
ATOM     15  C   LIG    1        0.090  -5.723   3.339  0.00  0.00    +0.060 C 
BRANCH  15  16
ATOM     16  C   LIG    1        0.944  -6.849   3.924  0.00  0.00    +0.290 C 
BRANCH  16  17
ATOM     17  N   LIG    1        0.076  -7.820   4.604  0.00  0.00    -0.640 N 
ATOM     18  H   LIG    1        0.640  -8.562   4.990  0.00  0.00    +0.440 HD
ATOM     19  H   LIG    1       -0.581  -8.205   3.942  0.00  0.00    +0.440 HD
ATOM     20  H   LIG    1       -0.426  -7.358   5.347  0.00  0.00    +0.440 HD
ENDBRANCH  16  17
ENDBRANCH  15  16
ENDBRANCH   9  15
TORSDOF 3
ENDMDL
MODEL      309
REMARK  Name = ZINC000409426475
REMARK                            x       y       z     vdW  Elec       q    Type
REMARK                         _______ _______ _______ _____ _____    ______ ____
ROOT
ATOM      1  C   LIG    1       -0.018   1.461   0.010  0.00  0.00    +0.320 C 
ATOM      2  N   LIG    1        0.002  -0.004   0.002  0.00  0.00    -0.580 N 
ATOM      3  C   LIG    1       -1.114  -0.746   0.004  0.00  0.00    +0.530 C 
ATOM      4  C   LIG    1       -0.726  -2.219  -0.102  0.00  0.00    +0.030 C 
ATOM      5  C   LIG    1       -1.239  -2.736  -1.427  0.00  0.00    +0.050 C 
ATOM      6  C   LIG    1       -0.418  -3.846  -2.040  0.00  0.00    +0.290 C 
ATOM      7  N   LIG    1        1.004  -3.541  -1.990  0.00  0.00    -0.600 N 
ATOM      8  C   LIG    1        1.629  -3.077  -0.765  0.00  0.00    +0.330 C 
ATOM      9  C   LIG    1        1.753  -3.691  -3.100  0.00  0.00    +0.520 C 
ATOM     10  O   LIG    1        2.939  -3.439  -3.070  0.00  0.00    -0.520 OA
ATOM     11  C   LIG    1        0.776  -2.175   0.070  0.00  0.00    -0.010 C 
ATOM     12  O   LIG    1       -2.246  -0.319   0.076  0.00  0.00    -0.460 OA
ATOM     13  C   LIG    1        1.141  -0.718  -0.013  0.00  0.00    +0.530 C 
ATOM     14  O   LIG    1        2.264  -0.267  -0.089  0.00  0.00    -0.460 OA
ENDROOT
BRANCH   9  15
ATOM     15  C   LIG    1        1.117  -4.170  -4.380  0.00  0.00    +0.060 C 
BRANCH  15  16
ATOM     16  C   LIG    1        2.179  -4.252  -5.478  0.00  0.00    +0.290 C 
BRANCH  16  17
ATOM     17  N   LIG    1        1.559  -4.720  -6.725  0.00  0.00    -0.640 N 
ATOM     18  H   LIG    1        2.259  -4.774  -7.449  0.00  0.00    +0.440 HD
ATOM     19  H   LIG    1        0.836  -4.074  -7.004  0.00  0.00    +0.440 HD
ATOM     20  H   LIG    1        1.155  -5.633  -6.578  0.00  0.00    +0.440 HD
ENDBRANCH  16  17
ENDBRANCH  15  16
ENDBRANCH   9  15
TORSDOF 3
ENDMDL
MODEL      310
REMARK  Name = ZINC000409426499
REMARK                            x       y       z     vdW  Elec       q    Type
REMARK                         _______ _______ _______ _____ _____    ______ ____
ROOT
ATOM      1  N   LIG    1        0.688  -0.476  -1.203  0.00  0.00    -0.590 N 
ATOM      2  C   LIG    1        0.049  -0.727  -2.393  0.00  0.00    +0.580 C 
ATOM      3  C   LIG    1        1.012  -1.456  -3.180  0.00  0.00    -0.060 C 
ATOM      4  C   LIG    1        1.314  -1.796  -4.581  0.00  0.00    +0.390 C 
ATOM      5  N   LIG    1        2.682  -2.401  -4.471  0.00  0.00    -0.640 N 
ATOM      6  C   LIG    1        3.310  -1.890  -3.221  0.00  0.00    +0.340 C 
ATOM      7  C   LIG    1        3.252  -3.269  -5.361  0.00  0.00    +0.780 C 
ATOM      8  C   LIG    1        2.368  -0.780  -2.731  0.00  0.00    +0.020 C 
ATOM      9  O   LIG    1       -1.075  -0.405  -2.711  0.00  0.00    -0.440 OA
ATOM     10  C   LIG    1        2.032  -0.710  -1.267  0.00  0.00    +0.550 C 
ATOM     11  O   LIG    1        2.794  -0.849  -0.334  0.00  0.00    -0.440 OA
ENDROOT
BRANCH   7  12
ATOM     12  N   LIG    1        2.497  -4.168  -5.991  0.00  0.00    -0.780 N 
ATOM     13  H   LIG    1        2.901  -4.784  -6.622  0.00  0.00    +0.440 HD
ATOM     14  H   LIG    1        1.543  -4.207  -5.819  0.00  0.00    +0.440 HD
ENDBRANCH   7  12
BRANCH   7  15
ATOM     15  N   LIG    1        4.561  -3.216  -5.597  0.00  0.00    -0.780 N 
ATOM     16  H   LIG    1        4.966  -3.832  -6.228  0.00  0.00    +0.440 HD
ATOM     17  H   LIG    1        5.111  -2.562  -5.138  0.00  0.00    +0.440 HD
ENDBRANCH   7  15
BRANCH   1  19
ATOM     18  C   LIG    1       -0.019   1.526   0.010  0.00  0.00    +0.040 C 
ATOM     19  C   LIG    1        0.002  -0.004   0.002  0.00  0.00    +0.300 C 
ENDBRANCH   1  19
TORSDOF 3
ENDMDL
MODEL      311
REMARK  Name = ZINC000409426477
REMARK                            x       y       z     vdW  Elec       q    Type
REMARK                         _______ _______ _______ _____ _____    ______ ____
ROOT
ATOM      1  C   LIG    1       -0.018   1.461   0.010  0.00  0.00    +0.330 C 
ATOM      2  N   LIG    1        0.002  -0.004   0.002  0.00  0.00    -0.590 N 
ATOM      3  C   LIG    1        0.007  -0.744  -1.139  0.00  0.00    +0.550 C 
ATOM      4  C   LIG    1       -0.287  -2.151  -0.722  0.00  0.00    -0.020 C 
ATOM      5  C   LIG    1        0.347  -3.293  -1.488  0.00  0.00    +0.350 C 
ATOM      6  N   LIG    1        0.018  -4.518  -0.724  0.00  0.00    -0.610 N 
ATOM      7  C   LIG    1        0.261  -4.601   0.719  0.00  0.00    +0.270 C 
ATOM      8  C   LIG    1       -0.231  -3.327   1.439  0.00  0.00    +0.070 C 
ATOM      9  C   LIG    1       -0.515  -5.575  -1.367  0.00  0.00    +0.520 C 
ATOM     10  O   LIG    1       -0.721  -5.519  -2.561  0.00  0.00    -0.530 OA
ATOM     11  C   LIG    1        0.349  -2.150   0.702  0.00  0.00    -0.010 C 
ATOM     12  O   LIG    1        0.209  -0.345  -2.266  0.00  0.00    -0.450 OA
ATOM     13  C   LIG    1        0.023  -0.756   1.135  0.00  0.00    +0.540 C 
ATOM     14  O   LIG    1       -0.168  -0.371   2.268  0.00  0.00    -0.460 OA
ENDROOT
BRANCH   9  15
ATOM     15  C   LIG    1       -0.855  -6.829  -0.602  0.00  0.00    +0.060 C 
BRANCH  15  16
ATOM     16  C   LIG    1       -1.441  -7.868  -1.561  0.00  0.00    +0.290 C 
BRANCH  16  17
ATOM     17  N   LIG    1       -1.773  -9.089  -0.816  0.00  0.00    -0.640 N 
ATOM     18  H   LIG    1       -2.159  -9.774  -1.448  0.00  0.00    +0.440 HD
ATOM     19  H   LIG    1       -2.450  -8.873  -0.099  0.00  0.00    +0.440 HD
ATOM     20  H   LIG    1       -0.937  -9.460  -0.388  0.00  0.00    +0.440 HD
ENDBRANCH  16  17
ENDBRANCH  15  16
ENDBRANCH   9  15
TORSDOF 3
ENDMDL
MODEL      312
REMARK  Name = ZINC000409426836
REMARK                            x       y       z     vdW  Elec       q    Type
REMARK                         _______ _______ _______ _____ _____    ______ ____
ROOT
ATOM      1  N   LIG    1       -1.173   3.601  -1.358  0.00  0.00    -0.540 NA
ATOM      2  C   LIG    1       -0.253   2.837  -2.199  0.00  0.00    +0.170 C 
ATOM      3  C   LIG    1       -0.242   3.329  -3.659  0.00  0.00    +0.100 C 
ATOM      4  C   LIG    1        0.073   4.805  -3.610  0.00  0.00    -0.020 C 
ATOM      5  C   LIG    1        0.070   5.616  -4.865  0.00  0.00    +0.550 C 
ATOM      6  N   LIG    1       -0.367   6.854  -4.508  0.00  0.00    -0.700 N 
ATOM      7  H   LIG    1       -0.297   7.631  -5.085  0.00  0.00    +0.420 HD
ATOM      8  C   LIG    1       -0.912   6.897  -3.261  0.00  0.00    +0.550 C 
ATOM      9  O   LIG    1       -1.177   7.886  -2.613  0.00  0.00    -0.460 OA
ATOM     10  O   LIG    1        0.392   5.246  -5.974  0.00  0.00    -0.450 OA
ATOM     11  C   LIG    1       -1.111   5.472  -2.845  0.00  0.00    +0.010 C 
ATOM     12  C   LIG    1       -0.953   5.066  -1.397  0.00  0.00    +0.270 C 
ENDROOT
BRANCH   1  13
ATOM     13  C   LIG    1       -1.160   3.104   0.024  0.00  0.00    +0.320 C 
BRANCH  13  15
ATOM     14  N   LIG    1       -0.011   0.966   0.007  0.00  0.00    -0.720 N 
ATOM     15  C   LIG    1       -1.140   1.597   0.016  0.00  0.00    +0.560 C 
ATOM     16  H   LIG    1        0.822   1.462   0.002  0.00  0.00    +0.450 HD
ATOM     17  H   LIG    1        0.002  -0.004   0.002  0.00  0.00    +0.440 HD
BRANCH  15  18
ATOM     18  N   LIG    1       -2.317   0.896   0.018  0.00  0.00    -0.520 N 
ATOM     19  H   LIG    1       -3.163   1.370   0.025  0.00  0.00    +0.460 HD
BRANCH  18  20
ATOM     20  O   LIG    1       -2.298  -0.520   0.010  0.00  0.00    -0.310 OA
ATOM     21  H   LIG    1       -3.175  -0.925   0.012  0.00  0.00    +0.440 HD
ENDBRANCH  18  20
ENDBRANCH  15  18
ENDBRANCH  13  15
ENDBRANCH   1  13
TORSDOF 4
ENDMDL
MODEL      313
REMARK  Name = ZINC000409426835
REMARK                            x       y       z     vdW  Elec       q    Type
REMARK                         _______ _______ _______ _____ _____    ______ ____
ROOT
ATOM      1  N   LIG    1       -1.173   3.601  -1.358  0.00  0.00    -0.530 NA
ATOM      2  C   LIG    1       -2.451   3.285  -2.020  0.00  0.00    +0.180 C 
ATOM      3  C   LIG    1       -2.278   3.528  -3.514  0.00  0.00    +0.080 C 
ATOM      4  C   LIG    1       -1.856   4.951  -3.825  0.00  0.00    +0.020 C 
ATOM      5  C   LIG    1       -0.956   4.918  -5.053  0.00  0.00    +0.530 C 
ATOM      6  N   LIG    1        0.273   5.323  -4.702  0.00  0.00    -0.680 N 
ATOM      7  H   LIG    1        1.019   5.338  -5.321  0.00  0.00    +0.420 HD
ATOM      8  C   LIG    1        0.383   5.706  -3.419  0.00  0.00    +0.540 C 
ATOM      9  O   LIG    1        1.402   6.064  -2.870  0.00  0.00    -0.470 OA
ATOM     10  O   LIG    1       -1.295   4.580  -6.167  0.00  0.00    -0.460 OA
ATOM     11  C   LIG    1       -0.991   5.620  -2.776  0.00  0.00    +0.010 C 
ATOM     12  C   LIG    1       -0.956   5.048  -1.397  0.00  0.00    +0.250 C 
ENDROOT
BRANCH   1  13
ATOM     13  C   LIG    1       -1.160   3.104   0.024  0.00  0.00    +0.310 C 
BRANCH  13  15
ATOM     14  N   LIG    1       -0.011   0.966   0.007  0.00  0.00    -0.700 N 
ATOM     15  C   LIG    1       -1.140   1.597   0.016  0.00  0.00    +0.560 C 
ATOM     16  H   LIG    1        0.822   1.462   0.002  0.00  0.00    +0.450 HD
ATOM     17  H   LIG    1        0.002  -0.004   0.002  0.00  0.00    +0.440 HD
BRANCH  15  18
ATOM     18  N   LIG    1       -2.317   0.896   0.018  0.00  0.00    -0.540 N 
ATOM     19  H   LIG    1       -3.163   1.370   0.025  0.00  0.00    +0.450 HD
BRANCH  18  20
ATOM     20  O   LIG    1       -2.298  -0.520   0.010  0.00  0.00    -0.310 OA
ATOM     21  H   LIG    1       -3.175  -0.925   0.012  0.00  0.00    +0.430 HD
ENDBRANCH  18  20
ENDBRANCH  15  18
ENDBRANCH  13  15
ENDBRANCH   1  13
TORSDOF 4
ENDMDL
MODEL      314
REMARK  Name = ZINC000409426838
REMARK                            x       y       z     vdW  Elec       q    Type
REMARK                         _______ _______ _______ _____ _____    ______ ____
ROOT
ATOM      1  N   LIG    1       -1.173   3.601  -1.358  0.00  0.00    -0.520 NA
ATOM      2  C   LIG    1       -2.446   3.275  -2.024  0.00  0.00    +0.170 C 
ATOM      3  C   LIG    1       -2.257   3.514  -3.519  0.00  0.00    +0.090 C 
ATOM      4  C   LIG    1       -1.763   4.894  -3.829  0.00  0.00    +0.010 C 
ATOM      5  C   LIG    1       -2.867   5.873  -4.136  0.00  0.00    +0.530 C 
ATOM      6  N   LIG    1       -2.579   7.036  -3.529  0.00  0.00    -0.680 N 
ATOM      7  H   LIG    1       -3.132   7.828  -3.619  0.00  0.00    +0.420 HD
ATOM      8  C   LIG    1       -1.463   7.009  -2.787  0.00  0.00    +0.530 C 
ATOM      9  O   LIG    1       -0.986   7.955  -2.197  0.00  0.00    -0.460 OA
ATOM     10  O   LIG    1       -3.847   5.649  -4.814  0.00  0.00    -0.460 OA
ATOM     11  C   LIG    1       -0.907   5.604  -2.800  0.00  0.00    +0.030 C 
ATOM     12  C   LIG    1       -0.956   5.045  -1.397  0.00  0.00    +0.240 C 
ENDROOT
BRANCH   1  13
ATOM     13  C   LIG    1       -1.160   3.104   0.024  0.00  0.00    +0.310 C 
BRANCH  13  15
ATOM     14  N   LIG    1       -0.011   0.966   0.007  0.00  0.00    -0.700 N 
ATOM     15  C   LIG    1       -1.140   1.597   0.016  0.00  0.00    +0.570 C 
ATOM     16  H   LIG    1        0.822   1.462   0.002  0.00  0.00    +0.450 HD
ATOM     17  H   LIG    1        0.002  -0.004   0.002  0.00  0.00    +0.440 HD
BRANCH  15  18
ATOM     18  N   LIG    1       -2.317   0.896   0.018  0.00  0.00    -0.540 N 
ATOM     19  H   LIG    1       -3.163   1.370   0.025  0.00  0.00    +0.450 HD
BRANCH  18  20
ATOM     20  O   LIG    1       -2.298  -0.520   0.010  0.00  0.00    -0.310 OA
ATOM     21  H   LIG    1       -3.175  -0.925   0.012  0.00  0.00    +0.430 HD
ENDBRANCH  18  20
ENDBRANCH  15  18
ENDBRANCH  13  15
ENDBRANCH   1  13
TORSDOF 4
ENDMDL
MODEL      315
REMARK  Name = ZINC000409426839
REMARK                            x       y       z     vdW  Elec       q    Type
REMARK                         _______ _______ _______ _____ _____    ______ ____
ROOT
ATOM      1  N   LIG    1       -1.173   3.601  -1.358  0.00  0.00    -0.550 NA
ATOM      2  C   LIG    1       -2.372   3.152  -2.065  0.00  0.00    +0.180 C 
ATOM      3  C   LIG    1       -2.411   3.652  -3.524  0.00  0.00    +0.100 C 
ATOM      4  C   LIG    1       -2.300   5.160  -3.448  0.00  0.00    -0.010 C 
ATOM      5  C   LIG    1       -2.241   5.966  -4.705  0.00  0.00    +0.550 C 
ATOM      6  N   LIG    1       -1.428   7.023  -4.434  0.00  0.00    -0.700 N 
ATOM      7  H   LIG    1       -1.355   7.801  -5.008  0.00  0.00    +0.420 HD
ATOM      8  C   LIG    1       -0.726   6.881  -3.276  0.00  0.00    +0.550 C 
ATOM      9  O   LIG    1       -0.106   7.741  -2.687  0.00  0.00    -0.460 OA
ATOM     10  O   LIG    1       -2.803   5.727  -5.753  0.00  0.00    -0.450 OA
ATOM     11  C   LIG    1       -0.887   5.449  -2.855  0.00  0.00    +0.010 C 
ATOM     12  C   LIG    1       -0.954   5.064  -1.397  0.00  0.00    +0.270 C 
ENDROOT
BRANCH   1  13
ATOM     13  C   LIG    1       -1.160   3.104   0.024  0.00  0.00    +0.320 C 
BRANCH  13  15
ATOM     14  N   LIG    1       -0.011   0.966   0.007  0.00  0.00    -0.700 N 
ATOM     15  C   LIG    1       -1.140   1.597   0.016  0.00  0.00    +0.560 C 
ATOM     16  H   LIG    1        0.822   1.462   0.002  0.00  0.00    +0.450 HD
ATOM     17  H   LIG    1        0.002  -0.004   0.002  0.00  0.00    +0.440 HD
BRANCH  15  18
ATOM     18  N   LIG    1       -2.317   0.896   0.018  0.00  0.00    -0.540 N 
ATOM     19  H   LIG    1       -3.163   1.370   0.025  0.00  0.00    +0.450 HD
BRANCH  18  20
ATOM     20  O   LIG    1       -2.298  -0.520   0.010  0.00  0.00    -0.310 OA
ATOM     21  H   LIG    1       -3.175  -0.925   0.012  0.00  0.00    +0.430 HD
ENDBRANCH  18  20
ENDBRANCH  15  18
ENDBRANCH  13  15
ENDBRANCH   1  13
TORSDOF 4
ENDMDL
MODEL      316
REMARK  Name = ZINC000409426892
REMARK                            x       y       z     vdW  Elec       q    Type
REMARK                         _______ _______ _______ _____ _____    ______ ____
ROOT
ATOM      1  N   LIG    1        3.758  -0.266  -3.467  0.00  0.00    -0.270 N 
ATOM      2  C   LIG    1        3.875   1.032  -3.833  0.00  0.00    +0.200 A 
ATOM      3  C   LIG    1        5.172   1.211  -4.176  0.00  0.00    -0.110 A 
ATOM      4  N   LIG    1        5.777   0.029  -4.006  0.00  0.00    -0.240 NA
ATOM      5  N   LIG    1        4.912  -0.823  -3.579  0.00  0.00    -0.040 NA
ENDROOT
BRANCH   1   9
ATOM      6  N   LIG    1        0.796  -0.399  -1.397  0.00  0.00    -1.020 NA
ATOM      7  C   LIG    1        0.166  -0.608  -2.713  0.00  0.00    +0.310 C 
ATOM      8  C   LIG    1        1.291  -0.331  -3.740  0.00  0.00    +0.060 C 
ATOM      9  C   LIG    1        2.529  -0.922  -3.014  0.00  0.00    +0.270 C 
ATOM     10  C   LIG    1        2.247  -0.592  -1.533  0.00  0.00    +0.290 C 
BRANCH   6  12
ATOM     11  C   LIG    1       -0.022   1.810   0.012  0.00  0.00    -0.280 C 
ATOM     12  S   LIG    1        0.002  -0.004   0.002  0.00  0.00    +2.620 S 
ATOM     13  O   LIG    1       -1.309  -0.519  -0.182  0.00  0.00    -0.930 OA
ATOM     14  O   LIG    1        0.845  -0.497   1.035  0.00  0.00    -0.940 OA
ENDBRANCH   6  12
ENDBRANCH   1   9
BRANCH   3  15
ATOM     15  C   LIG    1        5.810   2.489  -4.656  0.00  0.00    +0.400 C 
BRANCH  15  16
ATOM     16  N   LIG    1        6.422   3.188  -3.518  0.00  0.00    -0.640 N 
ATOM     17  H   LIG    1        7.125   2.598  -3.100  0.00  0.00    +0.440 HD
ATOM     18  H   LIG    1        5.712   3.402  -2.834  0.00  0.00    +0.430 HD
ATOM     19  H   LIG    1        6.849   4.044  -3.839  0.00  0.00    +0.440 HD
ENDBRANCH  15  16
ENDBRANCH   3  15
TORSDOF 4
ENDMDL
MODEL      317
REMARK  Name = ZINC000409426894
REMARK                            x       y       z     vdW  Elec       q    Type
REMARK                         _______ _______ _______ _____ _____    ______ ____
ROOT
ATOM      1  N   LIG    1        2.612  -2.369  -3.225  0.00  0.00    -0.270 N 
ATOM      2  C   LIG    1        2.050  -3.318  -2.441  0.00  0.00    +0.200 A 
ATOM      3  C   LIG    1        2.375  -4.508  -2.998  0.00  0.00    -0.110 A 
ATOM      4  N   LIG    1        3.109  -4.232  -4.082  0.00  0.00    -0.240 NA
ATOM      5  N   LIG    1        3.227  -2.956  -4.191  0.00  0.00    -0.050 NA
ENDROOT
BRANCH   1   9
ATOM      6  N   LIG    1        0.947  -0.412  -1.244  0.00  0.00    -1.020 NA
ATOM      7  C   LIG    1        0.200  -0.638  -2.495  0.00  0.00    +0.270 C 
ATOM      8  C   LIG    1        1.221  -0.352  -3.624  0.00  0.00    +0.080 C 
ATOM      9  C   LIG    1        2.529  -0.922  -3.014  0.00  0.00    +0.270 C 
ATOM     10  C   LIG    1        2.382  -0.587  -1.514  0.00  0.00    +0.310 C 
BRANCH   6  12
ATOM     11  C   LIG    1        0.233   1.794   0.224  0.00  0.00    -0.270 C 
ATOM     12  S   LIG    1        0.282  -0.020   0.220  0.00  0.00    +2.620 S 
ATOM     13  O   LIG    1       -1.034  -0.554   0.162  0.00  0.00    -0.940 OA
ATOM     14  O   LIG    1        1.224  -0.495   1.172  0.00  0.00    -0.940 OA
ENDBRANCH   6  12
ENDBRANCH   1   9
BRANCH   3  15
ATOM     15  C   LIG    1        1.985  -5.875  -2.498  0.00  0.00    +0.400 C 
BRANCH  15  16
ATOM     16  N   LIG    1        0.771  -6.323  -3.193  0.00  0.00    -0.640 N 
ATOM     17  H   LIG    1        0.949  -6.367  -4.185  0.00  0.00    +0.440 HD
ATOM     18  H   LIG    1        0.021  -5.673  -3.014  0.00  0.00    +0.430 HD
ATOM     19  H   LIG    1        0.510  -7.239  -2.857  0.00  0.00    +0.440 HD
ENDBRANCH  15  16
ENDBRANCH   3  15
TORSDOF 4
ENDMDL
MODEL      318
REMARK  Name = ZINC000409427188
REMARK                            x       y       z     vdW  Elec       q    Type
REMARK                         _______ _______ _______ _____ _____    ______ ____
ROOT
ATOM      1  O   LIG    1        0.002  -0.004   0.002  0.00  0.00    -0.520 OA
ATOM      2  C   LIG    1       -0.014   1.209   0.009  0.00  0.00    +0.510 C 
ATOM      3  N   LIG    1       -1.191   1.867   0.018  0.00  0.00    -0.590 N 
ATOM      4  C   LIG    1       -1.196   3.322   0.020  0.00  0.00    +0.280 C 
ATOM      5  C   LIG    1       -2.127   3.865   1.079  0.00  0.00    +0.060 C 
ATOM      6  C   LIG    1       -3.486   3.205   1.133  0.00  0.00    +0.040 C 
ATOM      7  C   LIG    1       -3.976   3.268   2.577  0.00  0.00    +0.530 C 
ATOM      8  N   LIG    1       -4.046   2.022   3.065  0.00  0.00    -0.680 N 
ATOM      9  H   LIG    1       -4.284   1.829   3.985  0.00  0.00    +0.420 HD
ATOM     10  C   LIG    1       -3.757   1.061   2.170  0.00  0.00    +0.530 C 
ATOM     11  O   LIG    1       -3.699  -0.129   2.396  0.00  0.00    -0.460 OA
ATOM     12  O   LIG    1       -4.257   4.280   3.183  0.00  0.00    -0.460 OA
ATOM     13  C   LIG    1       -3.521   1.724   0.828  0.00  0.00    -0.010 C 
ATOM     14  C   LIG    1       -2.430   1.111   0.020  0.00  0.00    +0.330 C 
ENDROOT
BRANCH   2  15
ATOM     15  C   LIG    1        1.280   1.980   0.001  0.00  0.00    -0.010 C 
ATOM     16  C   LIG    1        1.742   2.431   1.398  0.00  0.00    +0.330 C 
ATOM     17  N   LIG    1        2.477   1.149   1.461  0.00  0.00    -0.540 N 
ATOM     18  H   LIG    1        1.932   0.402   1.865  0.00  0.00    +0.440 HD
ATOM     19  H   LIG    1        3.388   1.238   1.886  0.00  0.00    +0.430 HD
ATOM     20  C   LIG    1        2.534   1.086  -0.016  0.00  0.00    +0.350 C 
ENDBRANCH   2  15
TORSDOF 1
ENDMDL
MODEL      319
REMARK  Name = ZINC000409427184
REMARK                            x       y       z     vdW  Elec       q    Type
REMARK                         _______ _______ _______ _____ _____    ______ ____
ROOT
ATOM      1  O   LIG    1        0.002  -0.004   0.002  0.00  0.00    -0.520 OA
ATOM      2  C   LIG    1       -0.014   1.209   0.009  0.00  0.00    +0.520 C 
ATOM      3  N   LIG    1       -1.191   1.867   0.018  0.00  0.00    -0.600 N 
ATOM      4  C   LIG    1       -1.199   3.332   0.020  0.00  0.00    +0.280 C 
ATOM      5  C   LIG    1       -2.210   3.888  -1.002  0.00  0.00    +0.090 C 
ATOM      6  C   LIG    1       -3.516   3.168  -0.758  0.00  0.00    -0.010 C 
ATOM      7  C   LIG    1       -4.696   3.470  -1.627  0.00  0.00    +0.550 C 
ATOM      8  N   LIG    1       -5.387   2.304  -1.739  0.00  0.00    -0.700 N 
ATOM      9  H   LIG    1       -6.286   2.251  -2.099  0.00  0.00    +0.420 HD
ATOM     10  C   LIG    1       -4.696   1.220  -1.296  0.00  0.00    +0.550 C 
ATOM     11  O   LIG    1       -5.138   0.111  -1.083  0.00  0.00    -0.450 OA
ATOM     12  O   LIG    1       -4.978   4.536  -2.129  0.00  0.00    -0.450 OA
ATOM     13  C   LIG    1       -3.276   1.670  -1.116  0.00  0.00    -0.020 C 
ATOM     14  C   LIG    1       -2.458   1.098   0.020  0.00  0.00    +0.350 C 
ENDROOT
BRANCH   2  15
ATOM     15  C   LIG    1        1.280   1.980   0.001  0.00  0.00    -0.010 C 
ATOM     16  C   LIG    1        1.742   2.431   1.398  0.00  0.00    +0.340 C 
ATOM     17  N   LIG    1        2.477   1.149   1.461  0.00  0.00    -0.540 N 
ATOM     18  H   LIG    1        1.932   0.402   1.865  0.00  0.00    +0.440 HD
ATOM     19  H   LIG    1        3.388   1.238   1.886  0.00  0.00    +0.430 HD
ATOM     20  C   LIG    1        2.534   1.086  -0.016  0.00  0.00    +0.350 C 
ENDBRANCH   2  15
TORSDOF 1
ENDMDL
MODEL      320
REMARK  Name = ZINC000409427191
REMARK                            x       y       z     vdW  Elec       q    Type
REMARK                         _______ _______ _______ _____ _____    ______ ____
ROOT
ATOM      1  O   LIG    1        0.002  -0.004   0.002  0.00  0.00    -0.520 OA
ATOM      2  C   LIG    1       -0.014   1.209   0.009  0.00  0.00    +0.510 C 
ATOM      3  N   LIG    1       -1.191   1.867   0.018  0.00  0.00    -0.580 N 
ATOM      4  C   LIG    1       -1.183   3.322   0.020  0.00  0.00    +0.290 C 
ATOM      5  C   LIG    1       -2.118   3.859   1.083  0.00  0.00    +0.080 C 
ATOM      6  C   LIG    1       -3.412   3.140   1.217  0.00  0.00    +0.000 C 
ATOM      7  C   LIG    1       -4.554   3.736   0.439  0.00  0.00    +0.530 C 
ATOM      8  N   LIG    1       -5.310   2.727  -0.027  0.00  0.00    -0.680 N 
ATOM      9  H   LIG    1       -6.132   2.870  -0.521  0.00  0.00    +0.420 HD
ATOM     10  C   LIG    1       -4.830   1.505   0.249  0.00  0.00    +0.540 C 
ATOM     11  O   LIG    1       -5.377   0.456  -0.017  0.00  0.00    -0.460 OA
ATOM     12  O   LIG    1       -4.757   4.918   0.263  0.00  0.00    -0.460 OA
ATOM     13  C   LIG    1       -3.489   1.658   0.928  0.00  0.00    +0.010 C 
ATOM     14  C   LIG    1       -2.420   1.103   0.019  0.00  0.00    +0.320 C 
ENDROOT
BRANCH   2  15
ATOM     15  C   LIG    1        1.280   1.980   0.001  0.00  0.00    -0.010 C 
ATOM     16  C   LIG    1        1.742   2.431   1.398  0.00  0.00    +0.330 C 
ATOM     17  N   LIG    1        2.477   1.149   1.461  0.00  0.00    -0.540 N 
ATOM     18  H   LIG    1        1.932   0.402   1.865  0.00  0.00    +0.440 HD
ATOM     19  H   LIG    1        3.388   1.238   1.886  0.00  0.00    +0.430 HD
ATOM     20  C   LIG    1        2.534   1.086  -0.016  0.00  0.00    +0.350 C 
ENDBRANCH   2  15
TORSDOF 1
ENDMDL
MODEL      321
REMARK  Name = ZINC000409427192
REMARK                            x       y       z     vdW  Elec       q    Type
REMARK                         _______ _______ _______ _____ _____    ______ ____
ROOT
ATOM      1  O   LIG    1        0.002  -0.004   0.002  0.00  0.00    -0.520 OA
ATOM      2  C   LIG    1       -0.014   1.209   0.009  0.00  0.00    +0.520 C 
ATOM      3  N   LIG    1       -1.191   1.867   0.018  0.00  0.00    -0.600 N 
ATOM      4  C   LIG    1       -1.195   3.332   0.020  0.00  0.00    +0.280 C 
ATOM      5  C   LIG    1       -2.196   3.882   1.059  0.00  0.00    +0.080 C 
ATOM      6  C   LIG    1       -3.508   3.176   0.796  0.00  0.00    -0.010 C 
ATOM      7  C   LIG    1       -4.691   3.491   1.656  0.00  0.00    +0.550 C 
ATOM      8  N   LIG    1       -5.393   2.332   1.770  0.00  0.00    -0.700 N 
ATOM      9  H   LIG    1       -6.295   2.288   2.125  0.00  0.00    +0.420 HD
ATOM     10  C   LIG    1       -4.707   1.240   1.338  0.00  0.00    +0.550 C 
ATOM     11  O   LIG    1       -5.157   0.133   1.128  0.00  0.00    -0.450 OA
ATOM     12  O   LIG    1       -4.967   4.562   2.152  0.00  0.00    -0.450 OA
ATOM     13  C   LIG    1       -3.280   1.676   1.154  0.00  0.00    -0.020 C 
ATOM     14  C   LIG    1       -2.454   1.095   0.020  0.00  0.00    +0.360 C 
ENDROOT
BRANCH   2  15
ATOM     15  C   LIG    1        1.280   1.980   0.001  0.00  0.00    -0.010 C 
ATOM     16  C   LIG    1        1.742   2.431   1.398  0.00  0.00    +0.330 C 
ATOM     17  N   LIG    1        2.477   1.149   1.461  0.00  0.00    -0.540 N 
ATOM     18  H   LIG    1        1.932   0.402   1.865  0.00  0.00    +0.440 HD
ATOM     19  H   LIG    1        3.388   1.238   1.886  0.00  0.00    +0.430 HD
ATOM     20  C   LIG    1        2.534   1.086  -0.016  0.00  0.00    +0.350 C 
ENDBRANCH   2  15
TORSDOF 1
ENDMDL
MODEL      322
REMARK  Name = ZINC000409427365
REMARK                            x       y       z     vdW  Elec       q    Type
REMARK                         _______ _______ _______ _____ _____    ______ ____
ROOT
ATOM      1  C   LIG    1       -0.018   1.461   0.010  0.00  0.00    +0.330 C 
ATOM      2  N   LIG    1        0.002  -0.004   0.002  0.00  0.00    -0.590 N 
ATOM      3  C   LIG    1        0.007  -0.745  -1.140  0.00  0.00    +0.550 C 
ATOM      4  C   LIG    1       -0.291  -2.147  -0.719  0.00  0.00    +0.000 C 
ATOM      5  C   LIG    1        0.315  -3.312  -1.462  0.00  0.00    +0.270 C 
ATOM      6  N   LIG    1       -0.129  -4.536  -0.759  0.00  0.00    -0.550 NA
ATOM      7  C   LIG    1        0.233  -4.583   0.657  0.00  0.00    +0.180 C 
ATOM      8  C   LIG    1       -0.244  -3.332   1.423  0.00  0.00    +0.100 C 
ATOM      9  C   LIG    1        0.356  -2.147   0.700  0.00  0.00    -0.010 C 
ATOM     10  O   LIG    1        0.212  -0.349  -2.267  0.00  0.00    -0.460 OA
ATOM     11  C   LIG    1        0.023  -0.758   1.135  0.00  0.00    +0.540 C 
ATOM     12  O   LIG    1       -0.188  -0.378   2.267  0.00  0.00    -0.450 OA
ENDROOT
BRANCH   6  13
ATOM     13  C   LIG    1        0.332  -5.742  -1.460  0.00  0.00    +0.320 C 
BRANCH  13  14
ATOM     14  C   LIG    1       -0.335  -6.955  -0.865  0.00  0.00    +0.560 C 
ATOM     15  N   LIG    1       -1.463  -7.372  -1.341  0.00  0.00    -0.700 N 
ATOM     16  H   LIG    1       -1.880  -6.903  -2.081  0.00  0.00    +0.450 HD
ATOM     17  H   LIG    1       -1.893  -8.152  -0.958  0.00  0.00    +0.440 HD
BRANCH  14  18
ATOM     18  N   LIG    1        0.253  -7.617   0.181  0.00  0.00    -0.540 N 
ATOM     19  H   LIG    1        1.099  -7.304   0.538  0.00  0.00    +0.450 HD
BRANCH  18  20
ATOM     20  O   LIG    1       -0.374  -8.757   0.740  0.00  0.00    -0.310 OA
ATOM     21  H   LIG    1        0.115  -9.155   1.473  0.00  0.00    +0.430 HD
ENDBRANCH  18  20
ENDBRANCH  14  18
ENDBRANCH  13  14
ENDBRANCH   6  13
TORSDOF 4
ENDMDL
MODEL      323
REMARK  Name = ZINC000409427369
REMARK                            x       y       z     vdW  Elec       q    Type
REMARK                         _______ _______ _______ _____ _____    ______ ____
ROOT
ATOM      1  C   LIG    1       -0.018   1.461   0.010  0.00  0.00    +0.330 C 
ATOM      2  N   LIG    1        0.002  -0.004   0.002  0.00  0.00    -0.590 N 
ATOM      3  C   LIG    1       -1.125  -0.767   0.003  0.00  0.00    +0.540 C 
ATOM      4  C   LIG    1       -0.682  -2.155  -0.329  0.00  0.00    -0.010 C 
ATOM      5  C   LIG    1       -1.403  -3.341   0.274  0.00  0.00    +0.100 C 
ATOM      6  C   LIG    1       -0.630  -4.590  -0.197  0.00  0.00    +0.180 C 
ATOM      7  N   LIG    1        0.784  -4.537   0.171  0.00  0.00    -0.550 NA
ATOM      8  C   LIG    1        1.484  -3.311  -0.273  0.00  0.00    +0.270 C 
ATOM      9  C   LIG    1        0.743  -2.139   0.305  0.00  0.00    +0.000 C 
ATOM     10  O   LIG    1       -2.258  -0.396   0.227  0.00  0.00    -0.450 OA
ATOM     11  C   LIG    1        1.150  -0.736  -0.013  0.00  0.00    +0.550 C 
ATOM     12  O   LIG    1        2.273  -0.331  -0.223  0.00  0.00    -0.460 OA
ENDROOT
BRANCH   7  13
ATOM     13  C   LIG    1        1.493  -5.741  -0.282  0.00  0.00    +0.320 C 
BRANCH  13  14
ATOM     14  C   LIG    1        0.973  -6.941   0.466  0.00  0.00    +0.560 C 
ATOM     15  N   LIG    1       -0.026  -7.614  -0.005  0.00  0.00    -0.720 N 
ATOM     16  H   LIG    1       -0.440  -7.346  -0.840  0.00  0.00    +0.450 HD
ATOM     17  H   LIG    1       -0.360  -8.387   0.476  0.00  0.00    +0.440 HD
BRANCH  14  18
ATOM     18  N   LIG    1        1.559  -7.320   1.645  0.00  0.00    -0.520 N 
ATOM     19  H   LIG    1        2.308  -6.815   1.998  0.00  0.00    +0.460 HD
BRANCH  18  20
ATOM     20  O   LIG    1        1.070  -8.448   2.348  0.00  0.00    -0.310 OA
ATOM     21  H   LIG    1        1.546  -8.636   3.168  0.00  0.00    +0.430 HD
ENDBRANCH  18  20
ENDBRANCH  14  18
ENDBRANCH  13  14
ENDBRANCH   7  13
TORSDOF 4
ENDMDL
MODEL      324
REMARK  Name = ZINC000008577164
REMARK                            x       y       z     vdW  Elec       q    Type
REMARK                         _______ _______ _______ _____ _____    ______ ____
ROOT
ATOM      1  CA  ARG A  2       -3.499  -1.070  -1.120  0.00  0.00    +0.160 C 
ENDROOT
BRANCH   1   3
ATOM      2  C   ALA A  1       -1.412  -0.526   0.013  0.00  0.00    +0.500 C 
ATOM      3  N   ARG A  2       -2.125  -0.563  -1.130  0.00  0.00    -0.670 N 
ATOM      4  H   ARG A  2       -1.728  -0.253  -1.960  0.00  0.00    +0.400 HD
ATOM      5  O   ALA A  1       -1.908  -0.912   1.050  0.00  0.00    -0.530 OA
BRANCH   2   7
ATOM      6  CB  ALA A  1       -0.019   1.526   0.010  0.00  0.00    +0.110 C 
ATOM      7  CA  ALA A  1        0.002  -0.004   0.002  0.00  0.00    +0.170 C 
BRANCH   7   8
ATOM      8  N   ALA A  1        0.713  -0.491   1.192  0.00  0.00    -0.620 N 
ATOM      9  H1  ALA A  1        1.659  -0.141   1.185  0.00  0.00    +0.440 HD
ATOM     10  H2  ALA A  1        0.726  -1.500   1.187  0.00  0.00    +0.450 HD
ATOM     11  H3  ALA A  1        0.240  -0.165   2.022  0.00  0.00    +0.440 HD
ENDBRANCH   7   8
ENDBRANCH   2   7
ENDBRANCH   1   3
BRANCH   1  12
ATOM     12  C   ARG A  2       -3.482  -2.571  -1.252  0.00  0.00    +0.490 C 
ATOM     13  OXT ARG A  2       -4.530  -3.194  -1.265  0.00  0.00    -0.670 OA
ATOM     14  O   ARG A  2       -2.420  -3.162  -1.346  0.00  0.00    -0.680 OA
ENDBRANCH   1  12
BRANCH   1  15
ATOM     15  CB  ARG A  2       -4.276  -0.464  -2.291  0.00  0.00    +0.060 C 
BRANCH  15  16
ATOM     16  CG  ARG A  2       -4.400   1.048  -2.092  0.00  0.00    +0.020 C 
BRANCH  16  17
ATOM     17  CD  ARG A  2       -5.176   1.654  -3.263  0.00  0.00    +0.280 C 
BRANCH  17  18
ATOM     18  NE  ARG A  2       -5.296   3.102  -3.073  0.00  0.00    -0.690 N 
ATOM     19  HE  ARG A  2       -4.908   3.522  -2.289  0.00  0.00    +0.430 HD
ATOM     20  CZ  ARG A  2       -5.955   3.862  -4.000  0.00  0.00    +0.740 C 
BRANCH  20  21
ATOM     21  NH2 ARG A  2       -6.064   5.178  -3.827  0.00  0.00    -0.800 N 
ATOM     22 HH21 ARG A  2       -5.676   5.598  -3.043  0.00  0.00    +0.440 HD
ATOM     23 HH22 ARG A  2       -6.531   5.716  -4.484  0.00  0.00    +0.440 HD
ENDBRANCH  20  21
BRANCH  20  24
ATOM     24  NH1 ARG A  2       -6.488   3.285  -5.076  0.00  0.00    -0.790 N 
ATOM     25 HH11 ARG A  2       -6.955   3.824  -5.733  0.00  0.00    +0.440 HD
ATOM     26 HH12 ARG A  2       -6.409   2.327  -5.202  0.00  0.00    +0.440 HD
ENDBRANCH  20  24
ENDBRANCH  17  18
ENDBRANCH  16  17
ENDBRANCH  15  16
ENDBRANCH   1  15
TORSDOF 10
ENDMDL
MODEL      325
REMARK  Name = ZINC000409427370
REMARK                            x       y       z     vdW  Elec       q    Type
REMARK                         _______ _______ _______ _____ _____    ______ ____
ROOT
ATOM      1  C   LIG    1       -0.018   1.461   0.010  0.00  0.00    +0.320 C 
ATOM      2  N   LIG    1        0.002  -0.004   0.002  0.00  0.00    -0.580 N 
ATOM      3  C   LIG    1       -1.116  -0.748   0.004  0.00  0.00    +0.520 C 
ATOM      4  C   LIG    1       -0.718  -2.199  -0.077  0.00  0.00    +0.010 C 
ATOM      5  C   LIG    1       -1.508  -3.087   0.835  0.00  0.00    +0.100 C 
ATOM      6  C   LIG    1       -0.826  -3.310   2.182  0.00  0.00    +0.180 C 
ATOM      7  N   LIG    1        0.534  -3.810   1.914  0.00  0.00    -0.490 NA
ATOM      8  C   LIG    1        1.348  -2.737   1.349  0.00  0.00    +0.200 C 
ATOM      9  C   LIG    1        0.791  -2.198   0.063  0.00  0.00    +0.030 C 
ATOM     10  O   LIG    1       -2.251  -0.324   0.059  0.00  0.00    -0.460 OA
ATOM     11  C   LIG    1        1.138  -0.715  -0.013  0.00  0.00    +0.520 C 
ATOM     12  O   LIG    1        2.257  -0.256  -0.088  0.00  0.00    -0.470 OA
ENDROOT
BRANCH   7  13
ATOM     13  C   LIG    1        1.147  -4.348   3.136  0.00  0.00    +0.370 C 
BRANCH  13  14
ATOM     14  C   LIG    1        1.364  -3.231   4.123  0.00  0.00    +0.510 C 
ATOM     15  N   LIG    1        0.440  -2.933   4.977  0.00  0.00    -0.710 N 
ATOM     16  H   LIG    1       -0.394  -3.429   4.982  0.00  0.00    +0.450 HD
ATOM     17  H   LIG    1        0.580  -2.214   5.612  0.00  0.00    +0.440 HD
BRANCH  14  18
ATOM     18  N   LIG    1        2.541  -2.529   4.115  0.00  0.00    -0.530 N 
ATOM     19  H   LIG    1        3.235  -2.752   3.475  0.00  0.00    +0.450 HD
BRANCH  18  20
ATOM     20  O   LIG    1        2.745  -1.479   5.043  0.00  0.00    -0.310 OA
ATOM     21  H   LIG    1        3.605  -1.044   4.961  0.00  0.00    +0.430 HD
ENDBRANCH  18  20
ENDBRANCH  14  18
ENDBRANCH  13  14
ENDBRANCH   7  13
TORSDOF 4
ENDMDL
MODEL      326
REMARK  Name = ZINC000409427368
REMARK                            x       y       z     vdW  Elec       q    Type
REMARK                         _______ _______ _______ _____ _____    ______ ____
ROOT
ATOM      1  C   LIG    1       -0.018   1.461   0.010  0.00  0.00    +0.320 C 
ATOM      2  N   LIG    1        0.002  -0.004   0.002  0.00  0.00    -0.570 N 
ATOM      3  C   LIG    1       -1.114  -0.746   0.003  0.00  0.00    +0.530 C 
ATOM      4  C   LIG    1       -0.727  -2.217  -0.083  0.00  0.00    +0.020 C 
ATOM      5  C   LIG    1       -1.261  -2.765  -1.394  0.00  0.00    +0.090 C 
ATOM      6  C   LIG    1       -0.358  -3.840  -1.986  0.00  0.00    +0.190 C 
ATOM      7  N   LIG    1        0.981  -3.255  -2.176  0.00  0.00    -0.500 NA
ATOM      8  C   LIG    1        1.601  -3.038  -0.869  0.00  0.00    +0.210 C 
ATOM      9  C   LIG    1        0.781  -2.179   0.054  0.00  0.00    +0.010 C 
ATOM     10  O   LIG    1       -2.246  -0.317   0.064  0.00  0.00    -0.460 OA
ATOM     11  C   LIG    1        1.140  -0.717  -0.013  0.00  0.00    +0.540 C 
ATOM     12  O   LIG    1        2.262  -0.263  -0.079  0.00  0.00    -0.470 OA
ENDROOT
BRANCH   7  13
ATOM     13  C   LIG    1        1.818  -4.119  -3.019  0.00  0.00    +0.370 C 
BRANCH  13  14
ATOM     14  C   LIG    1        2.091  -5.413  -2.297  0.00  0.00    +0.510 C 
ATOM     15  N   LIG    1        1.288  -6.416  -2.441  0.00  0.00    -0.710 N 
ATOM     16  H   LIG    1        0.510  -6.336  -3.014  0.00  0.00    +0.450 HD
ATOM     17  H   LIG    1        1.465  -7.249  -1.976  0.00  0.00    +0.440 HD
BRANCH  14  18
ATOM     18  N   LIG    1        3.191  -5.526  -1.487  0.00  0.00    -0.530 N 
ATOM     19  H   LIG    1        3.793  -4.773  -1.379  0.00  0.00    +0.450 HD
BRANCH  18  20
ATOM     20  O   LIG    1        3.448  -6.741  -0.808  0.00  0.00    -0.310 OA
ATOM     21  H   LIG    1        4.245  -6.726  -0.262  0.00  0.00    +0.430 HD
ENDBRANCH  18  20
ENDBRANCH  14  18
ENDBRANCH  13  14
ENDBRANCH   7  13
TORSDOF 4
ENDMDL
MODEL      327
REMARK  Name = ZINC000409427571
REMARK                            x       y       z     vdW  Elec       q    Type
REMARK                         _______ _______ _______ _____ _____    ______ ____
ROOT
ATOM      1  N   LIG    1       -1.173   3.601  -1.358  0.00  0.00    -0.510 NA
ATOM      2  C   LIG    1       -2.493   3.326  -2.016  0.00  0.00    +0.260 C 
ATOM      3  C   LIG    1       -3.046   4.661  -2.292  0.00  0.00    -0.090 C 
ATOM      4  C   LIG    1       -4.018   5.287  -3.163  0.00  0.00    +0.580 C 
ATOM      5  N   LIG    1       -3.684   6.618  -3.152  0.00  0.00    -0.710 N 
ATOM      6  H   LIG    1       -4.262   7.320  -3.491  0.00  0.00    +0.430 HD
ATOM      7  C   LIG    1       -2.450   6.849  -2.612  0.00  0.00    +0.540 C 
ATOM      8  O   LIG    1       -2.010   7.908  -2.219  0.00  0.00    -0.440 OA
ATOM      9  O   LIG    1       -4.924   4.754  -3.767  0.00  0.00    -0.450 OA
ATOM     10  C   LIG    1       -1.755   5.510  -2.632  0.00  0.00    +0.020 C 
ATOM     11  C   LIG    1       -0.951   5.084  -1.398  0.00  0.00    +0.270 C 
ENDROOT
BRANCH   1  12
ATOM     12  C   LIG    1       -1.160   3.104   0.024  0.00  0.00    +0.300 C 
BRANCH  12  14
ATOM     13  N   LIG    1       -0.011   0.966   0.007  0.00  0.00    -0.700 N 
ATOM     14  C   LIG    1       -1.140   1.597   0.016  0.00  0.00    +0.560 C 
ATOM     15  H   LIG    1        0.822   1.462   0.002  0.00  0.00    +0.450 HD
ATOM     16  H   LIG    1        0.002  -0.004   0.002  0.00  0.00    +0.440 HD
BRANCH  14  17
ATOM     17  N   LIG    1       -2.317   0.896   0.018  0.00  0.00    -0.540 N 
ATOM     18  H   LIG    1       -3.163   1.370   0.025  0.00  0.00    +0.450 HD
BRANCH  17  19
ATOM     19  O   LIG    1       -2.298  -0.520   0.010  0.00  0.00    -0.310 OA
ATOM     20  H   LIG    1       -3.175  -0.925   0.012  0.00  0.00    +0.430 HD
ENDBRANCH  17  19
ENDBRANCH  14  17
ENDBRANCH  12  14
ENDBRANCH   1  12
TORSDOF 4
ENDMDL
MODEL      328
REMARK  Name = ZINC000409427560
REMARK                            x       y       z     vdW  Elec       q    Type
REMARK                         _______ _______ _______ _____ _____    ______ ____
ROOT
ATOM      1  N   LIG    1       -1.173   3.601  -1.358  0.00  0.00    -0.520 NA
ATOM      2  C   LIG    1       -2.494   3.318  -2.020  0.00  0.00    +0.250 C 
ATOM      3  C   LIG    1       -2.663   4.502  -2.885  0.00  0.00    -0.050 C 
ATOM      4  C   LIG    1       -3.692   5.152  -3.663  0.00  0.00    +0.580 C 
ATOM      5  N   LIG    1       -3.265   6.450  -3.790  0.00  0.00    -0.710 N 
ATOM      6  H   LIG    1       -3.647   7.083  -4.418  0.00  0.00    +0.430 HD
ATOM      7  C   LIG    1       -2.242   6.755  -2.937  0.00  0.00    +0.550 C 
ATOM      8  O   LIG    1       -1.488   7.701  -3.003  0.00  0.00    -0.440 OA
ATOM      9  O   LIG    1       -4.709   4.660  -4.104  0.00  0.00    -0.450 OA
ATOM     10  C   LIG    1       -2.271   5.669  -1.890  0.00  0.00    -0.010 C 
ATOM     11  C   LIG    1       -0.951   5.078  -1.398  0.00  0.00    +0.280 C 
ENDROOT
BRANCH   1  12
ATOM     12  C   LIG    1       -1.160   3.104   0.024  0.00  0.00    +0.300 C 
BRANCH  12  14
ATOM     13  N   LIG    1       -0.011   0.966   0.007  0.00  0.00    -0.700 N 
ATOM     14  C   LIG    1       -1.140   1.597   0.016  0.00  0.00    +0.560 C 
ATOM     15  H   LIG    1        0.822   1.462   0.002  0.00  0.00    +0.450 HD
ATOM     16  H   LIG    1        0.002  -0.004   0.002  0.00  0.00    +0.440 HD
BRANCH  14  17
ATOM     17  N   LIG    1       -2.317   0.896   0.018  0.00  0.00    -0.530 N 
ATOM     18  H   LIG    1       -3.163   1.370   0.025  0.00  0.00    +0.450 HD
BRANCH  17  19
ATOM     19  O   LIG    1       -2.298  -0.520   0.010  0.00  0.00    -0.310 OA
ATOM     20  H   LIG    1       -3.175  -0.925   0.012  0.00  0.00    +0.430 HD
ENDBRANCH  17  19
ENDBRANCH  14  17
ENDBRANCH  12  14
ENDBRANCH   1  12
TORSDOF 4
ENDMDL
MODEL      329
REMARK  Name = ZINC000409427569
REMARK                            x       y       z     vdW  Elec       q    Type
REMARK                         _______ _______ _______ _____ _____    ______ ____
ROOT
ATOM      1  N   LIG    1       -1.173   3.601  -1.358  0.00  0.00    -0.500 NA
ATOM      2  C   LIG    1       -0.039   3.041  -2.136  0.00  0.00    +0.190 C 
ATOM      3  C   LIG    1        0.139   4.010  -3.323  0.00  0.00    +0.030 C 
ATOM      4  C   LIG    1        1.609   4.316  -3.500  0.00  0.00    +0.530 C 
ATOM      5  N   LIG    1        1.840   5.593  -3.173  0.00  0.00    -0.680 N 
ATOM      6  H   LIG    1        2.722   5.994  -3.216  0.00  0.00    +0.430 HD
ATOM      7  C   LIG    1        0.755   6.271  -2.782  0.00  0.00    +0.530 C 
ATOM      8  O   LIG    1        0.740   7.435  -2.444  0.00  0.00    -0.460 OA
ATOM      9  O   LIG    1        2.448   3.527  -3.880  0.00  0.00    -0.460 OA
ATOM     10  C   LIG    1       -0.466   5.354  -2.834  0.00  0.00    +0.030 C 
ATOM     11  C   LIG    1       -0.953   5.069  -1.397  0.00  0.00    +0.250 C 
ENDROOT
BRANCH   1  12
ATOM     12  C   LIG    1       -1.160   3.104   0.024  0.00  0.00    +0.310 C 
BRANCH  12  14
ATOM     13  N   LIG    1       -0.011   0.966   0.007  0.00  0.00    -0.720 N 
ATOM     14  C   LIG    1       -1.140   1.597   0.016  0.00  0.00    +0.560 C 
ATOM     15  H   LIG    1        0.822   1.462   0.002  0.00  0.00    +0.450 HD
ATOM     16  H   LIG    1        0.002  -0.004   0.002  0.00  0.00    +0.440 HD
BRANCH  14  17
ATOM     17  N   LIG    1       -2.317   0.896   0.018  0.00  0.00    -0.520 N 
ATOM     18  H   LIG    1       -3.163   1.370   0.025  0.00  0.00    +0.460 HD
BRANCH  17  19
ATOM     19  O   LIG    1       -2.298  -0.520   0.010  0.00  0.00    -0.310 OA
ATOM     20  H   LIG    1       -3.175  -0.925   0.012  0.00  0.00    +0.440 HD
ENDBRANCH  17  19
ENDBRANCH  14  17
ENDBRANCH  12  14
ENDBRANCH   1  12
TORSDOF 4
ENDMDL
MODEL      330
REMARK  Name = ZINC000409427953
REMARK                            x       y       z     vdW  Elec       q    Type
REMARK                         _______ _______ _______ _____ _____    ______ ____
ROOT
ATOM      1  C   LIG    1       -0.018   1.461   0.010  0.00  0.00    +0.330 C 
ATOM      2  N   LIG    1        0.002  -0.004   0.002  0.00  0.00    -0.600 N 
ATOM      3  C   LIG    1        0.007  -0.758  -1.145  0.00  0.00    +0.580 C 
ATOM      4  C   LIG    1       -0.291  -2.099  -0.706  0.00  0.00    -0.070 C 
ATOM      5  C   LIG    1       -0.153  -3.498  -1.144  0.00  0.00    +0.370 C 
ATOM      6  N   LIG    1       -0.528  -4.255   0.096  0.00  0.00    -0.610 N 
ATOM      7  C   LIG    1       -0.307  -3.359   1.265  0.00  0.00    +0.310 C 
ATOM      8  C   LIG    1       -0.985  -5.522   0.143  0.00  0.00    +0.520 C 
ATOM      9  O   LIG    1       -1.124  -6.155  -0.881  0.00  0.00    -0.520 OA
ATOM     10  C   LIG    1        0.440  -2.143   0.695  0.00  0.00    +0.020 C 
ATOM     11  O   LIG    1        0.217  -0.381  -2.278  0.00  0.00    -0.440 OA
ATOM     12  C   LIG    1        0.023  -0.767   1.135  0.00  0.00    +0.550 C 
ATOM     13  O   LIG    1       -0.253  -0.411   2.261  0.00  0.00    -0.450 OA
ENDROOT
BRANCH   8  14
ATOM     14  C   LIG    1       -1.322  -6.152   1.470  0.00  0.00    +0.320 C 
BRANCH  14  15
ATOM     15  N   LIG    1       -1.795  -7.526   1.254  0.00  0.00    -0.620 N 
ATOM     16  H   LIG    1       -1.071  -8.063   0.801  0.00  0.00    +0.440 HD
ATOM     17  H   LIG    1       -2.618  -7.510   0.670  0.00  0.00    +0.440 HD
ATOM     18  H   LIG    1       -2.021  -7.947   2.142  0.00  0.00    +0.450 HD
ENDBRANCH  14  15
ENDBRANCH   8  14
TORSDOF 2
ENDMDL
MODEL      331
REMARK  Name = ZINC000409427952
REMARK                            x       y       z     vdW  Elec       q    Type
REMARK                         _______ _______ _______ _____ _____    ______ ____
ROOT
ATOM      1  C   LIG    1       -0.018   1.461   0.010  0.00  0.00    +0.330 C 
ATOM      2  N   LIG    1        0.002  -0.004   0.002  0.00  0.00    -0.600 N 
ATOM      3  C   LIG    1        0.007  -0.760  -1.144  0.00  0.00    +0.570 C 
ATOM      4  C   LIG    1        0.383  -2.102  -0.706  0.00  0.00    -0.040 C 
ATOM      5  C   LIG    1        0.073  -3.467  -1.200  0.00  0.00    +0.360 C 
ATOM      6  N   LIG    1        0.099  -4.326   0.025  0.00  0.00    -0.610 N 
ATOM      7  C   LIG    1        0.256  -3.422   1.209  0.00  0.00    +0.340 C 
ATOM      8  C   LIG    1        0.000  -5.670   0.057  0.00  0.00    +0.520 C 
ATOM      9  O   LIG    1       -0.124  -6.293  -0.976  0.00  0.00    -0.520 OA
ATOM     10  C   LIG    1       -0.351  -2.134   0.694  0.00  0.00    -0.020 C 
ATOM     11  O   LIG    1       -0.244  -0.394  -2.272  0.00  0.00    -0.440 OA
ATOM     12  C   LIG    1        0.023  -0.771   1.137  0.00  0.00    +0.560 C 
ATOM     13  O   LIG    1        0.297  -0.413   2.263  0.00  0.00    -0.450 OA
ENDROOT
BRANCH   8  14
ATOM     14  C   LIG    1        0.043  -6.397   1.376  0.00  0.00    +0.320 C 
BRANCH  14  15
ATOM     15  N   LIG    1       -0.083  -7.842   1.142  0.00  0.00    -0.620 N 
ATOM     16  H   LIG    1        0.678  -8.157   0.560  0.00  0.00    +0.440 HD
ATOM     17  H   LIG    1       -0.961  -8.033   0.682  0.00  0.00    +0.440 HD
ATOM     18  H   LIG    1       -0.054  -8.329   2.026  0.00  0.00    +0.450 HD
ENDBRANCH  14  15
ENDBRANCH   8  14
TORSDOF 2
ENDMDL
MODEL      332
REMARK  Name = ZINC000409427951
REMARK                            x       y       z     vdW  Elec       q    Type
REMARK                         _______ _______ _______ _____ _____    ______ ____
ROOT
ATOM      1  C   LIG    1       -0.018   1.461   0.010  0.00  0.00    +0.310 C 
ATOM      2  N   LIG    1        0.002  -0.004   0.002  0.00  0.00    -0.570 N 
ATOM      3  C   LIG    1        0.007  -0.722  -1.127  0.00  0.00    +0.530 C 
ATOM      4  C   LIG    1        0.029  -2.195  -0.786  0.00  0.00    +0.020 C 
ATOM      5  C   LIG    1        1.389  -2.792  -1.205  0.00  0.00    +0.340 C 
ATOM      6  N   LIG    1        2.280  -2.546  -0.049  0.00  0.00    -0.610 N 
ATOM      7  C   LIG    1        1.427  -2.804   1.134  0.00  0.00    +0.320 C 
ATOM      8  C   LIG    1        3.575  -2.171  -0.068  0.00  0.00    +0.520 C 
ATOM      9  O   LIG    1        4.140  -1.996  -1.127  0.00  0.00    -0.520 OA
ATOM     10  C   LIG    1        0.036  -2.203   0.766  0.00  0.00    +0.020 C 
ATOM     11  O   LIG    1       -0.004  -0.262  -2.249  0.00  0.00    -0.460 OA
ATOM     12  C   LIG    1        0.023  -0.734   1.123  0.00  0.00    +0.530 C 
ATOM     13  O   LIG    1        0.039  -0.286   2.250  0.00  0.00    -0.470 OA
ENDROOT
BRANCH   8  14
ATOM     14  C   LIG    1        4.320  -1.968   1.226  0.00  0.00    +0.300 C 
BRANCH  14  15
ATOM     15  N   LIG    1        5.702  -1.565   0.938  0.00  0.00    -0.620 N 
ATOM     16  H   LIG    1        5.699  -0.703   0.413  0.00  0.00    +0.440 HD
ATOM     17  H   LIG    1        6.157  -2.285   0.397  0.00  0.00    +0.440 HD
ATOM     18  H   LIG    1        6.201  -1.429   1.804  0.00  0.00    +0.450 HD
ENDBRANCH  14  15
ENDBRANCH   8  14
TORSDOF 2
ENDMDL
MODEL      333
REMARK  Name = ZINC000409428123
REMARK                            x       y       z     vdW  Elec       q    Type
REMARK                         _______ _______ _______ _____ _____    ______ ____
ROOT
ATOM      1  C   LIG    1       -0.720   2.985   1.224  0.00  0.00    +0.510 C 
ATOM      2  N   LIG    1       -1.303   3.646   2.244  0.00  0.00    -0.590 N 
ATOM      3  C   LIG    1       -1.949   3.023   3.414  0.00  0.00    +0.250 C 
ATOM      4  C   LIG    1       -1.886   4.102   4.524  0.00  0.00    +0.180 C 
ATOM      5  C   LIG    1       -2.119   5.401   3.708  0.00  0.00    +0.280 C 
ATOM      6  C   LIG    1       -1.394   5.107   2.378  0.00  0.00    +0.300 C 
ATOM      7  O   LIG    1       -0.211   3.604   0.313  0.00  0.00    -0.520 OA
ENDROOT
BRANCH   5   8
ATOM      8  N   LIG    1       -1.517   6.552   4.385  0.00  0.00    -0.460 N 
ATOM      9  C   LIG    1       -2.173   7.668   4.831  0.00  0.00    +0.120 A 
ATOM     10  C   LIG    1       -1.246   8.469   5.388  0.00  0.00    +0.150 A 
ATOM     11  N   LIG    1       -0.055   7.860   5.285  0.00  0.00    -0.490 NA
ATOM     12  C   LIG    1       -0.210   6.709   4.690  0.00  0.00    +0.410 A 
ENDBRANCH   5   8
BRANCH   4  13
ATOM     13  O   LIG    1       -0.603   4.114   5.153  0.00  0.00    -0.540 OA
ATOM     14  H   LIG    1       -0.373   3.285   5.593  0.00  0.00    +0.390 HD
ENDBRANCH   4  13
BRANCH   1  15
ATOM     15  C   LIG    1       -0.699   1.479   1.216  0.00  0.00    +0.300 C 
BRANCH  15  16
ATOM     16  N   LIG    1       -0.012   1.005   0.008  0.00  0.00    -0.620 N 
ATOM     17  H   LIG    1       -0.500   1.339  -0.810  0.00  0.00    +0.440 HD
ATOM     18  H   LIG    1        0.935   1.354   0.000  0.00  0.00    +0.440 HD
ATOM     19  H   LIG    1        0.002  -0.004   0.002  0.00  0.00    +0.450 HD
ENDBRANCH  15  16
ENDBRANCH   1  15
TORSDOF 4
ENDMDL
MODEL      334
REMARK  Name = ZINC000409428121
REMARK                            x       y       z     vdW  Elec       q    Type
REMARK                         _______ _______ _______ _____ _____    ______ ____
ROOT
ATOM      1  C   LIG    1       -0.720   2.985   1.224  0.00  0.00    +0.510 C 
ATOM      2  N   LIG    1       -1.303   3.646   2.244  0.00  0.00    -0.590 N 
ATOM      3  C   LIG    1       -1.947   3.024   3.410  0.00  0.00    +0.240 C 
ATOM      4  C   LIG    1       -2.445   4.166   4.322  0.00  0.00    +0.180 C 
ATOM      5  C   LIG    1       -1.554   5.363   3.897  0.00  0.00    +0.260 C 
ATOM      6  C   LIG    1       -1.394   5.111   2.379  0.00  0.00    +0.310 C 
ATOM      7  O   LIG    1       -0.211   3.604   0.313  0.00  0.00    -0.520 OA
ENDROOT
BRANCH   5   8
ATOM      8  N   LIG    1       -2.229   6.638   4.152  0.00  0.00    -0.460 N 
ATOM      9  C   LIG    1       -1.784   7.645   4.965  0.00  0.00    +0.140 A 
ATOM     10  C   LIG    1       -2.704   8.626   4.911  0.00  0.00    +0.160 A 
ATOM     11  N   LIG    1       -3.686   8.229   4.087  0.00  0.00    -0.480 NA
ATOM     12  C   LIG    1       -3.405   7.041   3.625  0.00  0.00    +0.370 A 
ENDBRANCH   5   8
BRANCH   4  13
ATOM     13  O   LIG    1       -2.238   3.841   5.698  0.00  0.00    -0.540 OA
ATOM     14  H   LIG    1       -2.715   3.053   5.992  0.00  0.00    +0.390 HD
ENDBRANCH   4  13
BRANCH   1  15
ATOM     15  C   LIG    1       -0.699   1.479   1.216  0.00  0.00    +0.320 C 
BRANCH  15  16
ATOM     16  N   LIG    1       -0.012   1.005   0.008  0.00  0.00    -0.620 N 
ATOM     17  H   LIG    1       -0.500   1.339  -0.810  0.00  0.00    +0.440 HD
ATOM     18  H   LIG    1        0.935   1.354   0.000  0.00  0.00    +0.440 HD
ATOM     19  H   LIG    1        0.002  -0.004   0.002  0.00  0.00    +0.450 HD
ENDBRANCH  15  16
ENDBRANCH   1  15
TORSDOF 4
ENDMDL
MODEL      335
REMARK  Name = ZINC000409428125
REMARK                            x       y       z     vdW  Elec       q    Type
REMARK                         _______ _______ _______ _____ _____    ______ ____
ROOT
ATOM      1  C   LIG    1       -0.720   2.985   1.224  0.00  0.00    +0.510 C 
ATOM      2  N   LIG    1       -1.303   3.646   2.244  0.00  0.00    -0.590 N 
ATOM      3  C   LIG    1       -1.949   3.023   3.414  0.00  0.00    +0.250 C 
ATOM      4  C   LIG    1       -1.886   4.102   4.524  0.00  0.00    +0.180 C 
ATOM      5  C   LIG    1       -2.119   5.401   3.708  0.00  0.00    +0.260 C 
ATOM      6  C   LIG    1       -1.394   5.107   2.378  0.00  0.00    +0.300 C 
ATOM      7  O   LIG    1       -0.211   3.604   0.313  0.00  0.00    -0.520 OA
ENDROOT
BRANCH   5   8
ATOM      8  N   LIG    1       -1.517   6.552   4.385  0.00  0.00    -0.460 N 
ATOM      9  C   LIG    1       -2.173   7.668   4.831  0.00  0.00    +0.140 A 
ATOM     10  C   LIG    1       -1.246   8.469   5.388  0.00  0.00    +0.160 A 
ATOM     11  N   LIG    1       -0.055   7.860   5.285  0.00  0.00    -0.480 NA
ATOM     12  C   LIG    1       -0.210   6.709   4.690  0.00  0.00    +0.370 A 
ENDBRANCH   5   8
BRANCH   4  13
ATOM     13  O   LIG    1       -2.924   3.907   5.487  0.00  0.00    -0.540 OA
ATOM     14  H   LIG    1       -2.874   3.061   5.953  0.00  0.00    +0.390 HD
ENDBRANCH   4  13
BRANCH   1  15
ATOM     15  C   LIG    1       -0.699   1.479   1.216  0.00  0.00    +0.310 C 
BRANCH  15  16
ATOM     16  N   LIG    1       -0.012   1.005   0.008  0.00  0.00    -0.620 N 
ATOM     17  H   LIG    1       -0.500   1.339  -0.810  0.00  0.00    +0.440 HD
ATOM     18  H   LIG    1        0.935   1.354   0.000  0.00  0.00    +0.440 HD
ATOM     19  H   LIG    1        0.002  -0.004   0.002  0.00  0.00    +0.450 HD
ENDBRANCH  15  16
ENDBRANCH   1  15
TORSDOF 4
ENDMDL
MODEL      336
REMARK  Name = ZINC000409428208
REMARK                            x       y       z     vdW  Elec       q    Type
REMARK                         _______ _______ _______ _____ _____    ______ ____
ROOT
ATOM      1  C   LIG    1       -1.425   3.494   2.465  0.00  0.00    +0.540 C 
ATOM      2  N   LIG    1       -1.564   4.816   2.686  0.00  0.00    -0.600 N 
ATOM      3  C   LIG    1       -1.083   5.892   1.800  0.00  0.00    +0.250 C 
ATOM      4  C   LIG    1       -1.982   7.109   2.129  0.00  0.00    +0.180 C 
ATOM      5  C   LIG    1       -2.166   6.956   3.662  0.00  0.00    +0.290 C 
ATOM      6  C   LIG    1       -2.227   5.425   3.849  0.00  0.00    +0.280 C 
ATOM      7  O   LIG    1       -1.868   2.696   3.263  0.00  0.00    -0.520 OA
ENDROOT
BRANCH   5   8
ATOM      8  N   LIG    1       -3.416   7.582   4.099  0.00  0.00    -0.370 N 
ATOM      9  C   LIG    1       -4.637   7.007   4.094  0.00  0.00    +0.240 A 
ATOM     10  C   LIG    1       -5.522   7.912   4.571  0.00  0.00    -0.120 A 
ATOM     11  C   LIG    1       -4.818   9.081   4.878  0.00  0.00    +0.250 A 
ATOM     12  N   LIG    1       -3.555   8.883   4.601  0.00  0.00    -0.290 NA
ENDBRANCH   5   8
BRANCH   4  13
ATOM     13  O   LIG    1       -3.236   7.018   1.450  0.00  0.00    -0.540 OA
ATOM     14  H   LIG    1       -3.162   7.011   0.485  0.00  0.00    +0.390 HD
ENDBRANCH   4  13
BRANCH   1  15
ATOM     15  C   LIG    1       -0.720   3.008   1.225  0.00  0.00    +0.070 C 
BRANCH  15  16
ATOM     16  C   LIG    1       -0.699   1.479   1.216  0.00  0.00    +0.290 C 
BRANCH  16  17
ATOM     17  N   LIG    1       -0.012   1.005   0.008  0.00  0.00    -0.640 N 
ATOM     18  H   LIG    1       -0.500   1.339  -0.810  0.00  0.00    +0.440 HD
ATOM     19  H   LIG    1        0.935   1.354   0.000  0.00  0.00    +0.440 HD
ATOM     20  H   LIG    1        0.002  -0.004   0.002  0.00  0.00    +0.440 HD
ENDBRANCH  16  17
ENDBRANCH  15  16
ENDBRANCH   1  15
TORSDOF 5
ENDMDL
MODEL      337
REMARK  Name = ZINC000409428203
REMARK                            x       y       z     vdW  Elec       q    Type
REMARK                         _______ _______ _______ _____ _____    ______ ____
ROOT
ATOM      1  C   LIG    1       -1.425   3.494   2.465  0.00  0.00    +0.530 C 
ATOM      2  N   LIG    1       -1.564   4.816   2.686  0.00  0.00    -0.610 N 
ATOM      3  C   LIG    1       -2.224   5.427   3.855  0.00  0.00    +0.310 C 
ATOM      4  C   LIG    1       -1.601   6.841   3.968  0.00  0.00    +0.300 C 
ATOM      5  C   LIG    1       -1.441   7.231   2.475  0.00  0.00    +0.180 C 
ATOM      6  C   LIG    1       -1.078   5.889   1.806  0.00  0.00    +0.230 C 
ATOM      7  O   LIG    1       -1.868   2.696   3.263  0.00  0.00    -0.520 OA
ENDROOT
BRANCH   4   8
ATOM      8  N   LIG    1       -0.301   6.790   4.640  0.00  0.00    -0.360 N 
ATOM      9  C   LIG    1        0.597   5.786   4.557  0.00  0.00    +0.210 A 
ATOM     10  C   LIG    1        1.663   6.121   5.321  0.00  0.00    -0.120 A 
ATOM     11  C   LIG    1        1.407   7.372   5.891  0.00  0.00    +0.240 A 
ATOM     12  N   LIG    1        0.233   7.777   5.478  0.00  0.00    -0.270 NA
ENDBRANCH   4   8
BRANCH   5  13
ATOM     13  O   LIG    1       -0.386   8.181   2.311  0.00  0.00    -0.530 OA
ATOM     14  H   LIG    1       -0.245   8.457   1.395  0.00  0.00    +0.390 HD
ENDBRANCH   5  13
BRANCH   1  15
ATOM     15  C   LIG    1       -0.720   3.008   1.225  0.00  0.00    +0.070 C 
BRANCH  15  16
ATOM     16  C   LIG    1       -0.699   1.479   1.216  0.00  0.00    +0.290 C 
BRANCH  16  17
ATOM     17  N   LIG    1       -0.012   1.005   0.008  0.00  0.00    -0.640 N 
ATOM     18  H   LIG    1       -0.500   1.339  -0.810  0.00  0.00    +0.440 HD
ATOM     19  H   LIG    1        0.935   1.354   0.000  0.00  0.00    +0.440 HD
ATOM     20  H   LIG    1        0.002  -0.004   0.002  0.00  0.00    +0.440 HD
ENDBRANCH  16  17
ENDBRANCH  15  16
ENDBRANCH   1  15
TORSDOF 5
ENDMDL
MODEL      338
REMARK  Name = ZINC000030836057
REMARK                            x       y       z     vdW  Elec       q    Type
REMARK                         _______ _______ _______ _____ _____    ______ ____
ROOT
ATOM      1  C   LIG    1        0.996  -1.825   1.373  0.00  0.00    +0.170 C 
ATOM      2  C   LIG    1        1.799  -2.087   2.652  0.00  0.00    +0.200 C 
ATOM      3  C   LIG    1        3.138  -1.349   2.561  0.00  0.00    +0.140 C 
ATOM      4  C   LIG    1        3.881  -1.810   1.304  0.00  0.00    +0.170 C 
ATOM      5  O   LIG    1        3.067  -1.567   0.155  0.00  0.00    -0.390 OA
ATOM      6  C   LIG    1        1.821  -2.268   0.162  0.00  0.00    +0.370 C 
ENDROOT
BRANCH   1   7
ATOM      7  N   LIG    1        0.698  -0.391   1.266  0.00  0.00    -0.360 N 
ATOM      8  H   LIG    1        1.554   0.121   1.119  0.00  0.00    +0.430 HD
BRANCH   7  10
ATOM      9  C   LIG    1       -1.434  -1.069   0.270  0.00  0.00    +0.070 C 
ATOM     10  C   LIG    1       -0.209  -0.163   0.133  0.00  0.00    +0.250 C 
ENDBRANCH   7  10
BRANCH   7  11
ATOM     11  C   LIG    1        0.058   0.070   2.505  0.00  0.00    +0.230 C 
ATOM     12  C   LIG    1       -0.162   1.583   2.434  0.00  0.00    +0.080 C 
ENDBRANCH   7  11
ENDBRANCH   1   7
BRANCH   3  13
ATOM     13  O   LIG    1        2.904   0.059   2.489  0.00  0.00    -0.570 OA
ATOM     14  H   LIG    1        3.711   0.589   2.429  0.00  0.00    +0.410 HD
ENDBRANCH   3  13
BRANCH   2  15
ATOM     15  O   LIG    1        2.032  -3.490   2.791  0.00  0.00    -0.540 OA
ATOM     16  H   LIG    1        2.536  -3.728   3.582  0.00  0.00    +0.410 HD
ENDBRANCH   2  15
BRANCH   6  17
ATOM     17  O   LIG    1        1.103  -1.976  -1.038  0.00  0.00    -0.540 OA
ATOM     18  H   LIG    1        1.568  -2.229  -1.847  0.00  0.00    +0.410 HD
ENDBRANCH   6  17
BRANCH   4  19
ATOM     19  C   LIG    1        5.193  -1.035   1.174  0.00  0.00    +0.210 C 
BRANCH  19  20
ATOM     20  O   LIG    1        5.941  -1.545   0.068  0.00  0.00    -0.560 OA
ATOM     21  H   LIG    1        6.787  -1.099  -0.074  0.00  0.00    +0.390 HD
ENDBRANCH  19  20
ENDBRANCH   4  19
TORSDOF 8
ENDMDL
MODEL      339
REMARK  Name = ZINC000409428124
REMARK                            x       y       z     vdW  Elec       q    Type
REMARK                         _______ _______ _______ _____ _____    ______ ____
ROOT
ATOM      1  C   LIG    1       -0.720   2.985   1.224  0.00  0.00    +0.510 C 
ATOM      2  N   LIG    1       -1.303   3.646   2.244  0.00  0.00    -0.600 N 
ATOM      3  C   LIG    1       -1.399   5.111   2.376  0.00  0.00    +0.320 C 
ATOM      4  C   LIG    1       -2.623   5.347   3.296  0.00  0.00    +0.270 C 
ATOM      5  C   LIG    1       -2.494   4.165   4.294  0.00  0.00    +0.200 C 
ATOM      6  C   LIG    1       -1.953   3.024   3.407  0.00  0.00    +0.220 C 
ATOM      7  O   LIG    1       -0.211   3.604   0.313  0.00  0.00    -0.520 OA
ENDROOT
BRANCH   4   8
ATOM      8  N   LIG    1       -3.874   5.262   2.538  0.00  0.00    -0.440 N 
ATOM      9  C   LIG    1       -4.818   6.246   2.417  0.00  0.00    +0.140 A 
ATOM     10  C   LIG    1       -5.798   5.750   1.638  0.00  0.00    +0.150 A 
ATOM     11  N   LIG    1       -5.462   4.499   1.293  0.00  0.00    -0.490 NA
ATOM     12  C   LIG    1       -4.308   4.201   1.825  0.00  0.00    +0.360 A 
ENDBRANCH   4   8
BRANCH   5  13
ATOM     13  O   LIG    1       -3.771   3.822   4.838  0.00  0.00    -0.540 OA
ATOM     14  H   LIG    1       -3.745   3.089   5.467  0.00  0.00    +0.390 HD
ENDBRANCH   5  13
BRANCH   1  15
ATOM     15  C   LIG    1       -0.699   1.479   1.216  0.00  0.00    +0.310 C 
BRANCH  15  16
ATOM     16  N   LIG    1       -0.012   1.005   0.008  0.00  0.00    -0.620 N 
ATOM     17  H   LIG    1       -0.500   1.339  -0.810  0.00  0.00    +0.440 HD
ATOM     18  H   LIG    1        0.935   1.354   0.000  0.00  0.00    +0.440 HD
ATOM     19  H   LIG    1        0.002  -0.004   0.002  0.00  0.00    +0.450 HD
ENDBRANCH  15  16
ENDBRANCH   1  15
TORSDOF 4
ENDMDL
MODEL      340
REMARK  Name = ZINC000409428212
REMARK                            x       y       z     vdW  Elec       q    Type
REMARK                         _______ _______ _______ _____ _____    ______ ____
ROOT
ATOM      1  C   LIG    1       -1.425   3.494   2.465  0.00  0.00    +0.540 C 
ATOM      2  N   LIG    1       -1.564   4.816   2.686  0.00  0.00    -0.610 N 
ATOM      3  C   LIG    1       -1.084   5.889   1.802  0.00  0.00    +0.240 C 
ATOM      4  C   LIG    1       -1.491   7.231   2.447  0.00  0.00    +0.170 C 
ATOM      5  C   LIG    1       -2.672   6.829   3.370  0.00  0.00    +0.290 C 
ATOM      6  C   LIG    1       -2.229   5.427   3.852  0.00  0.00    +0.300 C 
ATOM      7  O   LIG    1       -1.868   2.696   3.263  0.00  0.00    -0.520 OA
ENDROOT
BRANCH   5   8
ATOM      8  N   LIG    1       -2.799   7.758   4.495  0.00  0.00    -0.370 N 
ATOM      9  C   LIG    1       -2.118   7.695   5.658  0.00  0.00    +0.210 A 
ATOM     10  C   LIG    1       -2.521   8.731   6.429  0.00  0.00    -0.110 A 
ATOM     11  C   LIG    1       -3.481   9.453   5.713  0.00  0.00    +0.240 A 
ATOM     12  N   LIG    1       -3.644   8.874   4.550  0.00  0.00    -0.280 NA
ENDBRANCH   5   8
BRANCH   4  13
ATOM     13  O   LIG    1       -1.918   8.161   1.450  0.00  0.00    -0.540 OA
ATOM     14  H   LIG    1       -1.236   8.385   0.803  0.00  0.00    +0.390 HD
ENDBRANCH   4  13
BRANCH   1  15
ATOM     15  C   LIG    1       -0.720   3.008   1.225  0.00  0.00    +0.070 C 
BRANCH  15  16
ATOM     16  C   LIG    1       -0.699   1.479   1.216  0.00  0.00    +0.290 C 
BRANCH  16  17
ATOM     17  N   LIG    1       -0.012   1.005   0.008  0.00  0.00    -0.640 N 
ATOM     18  H   LIG    1       -0.500   1.339  -0.810  0.00  0.00    +0.440 HD
ATOM     19  H   LIG    1        0.935   1.354   0.000  0.00  0.00    +0.440 HD
ATOM     20  H   LIG    1        0.002  -0.004   0.002  0.00  0.00    +0.440 HD
ENDBRANCH  16  17
ENDBRANCH  15  16
ENDBRANCH   1  15
TORSDOF 5
ENDMDL
MODEL      341
REMARK  Name = ZINC000409428210
REMARK                            x       y       z     vdW  Elec       q    Type
REMARK                         _______ _______ _______ _____ _____    ______ ____
ROOT
ATOM      1  C   LIG    1       -1.425   3.494   2.465  0.00  0.00    +0.540 C 
ATOM      2  N   LIG    1       -1.564   4.816   2.686  0.00  0.00    -0.610 N 
ATOM      3  C   LIG    1       -1.083   5.892   1.800  0.00  0.00    +0.250 C 
ATOM      4  C   LIG    1       -1.982   7.109   2.129  0.00  0.00    +0.160 C 
ATOM      5  C   LIG    1       -2.166   6.956   3.662  0.00  0.00    +0.290 C 
ATOM      6  C   LIG    1       -2.227   5.425   3.849  0.00  0.00    +0.290 C 
ATOM      7  O   LIG    1       -1.868   2.696   3.263  0.00  0.00    -0.520 OA
ENDROOT
BRANCH   5   8
ATOM      8  N   LIG    1       -3.416   7.582   4.099  0.00  0.00    -0.370 N 
ATOM      9  C   LIG    1       -4.637   7.007   4.094  0.00  0.00    +0.210 A 
ATOM     10  C   LIG    1       -5.522   7.912   4.571  0.00  0.00    -0.110 A 
ATOM     11  C   LIG    1       -4.818   9.081   4.878  0.00  0.00    +0.240 A 
ATOM     12  N   LIG    1       -3.555   8.883   4.601  0.00  0.00    -0.280 NA
ENDBRANCH   5   8
BRANCH   4  13
ATOM     13  O   LIG    1       -1.320   8.335   1.812  0.00  0.00    -0.540 OA
ATOM     14  H   LIG    1       -1.096   8.431   0.876  0.00  0.00    +0.390 HD
ENDBRANCH   4  13
BRANCH   1  15
ATOM     15  C   LIG    1       -0.720   3.008   1.225  0.00  0.00    +0.070 C 
BRANCH  15  16
ATOM     16  C   LIG    1       -0.699   1.479   1.216  0.00  0.00    +0.290 C 
BRANCH  16  17
ATOM     17  N   LIG    1       -0.012   1.005   0.008  0.00  0.00    -0.640 N 
ATOM     18  H   LIG    1       -0.500   1.339  -0.810  0.00  0.00    +0.440 HD
ATOM     19  H   LIG    1        0.935   1.354   0.000  0.00  0.00    +0.440 HD
ATOM     20  H   LIG    1        0.002  -0.004   0.002  0.00  0.00    +0.440 HD
ENDBRANCH  16  17
ENDBRANCH  15  16
ENDBRANCH   1  15
TORSDOF 5
ENDMDL
MODEL      342
REMARK  Name = ZINC000409428627
REMARK                            x       y       z     vdW  Elec       q    Type
REMARK                         _______ _______ _______ _____ _____    ______ ____
ROOT
ATOM      1  C   LIG    1       -1.432  -1.925   0.005  0.00  0.00    +0.170 C 
ATOM      2  C   LIG    1       -1.597  -2.463  -1.438  0.00  0.00    +0.280 C 
ATOM      3  N   LIG    1       -2.272  -3.765  -1.280  0.00  0.00    -0.590 N 
ATOM      4  C   LIG    1       -3.008  -3.763  -0.006  0.00  0.00    +0.230 C 
ATOM      5  C   LIG    1       -2.222  -4.787  -2.156  0.00  0.00    +0.520 C 
ATOM      6  O   LIG    1       -1.580  -4.677  -3.180  0.00  0.00    -0.520 OA
ATOM      7  C   LIG    1       -2.752  -2.398   0.669  0.00  0.00    +0.200 C 
ENDROOT
BRANCH   5   8
ATOM      8  C   LIG    1       -2.964  -6.066  -1.865  0.00  0.00    +0.170 C 
ATOM      9  C   LIG    1       -2.151  -6.916  -0.887  0.00  0.00    +0.120 C 
BRANCH   8  10
ATOM     10  N   LIG    1       -3.162  -6.812  -3.115  0.00  0.00    -0.620 N 
ATOM     11  H   LIG    1       -3.698  -6.252  -3.760  0.00  0.00    +0.440 HD
ATOM     12  H   LIG    1       -3.658  -7.669  -2.920  0.00  0.00    +0.440 HD
ATOM     13  H   LIG    1       -2.264  -7.029  -3.523  0.00  0.00    +0.440 HD
ENDBRANCH   8  10
ENDBRANCH   5   8
BRANCH   7  14
ATOM     14  O   LIG    1       -2.586  -2.556   2.080  0.00  0.00    -0.540 OA
ATOM     15  H   LIG    1       -3.361  -2.922   2.528  0.00  0.00    +0.390 HD
ENDBRANCH   7  14
BRANCH   1  16
ATOM     16  O   LIG    1       -1.339  -0.499   0.012  0.00  0.00    -0.360 OA
BRANCH  16  18
ATOM     17  C   LIG    1       -0.019   1.526   0.010  0.00  0.00    +0.070 C 
ATOM     18  C   LIG    1        0.002  -0.004   0.002  0.00  0.00    +0.170 C 
ENDBRANCH  16  18
ENDBRANCH   1  16
TORSDOF 5
ENDMDL
MODEL      343
REMARK  Name = ZINC000409428619
REMARK                            x       y       z     vdW  Elec       q    Type
REMARK                         _______ _______ _______ _____ _____    ______ ____
ROOT
ATOM      1  C   LIG    1       -1.432  -1.925   0.005  0.00  0.00    +0.180 C 
ATOM      2  C   LIG    1       -1.597  -2.463  -1.438  0.00  0.00    +0.270 C 
ATOM      3  N   LIG    1       -2.272  -3.765  -1.280  0.00  0.00    -0.590 N 
ATOM      4  C   LIG    1       -3.008  -3.763  -0.006  0.00  0.00    +0.230 C 
ATOM      5  C   LIG    1       -2.222  -4.787  -2.156  0.00  0.00    +0.510 C 
ATOM      6  O   LIG    1       -1.580  -4.677  -3.180  0.00  0.00    -0.520 OA
ATOM      7  C   LIG    1       -2.752  -2.398   0.669  0.00  0.00    +0.200 C 
ENDROOT
BRANCH   5   8
ATOM      8  C   LIG    1       -2.964  -6.066  -1.865  0.00  0.00    +0.170 C 
ATOM      9  C   LIG    1       -2.151  -6.916  -0.887  0.00  0.00    +0.120 C 
BRANCH   8  10
ATOM     10  N   LIG    1       -3.162  -6.812  -3.115  0.00  0.00    -0.620 N 
ATOM     11  H   LIG    1       -3.698  -6.252  -3.760  0.00  0.00    +0.440 HD
ATOM     12  H   LIG    1       -3.658  -7.669  -2.920  0.00  0.00    +0.440 HD
ATOM     13  H   LIG    1       -2.264  -7.029  -3.523  0.00  0.00    +0.440 HD
ENDBRANCH   8  10
ENDBRANCH   5   8
BRANCH   7  14
ATOM     14  O   LIG    1       -3.817  -1.488   0.389  0.00  0.00    -0.530 OA
ATOM     15  H   LIG    1       -4.679  -1.778   0.717  0.00  0.00    +0.380 HD
ENDBRANCH   7  14
BRANCH   1  16
ATOM     16  O   LIG    1       -1.339  -0.499   0.012  0.00  0.00    -0.350 OA
BRANCH  16  18
ATOM     17  C   LIG    1       -0.019   1.526   0.010  0.00  0.00    +0.070 C 
ATOM     18  C   LIG    1        0.002  -0.004   0.002  0.00  0.00    +0.150 C 
ENDBRANCH  16  18
ENDBRANCH   1  16
TORSDOF 5
ENDMDL
MODEL      344
REMARK  Name = ZINC000409428625
REMARK                            x       y       z     vdW  Elec       q    Type
REMARK                         _______ _______ _______ _____ _____    ______ ____
ROOT
ATOM      1  C   LIG    1       -1.432  -1.925   0.005  0.00  0.00    +0.180 C 
ATOM      2  C   LIG    1       -1.597  -2.463  -1.438  0.00  0.00    +0.270 C 
ATOM      3  N   LIG    1       -2.272  -3.765  -1.280  0.00  0.00    -0.590 N 
ATOM      4  C   LIG    1       -3.008  -3.763  -0.006  0.00  0.00    +0.230 C 
ATOM      5  C   LIG    1       -2.222  -4.787  -2.156  0.00  0.00    +0.510 C 
ATOM      6  O   LIG    1       -1.580  -4.677  -3.180  0.00  0.00    -0.520 OA
ATOM      7  C   LIG    1       -2.752  -2.398   0.669  0.00  0.00    +0.190 C 
ENDROOT
BRANCH   5   8
ATOM      8  C   LIG    1       -2.964  -6.066  -1.865  0.00  0.00    +0.170 C 
ATOM      9  C   LIG    1       -4.443  -5.889  -2.215  0.00  0.00    +0.120 C 
BRANCH   8  10
ATOM     10  N   LIG    1       -2.397  -7.155  -2.672  0.00  0.00    -0.620 N 
ATOM     11  H   LIG    1       -2.894  -8.011  -2.478  0.00  0.00    +0.440 HD
ATOM     12  H   LIG    1       -1.422  -7.272  -2.442  0.00  0.00    +0.440 HD
ATOM     13  H   LIG    1       -2.487  -6.930  -3.652  0.00  0.00    +0.440 HD
ENDBRANCH   8  10
ENDBRANCH   5   8
BRANCH   7  14
ATOM     14  O   LIG    1       -3.817  -1.488   0.389  0.00  0.00    -0.530 OA
ATOM     15  H   LIG    1       -4.679  -1.778   0.717  0.00  0.00    +0.380 HD
ENDBRANCH   7  14
BRANCH   1  16
ATOM     16  O   LIG    1       -1.339  -0.499   0.012  0.00  0.00    -0.350 OA
BRANCH  16  18
ATOM     17  C   LIG    1       -0.019   1.526   0.010  0.00  0.00    +0.070 C 
ATOM     18  C   LIG    1        0.002  -0.004   0.002  0.00  0.00    +0.150 C 
ENDBRANCH  16  18
ENDBRANCH   1  16
TORSDOF 5
ENDMDL
MODEL      345
REMARK  Name = ZINC000409428623
REMARK                            x       y       z     vdW  Elec       q    Type
REMARK                         _______ _______ _______ _____ _____    ______ ____
ROOT
ATOM      1  C   LIG    1       -1.432  -1.925   0.005  0.00  0.00    +0.170 C 
ATOM      2  C   LIG    1       -1.597  -2.463  -1.438  0.00  0.00    +0.280 C 
ATOM      3  N   LIG    1       -2.272  -3.765  -1.280  0.00  0.00    -0.590 N 
ATOM      4  C   LIG    1       -3.008  -3.763  -0.006  0.00  0.00    +0.230 C 
ATOM      5  C   LIG    1       -2.222  -4.787  -2.156  0.00  0.00    +0.520 C 
ATOM      6  O   LIG    1       -1.580  -4.677  -3.180  0.00  0.00    -0.520 OA
ATOM      7  C   LIG    1       -2.752  -2.398   0.669  0.00  0.00    +0.200 C 
ENDROOT
BRANCH   5   8
ATOM      8  C   LIG    1       -2.964  -6.066  -1.865  0.00  0.00    +0.170 C 
ATOM      9  C   LIG    1       -4.443  -5.889  -2.215  0.00  0.00    +0.120 C 
BRANCH   8  10
ATOM     10  N   LIG    1       -2.397  -7.155  -2.672  0.00  0.00    -0.620 N 
ATOM     11  H   LIG    1       -2.894  -8.011  -2.478  0.00  0.00    +0.440 HD
ATOM     12  H   LIG    1       -1.422  -7.272  -2.442  0.00  0.00    +0.440 HD
ATOM     13  H   LIG    1       -2.487  -6.930  -3.652  0.00  0.00    +0.440 HD
ENDBRANCH   8  10
ENDBRANCH   5   8
BRANCH   7  14
ATOM     14  O   LIG    1       -2.586  -2.556   2.080  0.00  0.00    -0.550 OA
ATOM     15  H   LIG    1       -3.361  -2.922   2.528  0.00  0.00    +0.390 HD
ENDBRANCH   7  14
BRANCH   1  16
ATOM     16  O   LIG    1       -1.339  -0.499   0.012  0.00  0.00    -0.360 OA
BRANCH  16  18
ATOM     17  C   LIG    1       -0.019   1.526   0.010  0.00  0.00    +0.060 C 
ATOM     18  C   LIG    1        0.002  -0.004   0.002  0.00  0.00    +0.170 C 
ENDBRANCH  16  18
ENDBRANCH   1  16
TORSDOF 5
ENDMDL
MODEL      346
REMARK  Name = ZINC000409428580
REMARK                            x       y       z     vdW  Elec       q    Type
REMARK                         _______ _______ _______ _____ _____    ______ ____
ROOT
ATOM      1  N   LIG    1       -0.856  -2.372  -1.376  0.00  0.00    -0.990 NA
ATOM      2  C   LIG    1       -1.496  -2.508  -0.056  0.00  0.00    +0.310 C 
ATOM      3  C   LIG    1       -1.843  -3.977   0.187  0.00  0.00    +0.030 C 
ATOM      4  C   LIG    1       -2.890  -4.458  -0.818  0.00  0.00    +0.270 C 
ATOM      5  N   LIG    1       -2.318  -4.415  -2.174  0.00  0.00    -1.000 NA
ATOM      6  S   LIG    1       -1.700  -2.950  -2.693  0.00  0.00    +2.780 S 
ATOM      7  O   LIG    1       -0.738  -3.242  -3.697  0.00  0.00    -0.960 OA
ATOM      8  O   LIG    1       -2.809  -2.085  -2.894  0.00  0.00    -0.950 OA
ENDROOT
BRANCH   5   9
ATOM      9  C   LIG    1       -2.294  -5.603  -3.031  0.00  0.00    +0.270 C 
ATOM     10  C   LIG    1       -2.199  -6.928  -2.252  0.00  0.00    +0.330 C 
ATOM     11  N   LIG    1       -3.679  -6.923  -2.257  0.00  0.00    -0.540 N 
ATOM     12  H   LIG    1       -4.073  -6.459  -1.452  0.00  0.00    +0.430 HD
ATOM     13  H   LIG    1       -4.075  -7.838  -2.410  0.00  0.00    +0.430 HD
ATOM     14  C   LIG    1       -3.691  -6.077  -3.471  0.00  0.00    +0.310 C 
ENDBRANCH   5   9
BRANCH   1  15
ATOM     15  C   LIG    1        0.462  -1.750  -1.526  0.00  0.00    +0.340 C 
BRANCH  15  16
ATOM     16  C   LIG    1        0.301  -0.231  -1.618  0.00  0.00    +0.150 C 
BRANCH  16  18
ATOM     17  C   LIG    1       -0.403   1.685  -0.362  0.00  0.00    +0.210 C 
ATOM     18  O   LIG    1       -0.215   0.269  -0.382  0.00  0.00    -0.390 OA
ENDBRANCH  16  18
ENDBRANCH  15  16
ENDBRANCH   1  15
TORSDOF 4
ENDMDL
MODEL      347
REMARK  Name = ZINC000409429137
REMARK                            x       y       z     vdW  Elec       q    Type
REMARK                         _______ _______ _______ _____ _____    ______ ____
ROOT
ATOM      1  C   LIG    1       -0.018   1.461   0.010  0.00  0.00    +0.310 C 
ATOM      2  N   LIG    1        0.002  -0.004   0.002  0.00  0.00    -0.570 N 
ATOM      3  C   LIG    1        0.007  -0.722  -1.127  0.00  0.00    +0.530 C 
ATOM      4  C   LIG    1        0.029  -2.195  -0.786  0.00  0.00    +0.020 C 
ATOM      5  C   LIG    1        1.389  -2.792  -1.205  0.00  0.00    +0.340 C 
ATOM      6  N   LIG    1        2.280  -2.546  -0.049  0.00  0.00    -0.620 N 
ATOM      7  C   LIG    1        1.427  -2.804   1.134  0.00  0.00    +0.320 C 
ATOM      8  C   LIG    1        3.575  -2.171  -0.068  0.00  0.00    +0.540 C 
ATOM      9  O   LIG    1        4.140  -1.996  -1.127  0.00  0.00    -0.520 OA
ATOM     10  C   LIG    1        0.036  -2.203   0.766  0.00  0.00    +0.020 C 
ATOM     11  O   LIG    1       -0.004  -0.262  -2.249  0.00  0.00    -0.460 OA
ATOM     12  C   LIG    1        0.023  -0.734   1.123  0.00  0.00    +0.530 C 
ATOM     13  O   LIG    1        0.039  -0.286   2.250  0.00  0.00    -0.470 OA
ENDROOT
BRANCH   8  14
ATOM     14  C   LIG    1        4.320  -1.968   1.226  0.00  0.00    -0.010 C 
ATOM     15  C   LIG    1        4.879  -3.269   1.829  0.00  0.00    +0.340 C 
ATOM     16  N   LIG    1        6.105  -2.986   1.051  0.00  0.00    -0.540 N 
ATOM     17  H   LIG    1        6.091  -3.400   0.131  0.00  0.00    +0.440 HD
ATOM     18  H   LIG    1        6.952  -3.198   1.558  0.00  0.00    +0.430 HD
ATOM     19  C   LIG    1        5.787  -1.542   1.037  0.00  0.00    +0.350 C 
ENDBRANCH   8  14
TORSDOF 1
ENDMDL
MODEL      348
REMARK  Name = ZINC000409429134
REMARK                            x       y       z     vdW  Elec       q    Type
REMARK                         _______ _______ _______ _____ _____    ______ ____
ROOT
ATOM      1  C   LIG    1       -0.018   1.461   0.010  0.00  0.00    +0.330 C 
ATOM      2  N   LIG    1        0.002  -0.004   0.002  0.00  0.00    -0.600 N 
ATOM      3  C   LIG    1        0.007  -0.760  -1.144  0.00  0.00    +0.570 C 
ATOM      4  C   LIG    1        0.383  -2.102  -0.706  0.00  0.00    -0.040 C 
ATOM      5  C   LIG    1        0.073  -3.467  -1.200  0.00  0.00    +0.340 C 
ATOM      6  N   LIG    1        0.099  -4.326   0.025  0.00  0.00    -0.620 N 
ATOM      7  C   LIG    1        0.256  -3.422   1.209  0.00  0.00    +0.320 C 
ATOM      8  C   LIG    1        0.000  -5.670   0.057  0.00  0.00    +0.540 C 
ATOM      9  O   LIG    1       -0.124  -6.293  -0.976  0.00  0.00    -0.520 OA
ATOM     10  C   LIG    1       -0.351  -2.134   0.694  0.00  0.00    -0.020 C 
ATOM     11  O   LIG    1       -0.244  -0.394  -2.272  0.00  0.00    -0.440 OA
ATOM     12  C   LIG    1        0.023  -0.771   1.137  0.00  0.00    +0.560 C 
ATOM     13  O   LIG    1        0.297  -0.413   2.263  0.00  0.00    -0.450 OA
ENDROOT
BRANCH   8  14
ATOM     14  C   LIG    1        0.043  -6.397   1.376  0.00  0.00    -0.010 C 
ATOM     15  C   LIG    1       -1.314  -6.447   2.100  0.00  0.00    +0.340 C 
ATOM     16  N   LIG    1       -1.541  -7.718   1.379  0.00  0.00    -0.540 N 
ATOM     17  H   LIG    1       -2.002  -7.590   0.490  0.00  0.00    +0.440 HD
ATOM     18  H   LIG    1       -1.988  -8.421   1.949  0.00  0.00    +0.430 HD
ATOM     19  C   LIG    1       -0.082  -7.926   1.244  0.00  0.00    +0.350 C 
ENDBRANCH   8  14
TORSDOF 1
ENDMDL
MODEL      349
REMARK  Name = ZINC000409429299
REMARK                            x       y       z     vdW  Elec       q    Type
REMARK                         _______ _______ _______ _____ _____    ______ ____
ROOT
ATOM      1  N   LIG    1       -1.456   4.971   2.491  0.00  0.00    -0.530 NA
ATOM      2  C   LIG    1       -2.327   5.493   1.424  0.00  0.00    +0.180 C 
ATOM      3  C   LIG    1       -2.050   6.984   1.279  0.00  0.00    +0.070 C 
ATOM      4  C   LIG    1       -2.280   7.744   2.572  0.00  0.00    +0.020 C 
ATOM      5  C   LIG    1       -1.282   8.894   2.625  0.00  0.00    +0.530 C 
ATOM      6  N   LIG    1       -0.446   8.695   3.653  0.00  0.00    -0.680 N 
ATOM      7  H   LIG    1        0.299   9.285   3.847  0.00  0.00    +0.420 HD
ATOM      8  C   LIG    1       -0.726   7.609   4.391  0.00  0.00    +0.540 C 
ATOM      9  O   LIG    1       -0.082   7.207   5.337  0.00  0.00    -0.470 OA
ATOM     10  O   LIG    1       -1.250   9.835   1.862  0.00  0.00    -0.470 OA
ATOM     11  C   LIG    1       -1.991   6.972   3.843  0.00  0.00    +0.000 C 
ATOM     12  C   LIG    1       -1.918   5.482   3.782  0.00  0.00    +0.230 C 
ENDROOT
BRANCH   1  13
ATOM     13  C   LIG    1       -1.436   3.502   2.483  0.00  0.00    +0.190 C 
BRANCH  13  14
ATOM     14  C   LIG    1       -0.720   3.008   1.225  0.00  0.00    +0.040 C 
BRANCH  14  15
ATOM     15  C   LIG    1       -0.699   1.479   1.216  0.00  0.00    +0.260 C 
BRANCH  15  16
ATOM     16  N   LIG    1       -0.012   1.005   0.008  0.00  0.00    -0.640 N 
ATOM     17  H   LIG    1       -0.500   1.339  -0.810  0.00  0.00    +0.440 HD
ATOM     18  H   LIG    1        0.935   1.354   0.000  0.00  0.00    +0.440 HD
ATOM     19  H   LIG    1        0.002  -0.004   0.002  0.00  0.00    +0.440 HD
ENDBRANCH  15  16
ENDBRANCH  14  15
ENDBRANCH  13  14
ENDBRANCH   1  13
TORSDOF 4
ENDMDL
MODEL      350
REMARK  Name = ZINC000409429301
REMARK                            x       y       z     vdW  Elec       q    Type
REMARK                         _______ _______ _______ _____ _____    ______ ____
ROOT
ATOM      1  N   LIG    1       -1.456   4.971   2.491  0.00  0.00    -0.550 NA
ATOM      2  C   LIG    1       -2.190   5.491   1.339  0.00  0.00    +0.180 C 
ATOM      3  C   LIG    1       -2.222   7.033   1.315  0.00  0.00    +0.080 C 
ATOM      4  C   LIG    1       -2.824   7.456   2.638  0.00  0.00    -0.020 C 
ATOM      5  C   LIG    1       -2.940   8.908   2.973  0.00  0.00    +0.550 C 
ATOM      6  N   LIG    1       -2.752   8.998   4.318  0.00  0.00    -0.700 N 
ATOM      7  H   LIG    1       -2.952   9.796   4.832  0.00  0.00    +0.420 HD
ATOM      8  C   LIG    1       -2.255   7.858   4.871  0.00  0.00    +0.550 C 
ATOM      9  O   LIG    1       -2.196   7.584   6.051  0.00  0.00    -0.460 OA
ATOM     10  O   LIG    1       -3.159   9.819   2.204  0.00  0.00    -0.460 OA
ATOM     11  C   LIG    1       -1.811   6.991   3.729  0.00  0.00    +0.000 C 
ATOM     12  C   LIG    1       -1.923   5.487   3.797  0.00  0.00    +0.240 C 
ENDROOT
BRANCH   1  13
ATOM     13  C   LIG    1       -1.436   3.502   2.483  0.00  0.00    +0.200 C 
BRANCH  13  14
ATOM     14  C   LIG    1       -0.720   3.008   1.225  0.00  0.00    +0.040 C 
BRANCH  14  15
ATOM     15  C   LIG    1       -0.699   1.479   1.216  0.00  0.00    +0.260 C 
BRANCH  15  16
ATOM     16  N   LIG    1       -0.012   1.005   0.008  0.00  0.00    -0.640 N 
ATOM     17  H   LIG    1       -0.500   1.339  -0.810  0.00  0.00    +0.440 HD
ATOM     18  H   LIG    1        0.935   1.354   0.000  0.00  0.00    +0.440 HD
ATOM     19  H   LIG    1        0.002  -0.004   0.002  0.00  0.00    +0.440 HD
ENDBRANCH  15  16
ENDBRANCH  14  15
ENDBRANCH  13  14
ENDBRANCH   1  13
TORSDOF 4
ENDMDL
MODEL      351
REMARK  Name = ZINC000409429296
REMARK                            x       y       z     vdW  Elec       q    Type
REMARK                         _______ _______ _______ _____ _____    ______ ____
ROOT
ATOM      1  N   LIG    1       -1.456   4.971   2.491  0.00  0.00    -0.550 NA
ATOM      2  C   LIG    1       -0.169   5.515   2.061  0.00  0.00    +0.180 C 
ATOM      3  C   LIG    1       -0.153   7.055   2.054  0.00  0.00    +0.080 C 
ATOM      4  C   LIG    1       -0.557   7.493   3.442  0.00  0.00    -0.020 C 
ATOM      5  C   LIG    1       -0.730   8.945   3.751  0.00  0.00    +0.550 C 
ATOM      6  N   LIG    1       -1.734   9.013   4.668  0.00  0.00    -0.700 N 
ATOM      7  H   LIG    1       -1.935   9.813   5.179  0.00  0.00    +0.420 HD
ATOM      8  C   LIG    1       -2.427   7.849   4.799  0.00  0.00    +0.550 C 
ATOM      9  O   LIG    1       -3.213   7.561   5.676  0.00  0.00    -0.460 OA
ATOM     10  O   LIG    1       -0.105   9.871   3.281  0.00  0.00    -0.460 OA
ATOM     11  C   LIG    1       -2.018   6.989   3.643  0.00  0.00    +0.010 C 
ATOM     12  C   LIG    1       -1.924   5.488   3.799  0.00  0.00    +0.240 C 
ENDROOT
BRANCH   1  13
ATOM     13  C   LIG    1       -1.436   3.502   2.483  0.00  0.00    +0.200 C 
BRANCH  13  14
ATOM     14  C   LIG    1       -0.720   3.008   1.225  0.00  0.00    +0.030 C 
BRANCH  14  15
ATOM     15  C   LIG    1       -0.699   1.479   1.216  0.00  0.00    +0.260 C 
BRANCH  15  16
ATOM     16  N   LIG    1       -0.012   1.005   0.008  0.00  0.00    -0.640 N 
ATOM     17  H   LIG    1       -0.500   1.339  -0.810  0.00  0.00    +0.440 HD
ATOM     18  H   LIG    1        0.935   1.354   0.000  0.00  0.00    +0.440 HD
ATOM     19  H   LIG    1        0.002  -0.004   0.002  0.00  0.00    +0.440 HD
ENDBRANCH  15  16
ENDBRANCH  14  15
ENDBRANCH  13  14
ENDBRANCH   1  13
TORSDOF 4
ENDMDL
MODEL      352
REMARK  Name = ZINC000409429300
REMARK                            x       y       z     vdW  Elec       q    Type
REMARK                         _______ _______ _______ _____ _____    ______ ____
ROOT
ATOM      1  N   LIG    1       -1.456   4.971   2.491  0.00  0.00    -0.530 NA
ATOM      2  C   LIG    1       -2.318   5.493   1.417  0.00  0.00    +0.180 C 
ATOM      3  C   LIG    1       -2.025   6.984   1.276  0.00  0.00    +0.080 C 
ATOM      4  C   LIG    1       -2.172   7.729   2.568  0.00  0.00    +0.000 C 
ATOM      5  C   LIG    1       -3.537   8.340   2.758  0.00  0.00    +0.530 C 
ATOM      6  N   LIG    1       -3.909   8.147   4.034  0.00  0.00    -0.680 N 
ATOM      7  H   LIG    1       -4.740   8.492   4.397  0.00  0.00    +0.420 HD
ATOM      8  C   LIG    1       -3.036   7.438   4.763  0.00  0.00    +0.530 C 
ATOM      9  O   LIG    1       -3.142   7.190   5.944  0.00  0.00    -0.470 OA
ATOM     10  O   LIG    1       -4.186   8.907   1.906  0.00  0.00    -0.470 OA
ATOM     11  C   LIG    1       -1.907   6.989   3.863  0.00  0.00    +0.020 C 
ATOM     12  C   LIG    1       -1.917   5.481   3.780  0.00  0.00    +0.210 C 
ENDROOT
BRANCH   1  13
ATOM     13  C   LIG    1       -1.436   3.502   2.483  0.00  0.00    +0.190 C 
BRANCH  13  14
ATOM     14  C   LIG    1       -0.720   3.008   1.225  0.00  0.00    +0.040 C 
BRANCH  14  15
ATOM     15  C   LIG    1       -0.699   1.479   1.216  0.00  0.00    +0.260 C 
BRANCH  15  16
ATOM     16  N   LIG    1       -0.012   1.005   0.008  0.00  0.00    -0.640 N 
ATOM     17  H   LIG    1       -0.500   1.339  -0.810  0.00  0.00    +0.440 HD
ATOM     18  H   LIG    1        0.935   1.354   0.000  0.00  0.00    +0.440 HD
ATOM     19  H   LIG    1        0.002  -0.004   0.002  0.00  0.00    +0.440 HD
ENDBRANCH  15  16
ENDBRANCH  14  15
ENDBRANCH  13  14
ENDBRANCH   1  13
TORSDOF 4
ENDMDL
MODEL      353
REMARK  Name = ZINC000409429385
REMARK                            x       y       z     vdW  Elec       q    Type
REMARK                         _______ _______ _______ _____ _____    ______ ____
ROOT
ATOM      1  C   LIG    1       -3.315  -1.107   1.360  0.00  0.00    +0.370 A 
ATOM      2  C   LIG    1       -3.381  -2.490   1.471  0.00  0.00    -0.070 A 
ATOM      3  C   LIG    1       -4.637  -3.091   1.491  0.00  0.00    +0.350 A 
ATOM      4  N   LIG    1       -5.722  -2.324   1.404  0.00  0.00    -0.560 NA
ATOM      5  C   LIG    1       -5.616  -1.015   1.301  0.00  0.00    +0.570 A 
ATOM      6  N   LIG    1       -4.446  -0.410   1.283  0.00  0.00    -0.590 NA
ENDROOT
BRANCH   3   7
ATOM      7  N   LIG    1       -4.756  -4.468   1.600  0.00  0.00    -0.420 N 
ATOM      8  C   LIG    1       -4.628  -5.116   0.282  0.00  0.00    +0.220 C 
ATOM      9  C   LIG    1       -5.778  -6.047   0.689  0.00  0.00    +0.170 C 
ATOM     10  C   LIG    1       -6.173  -4.877   1.601  0.00  0.00    +0.190 C 
BRANCH   9  11
ATOM     11  O   LIG    1       -5.360  -7.220   1.390  0.00  0.00    -0.540 OA
ATOM     12  H   LIG    1       -6.086  -7.805   1.646  0.00  0.00    +0.390 HD
ENDBRANCH   9  11
ENDBRANCH   3   7
BRANCH   1  13
ATOM     13  O   LIG    1       -2.116  -0.476   1.337  0.00  0.00    -0.320 OA
BRANCH  13  14
ATOM     14  C   LIG    1       -2.135   0.949   1.227  0.00  0.00    +0.250 C 
BRANCH  14  15
ATOM     15  C   LIG    1       -0.699   1.479   1.216  0.00  0.00    +0.310 C 
BRANCH  15  16
ATOM     16  N   LIG    1       -0.012   1.005   0.008  0.00  0.00    -0.640 N 
ATOM     17  H   LIG    1       -0.500   1.339  -0.810  0.00  0.00    +0.440 HD
ATOM     18  H   LIG    1        0.935   1.354   0.000  0.00  0.00    +0.440 HD
ATOM     19  H   LIG    1        0.002  -0.004   0.002  0.00  0.00    +0.440 HD
ENDBRANCH  15  16
ENDBRANCH  14  15
ENDBRANCH  13  14
ENDBRANCH   1  13
TORSDOF 6
ENDMDL
MODEL      354
REMARK  Name = ZINC000409429562
REMARK                            x       y       z     vdW  Elec       q    Type
REMARK                         _______ _______ _______ _____ _____    ______ ____
ROOT
ATOM      1  C   LIG    1       -1.295  -0.603   0.011  0.00  0.00    +0.180 C 
ATOM      2  C   LIG    1       -1.737  -0.948   1.455  0.00  0.00    +0.260 C 
ATOM      3  N   LIG    1       -2.710  -2.045   1.300  0.00  0.00    -0.600 N 
ATOM      4  C   LIG    1       -2.446  -2.733   0.028  0.00  0.00    +0.240 C 
ATOM      5  C   LIG    1       -3.681  -2.364   2.179  0.00  0.00    +0.530 C 
ATOM      6  O   LIG    1       -3.808  -1.724   3.201  0.00  0.00    -0.520 OA
ATOM      7  C   LIG    1       -1.265  -2.006  -0.650  0.00  0.00    +0.190 C 
ENDROOT
BRANCH   5   8
ATOM      8  C   LIG    1       -4.609  -3.516   1.891  0.00  0.00    -0.010 C 
ATOM      9  C   LIG    1       -4.034  -4.888   2.284  0.00  0.00    +0.340 C 
ATOM     10  N   LIG    1       -4.675  -4.669   3.600  0.00  0.00    -0.540 N 
ATOM     11  H   LIG    1       -4.068  -4.207   4.261  0.00  0.00    +0.440 HD
ATOM     12  H   LIG    1       -5.095  -5.505   3.977  0.00  0.00    +0.430 HD
ATOM     13  C   LIG    1       -5.662  -3.752   2.988  0.00  0.00    +0.350 C 
ENDBRANCH   5   8
BRANCH   1  15
ATOM     14  C   LIG    1       -0.017   1.425   0.010  0.00  0.00    +0.220 C 
ATOM     15  O   LIG    1        0.002  -0.004   0.002  0.00  0.00    -0.350 OA
ENDBRANCH   1  15
BRANCH   7  16
ATOM     16  O   LIG    1       -0.033  -2.673  -0.370  0.00  0.00    -0.540 OA
ATOM     17  H   LIG    1        0.005  -3.583  -0.697  0.00  0.00    +0.380 HD
ENDBRANCH   7  16
TORSDOF 3
ENDMDL
MODEL      355
REMARK  Name = ZINC000409429724
REMARK                            x       y       z     vdW  Elec       q    Type
REMARK                         _______ _______ _______ _____ _____    ______ ____
ROOT
ATOM      1  C   LIG    1        0.707  -0.490  -1.238  0.00  0.00    +0.500 C 
ATOM      2  N   LIG    1        0.053  -0.526  -2.415  0.00  0.00    -0.580 N 
ATOM      3  C   LIG    1       -1.334  -0.087  -2.476  0.00  0.00    +0.290 C 
ATOM      4  C   LIG    1       -2.194  -1.090  -3.210  0.00  0.00    +0.050 C 
ATOM      5  C   LIG    1       -1.612  -1.603  -4.506  0.00  0.00    +0.040 C 
ATOM      6  C   LIG    1       -2.123  -3.026  -4.715  0.00  0.00    +0.530 C 
ATOM      7  N   LIG    1       -1.087  -3.873  -4.641  0.00  0.00    -0.680 N 
ATOM      8  H   LIG    1       -1.190  -4.836  -4.692  0.00  0.00    +0.420 HD
ATOM      9  C   LIG    1        0.107  -3.275  -4.492  0.00  0.00    +0.530 C 
ATOM     10  O   LIG    1        1.172  -3.835  -4.346  0.00  0.00    -0.460 OA
ATOM     11  O   LIG    1       -3.278  -3.339  -4.913  0.00  0.00    -0.460 OA
ATOM     12  C   LIG    1       -0.110  -1.775  -4.541  0.00  0.00    +0.000 C 
ATOM     13  C   LIG    1        0.744  -0.997  -3.602  0.00  0.00    +0.340 C 
ATOM     14  O   LIG    1        1.864  -0.849  -1.176  0.00  0.00    -0.510 OA
ENDROOT
BRANCH   1  16
ATOM     15  C   LIG    1       -0.019   1.526   0.010  0.00  0.00    +0.120 C 
ATOM     16  C   LIG    1        0.002  -0.004   0.002  0.00  0.00    +0.180 C 
BRANCH  16  17
ATOM     17  N   LIG    1        0.713  -0.491   1.192  0.00  0.00    -0.620 N 
ATOM     18  H   LIG    1        0.726  -1.500   1.187  0.00  0.00    +0.440 HD
ATOM     19  H   LIG    1        0.240  -0.165   2.022  0.00  0.00    +0.440 HD
ATOM     20  H   LIG    1        1.659  -0.141   1.185  0.00  0.00    +0.440 HD
ENDBRANCH  16  17
ENDBRANCH   1  16
TORSDOF 2
ENDMDL
MODEL      356
REMARK  Name = ZINC000409429725
REMARK                            x       y       z     vdW  Elec       q    Type
REMARK                         _______ _______ _______ _____ _____    ______ ____
ROOT
ATOM      1  C   LIG    1        0.707  -0.490  -1.238  0.00  0.00    +0.500 C 
ATOM      2  N   LIG    1        0.053  -0.526  -2.415  0.00  0.00    -0.590 N 
ATOM      3  C   LIG    1       -1.343  -0.085  -2.479  0.00  0.00    +0.280 C 
ATOM      4  C   LIG    1       -1.582   0.843  -3.688  0.00  0.00    +0.090 C 
ATOM      5  C   LIG    1       -1.000   0.143  -4.894  0.00  0.00    -0.010 C 
ATOM      6  C   LIG    1       -1.048   0.818  -6.229  0.00  0.00    +0.550 C 
ATOM      7  N   LIG    1        0.081   0.435  -6.883  0.00  0.00    -0.700 N 
ATOM      8  H   LIG    1        0.222   0.582  -7.832  0.00  0.00    +0.420 HD
ATOM      9  C   LIG    1        0.993  -0.173  -6.079  0.00  0.00    +0.550 C 
ATOM     10  O   LIG    1        1.974  -0.794  -6.429  0.00  0.00    -0.450 OA
ATOM     11  O   LIG    1       -1.916   1.556  -6.642  0.00  0.00    -0.450 OA
ATOM     12  C   LIG    1        0.540   0.070  -4.669  0.00  0.00    -0.020 C 
ATOM     13  C   LIG    1        0.757  -1.006  -3.629  0.00  0.00    +0.360 C 
ATOM     14  O   LIG    1        1.864  -0.849  -1.176  0.00  0.00    -0.520 OA
ENDROOT
BRANCH   1  16
ATOM     15  C   LIG    1       -0.019   1.526   0.010  0.00  0.00    +0.110 C 
ATOM     16  C   LIG    1        0.002  -0.004   0.002  0.00  0.00    +0.180 C 
BRANCH  16  17
ATOM     17  N   LIG    1        0.713  -0.491   1.192  0.00  0.00    -0.620 N 
ATOM     18  H   LIG    1        0.726  -1.500   1.187  0.00  0.00    +0.440 HD
ATOM     19  H   LIG    1        0.240  -0.165   2.022  0.00  0.00    +0.440 HD
ATOM     20  H   LIG    1        1.659  -0.141   1.185  0.00  0.00    +0.440 HD
ENDBRANCH  16  17
ENDBRANCH   1  16
TORSDOF 2
ENDMDL
MODEL      357
REMARK  Name = ZINC000409429726
REMARK                            x       y       z     vdW  Elec       q    Type
REMARK                         _______ _______ _______ _____ _____    ______ ____
ROOT
ATOM      1  C   LIG    1        0.707  -0.490  -1.238  0.00  0.00    +0.500 C 
ATOM      2  N   LIG    1        0.083  -0.430  -2.431  0.00  0.00    -0.580 N 
ATOM      3  C   LIG    1       -1.265   0.113  -2.493  0.00  0.00    +0.300 C 
ATOM      4  C   LIG    1       -2.173  -0.801  -3.291  0.00  0.00    +0.080 C 
ATOM      5  C   LIG    1       -1.569  -1.387  -4.516  0.00  0.00    +0.010 C 
ATOM      6  C   LIG    1       -1.839  -0.625  -5.785  0.00  0.00    +0.530 C 
ATOM      7  N   LIG    1       -0.736  -0.689  -6.550  0.00  0.00    -0.680 N 
ATOM      8  H   LIG    1       -0.691  -0.308  -7.441  0.00  0.00    +0.420 HD
ATOM      9  C   LIG    1        0.296  -1.325  -5.978  0.00  0.00    +0.540 C 
ATOM     10  O   LIG    1        1.363  -1.556  -6.506  0.00  0.00    -0.460 OA
ATOM     11  O   LIG    1       -2.870  -0.053  -6.068  0.00  0.00    -0.460 OA
ATOM     12  C   LIG    1       -0.088  -1.688  -4.563  0.00  0.00    +0.010 C 
ATOM     13  C   LIG    1        0.778  -0.902  -3.609  0.00  0.00    +0.300 C 
ATOM     14  O   LIG    1        0.112  -0.186  -0.226  0.00  0.00    -0.510 OA
ENDROOT
BRANCH   1  16
ATOM     15  C   LIG    1        2.202  -2.458  -1.036  0.00  0.00    +0.130 C 
ATOM     16  C   LIG    1        2.145  -0.934  -1.161  0.00  0.00    +0.160 C 
BRANCH  16  17
ATOM     17  N   LIG    1        2.785  -0.323   0.011  0.00  0.00    -0.620 N 
ATOM     18  H   LIG    1        2.748   0.682  -0.071  0.00  0.00    +0.440 HD
ATOM     19  H   LIG    1        3.748  -0.620   0.062  0.00  0.00    +0.450 HD
ATOM     20  H   LIG    1        2.300  -0.610   0.848  0.00  0.00    +0.440 HD
ENDBRANCH  16  17
ENDBRANCH   1  16
TORSDOF 2
ENDMDL
MODEL      358
REMARK  Name = ZINC000409429568
REMARK                            x       y       z     vdW  Elec       q    Type
REMARK                         _______ _______ _______ _____ _____    ______ ____
ROOT
ATOM      1  C   LIG    1       -1.295  -0.603   0.011  0.00  0.00    +0.170 C 
ATOM      2  C   LIG    1       -1.764  -0.912  -1.426  0.00  0.00    +0.260 C 
ATOM      3  N   LIG    1       -2.451  -2.211  -1.391  0.00  0.00    -0.600 N 
ATOM      4  C   LIG    1       -2.453  -2.708  -0.004  0.00  0.00    +0.240 C 
ATOM      5  C   LIG    1       -2.989  -2.844  -2.453  0.00  0.00    +0.530 C 
ATOM      6  O   LIG    1       -2.929  -2.340  -3.554  0.00  0.00    -0.520 OA
ATOM      7  C   LIG    1       -1.248  -2.005   0.675  0.00  0.00    +0.180 C 
ENDROOT
BRANCH   5   8
ATOM      8  C   LIG    1       -3.667  -4.178  -2.271  0.00  0.00    -0.010 C 
ATOM      9  C   LIG    1       -5.130  -4.071  -1.805  0.00  0.00    +0.340 C 
ATOM     10  N   LIG    1       -5.484  -4.059  -3.241  0.00  0.00    -0.540 N 
ATOM     11  H   LIG    1       -5.523  -3.129  -3.630  0.00  0.00    +0.440 HD
ATOM     12  H   LIG    1       -6.310  -4.601  -3.448  0.00  0.00    +0.430 HD
ATOM     13  C   LIG    1       -4.229  -4.770  -3.576  0.00  0.00    +0.350 C 
ENDBRANCH   5   8
BRANCH   1  15
ATOM     14  C   LIG    1       -0.017   1.425   0.010  0.00  0.00    +0.230 C 
ATOM     15  O   LIG    1        0.002  -0.004   0.002  0.00  0.00    -0.370 OA
ENDBRANCH   1  15
BRANCH   7  16
ATOM     16  O   LIG    1       -1.436  -1.916   2.088  0.00  0.00    -0.540 OA
ATOM     17  H   LIG    1       -1.510  -2.773   2.530  0.00  0.00    +0.390 HD
ENDBRANCH   7  16
TORSDOF 3
ENDMDL
MODEL      359
REMARK  Name = ZINC000409429693
REMARK                            x       y       z     vdW  Elec       q    Type
REMARK                         _______ _______ _______ _____ _____    ______ ____
ROOT
ATOM      1  N   LIG    1        0.711  -0.489   1.189  0.00  0.00    -0.570 N 
ATOM      2  C   LIG    1        2.031  -0.707   1.205  0.00  0.00    +0.530 C 
ATOM      3  C   LIG    1        2.441  -1.201   2.574  0.00  0.00    +0.020 C 
ATOM      4  C   LIG    1        3.299  -0.121   3.266  0.00  0.00    +0.340 C 
ATOM      5  N   LIG    1        2.319   0.776   3.921  0.00  0.00    -0.610 N 
ATOM      6  C   LIG    1        1.288  -0.140   4.460  0.00  0.00    +0.320 C 
ATOM      7  C   LIG    1        2.358   2.120   4.007  0.00  0.00    +0.520 C 
ATOM      8  O   LIG    1        3.278   2.733   3.510  0.00  0.00    -0.510 OA
ATOM      9  C   LIG    1        1.103  -1.230   3.361  0.00  0.00    +0.020 C 
ATOM     10  O   LIG    1        2.781  -0.536   0.268  0.00  0.00    -0.460 OA
ATOM     11  C   LIG    1        0.091  -0.745   2.347  0.00  0.00    +0.530 C 
ATOM     12  O   LIG    1       -1.094  -0.601   2.555  0.00  0.00    -0.470 OA
ENDROOT
BRANCH   1  14
ATOM     13  C   LIG    1       -0.019   1.526   0.010  0.00  0.00    +0.030 C 
ATOM     14  C   LIG    1        0.002  -0.004   0.002  0.00  0.00    +0.290 C 
ENDBRANCH   1  14
BRANCH   7  15
ATOM     15  C   LIG    1        1.257   2.861   4.721  0.00  0.00    +0.180 C 
ATOM     16  C   LIG    1        0.046   2.993   3.794  0.00  0.00    +0.130 C 
BRANCH  15  17
ATOM     17  N   LIG    1        1.732   4.199   5.099  0.00  0.00    -0.620 N 
ATOM     18  H   LIG    1        1.997   4.708   4.269  0.00  0.00    +0.440 HD
ATOM     19  H   LIG    1        2.530   4.112   5.710  0.00  0.00    +0.440 HD
ATOM     20  H   LIG    1        0.995   4.695   5.577  0.00  0.00    +0.450 HD
ENDBRANCH  15  17
ENDBRANCH   7  15
TORSDOF 3
ENDMDL
MODEL      360
REMARK  Name = ZINC000409429566
REMARK                            x       y       z     vdW  Elec       q    Type
REMARK                         _______ _______ _______ _____ _____    ______ ____
ROOT
ATOM      1  C   LIG    1       -1.295  -0.603   0.011  0.00  0.00    +0.180 C 
ATOM      2  C   LIG    1       -1.764  -0.912  -1.426  0.00  0.00    +0.250 C 
ATOM      3  N   LIG    1       -2.451  -2.211  -1.391  0.00  0.00    -0.590 N 
ATOM      4  C   LIG    1       -2.453  -2.708  -0.004  0.00  0.00    +0.240 C 
ATOM      5  C   LIG    1       -2.989  -2.844  -2.453  0.00  0.00    +0.530 C 
ATOM      6  O   LIG    1       -2.929  -2.340  -3.554  0.00  0.00    -0.520 OA
ATOM      7  C   LIG    1       -1.248  -2.005   0.675  0.00  0.00    +0.190 C 
ENDROOT
BRANCH   5   8
ATOM      8  C   LIG    1       -3.667  -4.178  -2.271  0.00  0.00    -0.010 C 
ATOM      9  C   LIG    1       -5.130  -4.071  -1.805  0.00  0.00    +0.340 C 
ATOM     10  N   LIG    1       -5.484  -4.059  -3.241  0.00  0.00    -0.540 N 
ATOM     11  H   LIG    1       -5.523  -3.129  -3.630  0.00  0.00    +0.440 HD
ATOM     12  H   LIG    1       -6.310  -4.601  -3.448  0.00  0.00    +0.430 HD
ATOM     13  C   LIG    1       -4.229  -4.770  -3.576  0.00  0.00    +0.350 C 
ENDBRANCH   5   8
BRANCH   1  15
ATOM     14  C   LIG    1       -0.017   1.425   0.010  0.00  0.00    +0.220 C 
ATOM     15  O   LIG    1        0.002  -0.004   0.002  0.00  0.00    -0.350 OA
ENDBRANCH   1  15
BRANCH   7  16
ATOM     16  O   LIG    1       -0.024  -2.674   0.365  0.00  0.00    -0.530 OA
ATOM     17  H   LIG    1        0.012  -3.590   0.673  0.00  0.00    +0.380 HD
ENDBRANCH   7  16
TORSDOF 3
ENDMDL
MODEL      361
REMARK  Name = ZINC000409429695
REMARK                            x       y       z     vdW  Elec       q    Type
REMARK                         _______ _______ _______ _____ _____    ______ ____
ROOT
ATOM      1  N   LIG    1        0.711  -0.489   1.189  0.00  0.00    -0.600 N 
ATOM      2  C   LIG    1        2.063  -0.720   1.228  0.00  0.00    +0.570 C 
ATOM      3  C   LIG    1        2.382  -0.839   2.648  0.00  0.00    -0.040 C 
ATOM      4  C   LIG    1        3.413  -1.589   3.410  0.00  0.00    +0.360 C 
ATOM      5  N   LIG    1        2.767  -1.886   4.726  0.00  0.00    -0.610 N 
ATOM      6  C   LIG    1        1.336  -1.453   4.636  0.00  0.00    +0.330 C 
ATOM      7  C   LIG    1        3.365  -2.442   5.798  0.00  0.00    +0.520 C 
ATOM      8  O   LIG    1        4.537  -2.751   5.747  0.00  0.00    -0.510 OA
ATOM      9  C   LIG    1        1.073  -1.569   3.149  0.00  0.00    -0.020 C 
ATOM     10  O   LIG    1        2.826  -0.806   0.289  0.00  0.00    -0.440 OA
ATOM     11  C   LIG    1        0.097  -0.758   2.384  0.00  0.00    +0.560 C 
ATOM     12  O   LIG    1       -1.005  -0.402   2.743  0.00  0.00    -0.450 OA
ENDROOT
BRANCH   1  14
ATOM     13  C   LIG    1       -0.019   1.526   0.010  0.00  0.00    +0.030 C 
ATOM     14  C   LIG    1        0.002  -0.004   0.002  0.00  0.00    +0.300 C 
ENDBRANCH   1  14
BRANCH   7  15
ATOM     15  C   LIG    1        2.577  -2.681   7.061  0.00  0.00    +0.180 C 
ATOM     16  C   LIG    1        1.746  -3.956   6.910  0.00  0.00    +0.120 C 
BRANCH  15  17
ATOM     17  N   LIG    1        3.501  -2.829   8.193  0.00  0.00    -0.620 N 
ATOM     18  H   LIG    1        4.114  -3.612   8.027  0.00  0.00    +0.440 HD
ATOM     19  H   LIG    1        2.973  -2.988   9.039  0.00  0.00    +0.440 HD
ATOM     20  H   LIG    1        4.049  -1.988   8.293  0.00  0.00    +0.440 HD
ENDBRANCH  15  17
ENDBRANCH   7  15
TORSDOF 3
ENDMDL
MODEL      362
REMARK  Name = ZINC000409429723
REMARK                            x       y       z     vdW  Elec       q    Type
REMARK                         _______ _______ _______ _____ _____    ______ ____
ROOT
ATOM      1  C   LIG    1        0.707  -0.490  -1.238  0.00  0.00    +0.500 C 
ATOM      2  N   LIG    1        0.053  -0.526  -2.415  0.00  0.00    -0.590 N 
ATOM      3  C   LIG    1       -1.343  -0.084  -2.476  0.00  0.00    +0.270 C 
ATOM      4  C   LIG    1       -2.206  -1.080  -3.281  0.00  0.00    +0.090 C 
ATOM      5  C   LIG    1       -1.482  -1.302  -4.591  0.00  0.00    -0.010 C 
ATOM      6  C   LIG    1       -2.070  -2.238  -5.600  0.00  0.00    +0.550 C 
ATOM      7  N   LIG    1       -1.017  -2.831  -6.222  0.00  0.00    -0.700 N 
ATOM      8  H   LIG    1       -1.103  -3.350  -7.037  0.00  0.00    +0.420 HD
ATOM      9  C   LIG    1        0.170  -2.628  -5.590  0.00  0.00    +0.550 C 
ATOM     10  O   LIG    1        1.278  -2.854  -6.027  0.00  0.00    -0.450 OA
ATOM     11  O   LIG    1       -3.248  -2.428  -5.818  0.00  0.00    -0.450 OA
ATOM     12  C   LIG    1       -0.158  -2.048  -4.241  0.00  0.00    -0.020 C 
ATOM     13  C   LIG    1        0.759  -1.006  -3.625  0.00  0.00    +0.360 C 
ATOM     14  O   LIG    1        1.864  -0.849  -1.176  0.00  0.00    -0.520 OA
ENDROOT
BRANCH   1  16
ATOM     15  C   LIG    1       -0.019   1.526   0.010  0.00  0.00    +0.120 C 
ATOM     16  C   LIG    1        0.002  -0.004   0.002  0.00  0.00    +0.170 C 
BRANCH  16  17
ATOM     17  N   LIG    1        0.713  -0.491   1.192  0.00  0.00    -0.620 N 
ATOM     18  H   LIG    1        0.726  -1.500   1.187  0.00  0.00    +0.440 HD
ATOM     19  H   LIG    1        0.240  -0.165   2.022  0.00  0.00    +0.440 HD
ATOM     20  H   LIG    1        1.659  -0.141   1.185  0.00  0.00    +0.440 HD
ENDBRANCH  16  17
ENDBRANCH   1  16
TORSDOF 2
ENDMDL
MODEL      363
REMARK  Name = ZINC000409429782
REMARK                            x       y       z     vdW  Elec       q    Type
REMARK                         _______ _______ _______ _____ _____    ______ ____
ROOT
ATOM      1  N   LIG    1        0.711  -0.489   1.189  0.00  0.00    -0.600 N 
ATOM      2  C   LIG    1        2.063  -0.720   1.228  0.00  0.00    +0.570 C 
ATOM      3  C   LIG    1        2.382  -0.839   2.648  0.00  0.00    -0.040 C 
ATOM      4  C   LIG    1        3.413  -1.589   3.410  0.00  0.00    +0.360 C 
ATOM      5  N   LIG    1        2.767  -1.886   4.726  0.00  0.00    -0.610 N 
ATOM      6  C   LIG    1        1.336  -1.453   4.636  0.00  0.00    +0.330 C 
ATOM      7  C   LIG    1        3.365  -2.442   5.798  0.00  0.00    +0.520 C 
ATOM      8  O   LIG    1        4.537  -2.751   5.747  0.00  0.00    -0.510 OA
ATOM      9  C   LIG    1        1.073  -1.569   3.149  0.00  0.00    -0.020 C 
ATOM     10  O   LIG    1        2.826  -0.806   0.289  0.00  0.00    -0.440 OA
ATOM     11  C   LIG    1        0.097  -0.758   2.384  0.00  0.00    +0.560 C 
ATOM     12  O   LIG    1       -1.005  -0.402   2.743  0.00  0.00    -0.450 OA
ENDROOT
BRANCH   1  14
ATOM     13  C   LIG    1       -0.019   1.526   0.010  0.00  0.00    +0.030 C 
ATOM     14  C   LIG    1        0.002  -0.004   0.002  0.00  0.00    +0.300 C 
ENDBRANCH   1  14
BRANCH   7  15
ATOM     15  C   LIG    1        2.577  -2.681   7.061  0.00  0.00    +0.170 C 
ATOM     16  C   LIG    1        2.468  -1.373   7.848  0.00  0.00    +0.120 C 
BRANCH  15  17
ATOM     17  N   LIG    1        3.260  -3.690   7.881  0.00  0.00    -0.620 N 
ATOM     18  H   LIG    1        4.184  -3.362   8.118  0.00  0.00    +0.440 HD
ATOM     19  H   LIG    1        3.332  -4.552   7.362  0.00  0.00    +0.440 HD
ATOM     20  H   LIG    1        2.733  -3.850   8.726  0.00  0.00    +0.440 HD
ENDBRANCH  15  17
ENDBRANCH   7  15
TORSDOF 3
ENDMDL
MODEL      364
REMARK  Name = ZINC000409429781
REMARK                            x       y       z     vdW  Elec       q    Type
REMARK                         _______ _______ _______ _____ _____    ______ ____
ROOT
ATOM      1  N   LIG    1        0.711  -0.489   1.189  0.00  0.00    -0.570 N 
ATOM      2  C   LIG    1        2.031  -0.707   1.205  0.00  0.00    +0.530 C 
ATOM      3  C   LIG    1        2.441  -1.201   2.574  0.00  0.00    +0.020 C 
ATOM      4  C   LIG    1        3.299  -0.121   3.266  0.00  0.00    +0.340 C 
ATOM      5  N   LIG    1        2.319   0.776   3.921  0.00  0.00    -0.610 N 
ATOM      6  C   LIG    1        1.288  -0.140   4.460  0.00  0.00    +0.320 C 
ATOM      7  C   LIG    1        2.358   2.120   4.007  0.00  0.00    +0.520 C 
ATOM      8  O   LIG    1        3.278   2.733   3.510  0.00  0.00    -0.510 OA
ATOM      9  C   LIG    1        1.103  -1.230   3.361  0.00  0.00    +0.020 C 
ATOM     10  O   LIG    1        2.781  -0.536   0.268  0.00  0.00    -0.460 OA
ATOM     11  C   LIG    1        0.091  -0.745   2.347  0.00  0.00    +0.530 C 
ATOM     12  O   LIG    1       -1.094  -0.601   2.555  0.00  0.00    -0.470 OA
ENDROOT
BRANCH   1  14
ATOM     13  C   LIG    1       -0.019   1.526   0.010  0.00  0.00    +0.030 C 
ATOM     14  C   LIG    1        0.002  -0.004   0.002  0.00  0.00    +0.290 C 
ENDBRANCH   1  14
BRANCH   7  15
ATOM     15  C   LIG    1        1.257   2.861   4.721  0.00  0.00    +0.170 C 
ATOM     16  C   LIG    1        1.494   2.796   6.231  0.00  0.00    +0.120 C 
BRANCH  15  17
ATOM     17  N   LIG    1        1.249   4.264   4.287  0.00  0.00    -0.620 N 
ATOM     18  H   LIG    1        2.138   4.689   4.506  0.00  0.00    +0.440 HD
ATOM     19  H   LIG    1        0.512   4.761   4.765  0.00  0.00    +0.450 HD
ATOM     20  H   LIG    1        1.093   4.307   3.291  0.00  0.00    +0.440 HD
ENDBRANCH  15  17
ENDBRANCH   7  15
TORSDOF 3
ENDMDL
MODEL      365
REMARK  Name = ZINC000409430099
REMARK                            x       y       z     vdW  Elec       q    Type
REMARK                         _______ _______ _______ _____ _____    ______ ____
ROOT
ATOM      1  N   LIG    1       -1.406   3.481   2.430  0.00  0.00    -1.010 NA
ATOM      2  C   LIG    1       -2.857   3.657   2.623  0.00  0.00    +0.270 C 
ATOM      3  C   LIG    1       -3.157   3.627   4.125  0.00  0.00    +0.170 C 
ATOM      4  C   LIG    1       -4.404   4.484   4.443  0.00  0.00    +0.070 C 
ATOM      5  C   LIG    1       -4.123   4.903   5.912  0.00  0.00    +0.040 C 
ATOM      6  C   LIG    1       -2.588   5.085   5.935  0.00  0.00    +0.320 C 
ATOM      7  N   LIG    1       -2.038   4.330   4.800  0.00  0.00    -1.010 NA
ATOM      8  S   LIG    1       -0.711   3.929   3.884  0.00  0.00    +2.800 S 
ATOM      9  O   LIG    1        0.001   5.133   3.627  0.00  0.00    -0.960 OA
ATOM     10  O   LIG    1       -0.129   2.774   4.471  0.00  0.00    -0.960 OA
ENDROOT
BRANCH   1  11
ATOM     11  C   LIG    1       -0.720   3.008   1.225  0.00  0.00    +0.350 C 
BRANCH  11  12
ATOM     12  C   LIG    1       -0.699   1.479   1.216  0.00  0.00    +0.240 C 
BRANCH  12  13
ATOM     13  N   LIG    1       -0.012   1.005   0.008  0.00  0.00    -0.630 N 
ATOM     14  H   LIG    1       -0.500   1.339  -0.810  0.00  0.00    +0.440 HD
ATOM     15  H   LIG    1        0.935   1.354   0.000  0.00  0.00    +0.440 HD
ATOM     16  H   LIG    1        0.002  -0.004   0.002  0.00  0.00    +0.440 HD
ENDBRANCH  12  13
ENDBRANCH  11  12
ENDBRANCH   1  11
TORSDOF 3
ENDMDL
MODEL      366
REMARK  Name = ZINC000409430097
REMARK                            x       y       z     vdW  Elec       q    Type
REMARK                         _______ _______ _______ _____ _____    ______ ____
ROOT
ATOM      1  N   LIG    1       -1.406   3.481   2.430  0.00  0.00    -1.010 NA
ATOM      2  C   LIG    1       -2.860   3.662   2.639  0.00  0.00    +0.280 C 
ATOM      3  C   LIG    1       -3.032   4.840   3.593  0.00  0.00    +0.160 C 
ATOM      4  C   LIG    1       -4.346   4.753   4.399  0.00  0.00    +0.050 C 
ATOM      5  C   LIG    1       -3.997   5.658   5.616  0.00  0.00    +0.040 C 
ATOM      6  C   LIG    1       -2.495   5.371   5.850  0.00  0.00    +0.310 C 
ATOM      7  N   LIG    1       -1.971   4.760   4.622  0.00  0.00    -1.010 NA
ATOM      8  S   LIG    1       -0.727   3.933   3.891  0.00  0.00    +2.800 S 
ATOM      9  O   LIG    1        0.304   4.876   3.627  0.00  0.00    -0.960 OA
ATOM     10  O   LIG    1       -0.533   2.733   4.626  0.00  0.00    -0.960 OA
ENDROOT
BRANCH   1  11
ATOM     11  C   LIG    1       -0.720   3.008   1.225  0.00  0.00    +0.360 C 
BRANCH  11  12
ATOM     12  C   LIG    1       -0.699   1.479   1.216  0.00  0.00    +0.240 C 
BRANCH  12  13
ATOM     13  N   LIG    1       -0.012   1.005   0.008  0.00  0.00    -0.630 N 
ATOM     14  H   LIG    1       -0.500   1.339  -0.810  0.00  0.00    +0.440 HD
ATOM     15  H   LIG    1        0.935   1.354   0.000  0.00  0.00    +0.440 HD
ATOM     16  H   LIG    1        0.002  -0.004   0.002  0.00  0.00    +0.440 HD
ENDBRANCH  12  13
ENDBRANCH  11  12
ENDBRANCH   1  11
TORSDOF 3
ENDMDL
MODEL      367
REMARK  Name = ZINC000409430589
REMARK                            x       y       z     vdW  Elec       q    Type
REMARK                         _______ _______ _______ _____ _____    ______ ____
ROOT
ATOM      1  N   LIG    1        0.711  -0.489   1.189  0.00  0.00    -0.570 N 
ATOM      2  C   LIG    1        2.031  -0.707   1.205  0.00  0.00    +0.530 C 
ATOM      3  C   LIG    1        2.441  -1.202   2.574  0.00  0.00    +0.020 C 
ATOM      4  C   LIG    1        3.301  -0.123   3.266  0.00  0.00    +0.310 C 
ATOM      5  N   LIG    1        2.755  -0.033   4.644  0.00  0.00    -0.390 N 
ATOM      6  C   LIG    1        1.285  -0.143   4.461  0.00  0.00    +0.300 C 
ATOM      7  H   LIG    1        3.099  -0.793   5.211  0.00  0.00    +0.440 HD
ATOM      8  C   LIG    1        1.103  -1.231   3.360  0.00  0.00    +0.030 C 
ATOM      9  O   LIG    1        2.781  -0.535   0.268  0.00  0.00    -0.440 OA
ATOM     10  C   LIG    1        0.091  -0.745   2.347  0.00  0.00    +0.530 C 
ATOM     11  O   LIG    1       -1.094  -0.600   2.555  0.00  0.00    -0.440 OA
ENDROOT
BRANCH   1  13
ATOM     12  C   LIG    1       -0.019   1.526   0.010  0.00  0.00    +0.040 C 
ATOM     13  C   LIG    1        0.002  -0.004   0.002  0.00  0.00    +0.290 C 
ENDBRANCH   1  13
BRANCH   5  14
ATOM     14  C   LIG    1        3.104   1.259   5.251  0.00  0.00    +0.280 C 
BRANCH  14  15
ATOM     15  C   LIG    1        2.639   1.280   6.708  0.00  0.00    +0.220 C 
BRANCH  15  16
ATOM     16  O   LIG    1        3.368   0.302   7.454  0.00  0.00    -0.580 OA
ATOM     17  H   LIG    1        3.125   0.260   8.389  0.00  0.00    +0.410 HD
ENDBRANCH  15  16
ENDBRANCH  14  15
ENDBRANCH   5  14
TORSDOF 4
ENDMDL
MODEL      368
REMARK  Name = ZINC000395931991
REMARK                            x       y       z     vdW  Elec       q    Type
REMARK                         _______ _______ _______ _____ _____    ______ ____
ROOT
ATOM      1  C   LIG    1       -1.295  -0.603   0.011  0.00  0.00    +0.170 C 
ATOM      2  C   LIG    1       -1.737  -0.948   1.455  0.00  0.00    +0.260 C 
ATOM      3  N   LIG    1       -2.710  -2.045   1.300  0.00  0.00    -0.600 N 
ATOM      4  C   LIG    1       -2.446  -2.733   0.028  0.00  0.00    +0.230 C 
ATOM      5  C   LIG    1       -3.681  -2.364   2.179  0.00  0.00    +0.540 C 
ATOM      6  O   LIG    1       -3.808  -1.724   3.201  0.00  0.00    -0.520 OA
ATOM      7  C   LIG    1       -1.265  -2.006  -0.650  0.00  0.00    +0.190 C 
ENDROOT
BRANCH   5   8
ATOM      8  C   LIG    1       -4.609  -3.516   1.891  0.00  0.00    +0.010 C 
ATOM      9  C   LIG    1       -3.825  -4.853   1.842  0.00  0.00    +0.100 C 
ATOM     10  C   LIG    1       -4.925  -5.875   2.221  0.00  0.00    +0.280 C 
ATOM     11  N   LIG    1       -5.746  -5.186   3.240  0.00  0.00    -0.510 N 
ATOM     12  H   LIG    1       -5.432  -5.449   4.162  0.00  0.00    +0.440 HD
ATOM     13  H   LIG    1       -6.715  -5.442   3.125  0.00  0.00    +0.440 HD
ATOM     14  C   LIG    1       -5.594  -3.728   3.059  0.00  0.00    +0.290 C 
ENDBRANCH   5   8
BRANCH   1  16
ATOM     15  C   LIG    1       -0.017   1.425   0.010  0.00  0.00    +0.230 C 
ATOM     16  O   LIG    1        0.002  -0.004   0.002  0.00  0.00    -0.370 OA
ENDBRANCH   1  16
BRANCH   7  17
ATOM     17  O   LIG    1       -1.473  -1.910  -2.061  0.00  0.00    -0.550 OA
ATOM     18  H   LIG    1       -1.537  -2.765  -2.508  0.00  0.00    +0.390 HD
ENDBRANCH   7  17
TORSDOF 3
ENDMDL
MODEL      369
REMARK  Name = ZINC000387180507
REMARK                            x       y       z     vdW  Elec       q    Type
REMARK                         _______ _______ _______ _____ _____    ______ ____
ROOT
ATOM      1  C   LIG    1        0.710  -1.985  -1.215  0.00  0.00    +0.520 C 
ATOM      2  N   LIG    1        1.293  -2.645  -2.235  0.00  0.00    -0.610 N 
ATOM      3  C   LIG    1        1.964  -2.021  -3.422  0.00  0.00    +0.360 C 
ATOM      4  C   LIG    1        1.881  -3.100  -4.425  0.00  0.00    -0.060 C 
ATOM      5  C   LIG    1        2.442  -3.449  -5.710  0.00  0.00    +0.580 C 
ATOM      6  N   LIG    1        2.282  -4.810  -5.801  0.00  0.00    -0.710 N 
ATOM      7  H   LIG    1        2.388  -5.310  -6.625  0.00  0.00    +0.430 HD
ATOM      8  C   LIG    1        1.959  -5.384  -4.603  0.00  0.00    +0.550 C 
ATOM      9  O   LIG    1        1.494  -6.488  -4.421  0.00  0.00    -0.440 OA
ATOM     10  O   LIG    1        2.942  -2.706  -6.526  0.00  0.00    -0.440 OA
ATOM     11  C   LIG    1        2.325  -4.353  -3.565  0.00  0.00    +0.010 C 
ATOM     12  C   LIG    1        1.391  -4.125  -2.380  0.00  0.00    +0.340 C 
ATOM     13  O   LIG    1        0.202  -2.603  -0.304  0.00  0.00    -0.520 OA
ENDROOT
BRANCH   1  14
ATOM     14  C   LIG    1        0.690  -0.478  -1.207  0.00  0.00    +0.290 C 
BRANCH  14  16
ATOM     15  C   LIG    1       -0.018   1.465   0.010  0.00  0.00    +0.340 C 
ATOM     16  N   LIG    1        0.002  -0.004   0.002  0.00  0.00    -0.500 N 
ATOM     17  H   LIG    1       -0.945  -0.353   0.009  0.00  0.00    +0.440 HD
ATOM     18  H   LIG    1        0.490  -0.338   0.820  0.00  0.00    +0.440 HD
ENDBRANCH  14  16
ENDBRANCH   1  14
TORSDOF 2
ENDMDL
MODEL      370
REMARK  Name = ZINC000387198262
REMARK                            x       y       z     vdW  Elec       q    Type
REMARK                         _______ _______ _______ _____ _____    ______ ____
ROOT
ATOM      1  C   LIG    1       -1.420  -0.486   0.130  0.00  0.00    +0.530 C 
ATOM      2  N   LIG    1       -2.181  -0.075   1.163  0.00  0.00    -0.600 N 
ATOM      3  C   LIG    1       -1.839   0.923   2.203  0.00  0.00    +0.310 C 
ATOM      4  C   LIG    1       -3.139   1.725   2.420  0.00  0.00    +0.010 C 
ATOM      5  C   LIG    1       -3.377   1.894   3.904  0.00  0.00    +0.540 C 
ATOM      6  N   LIG    1       -4.443   1.173   4.268  0.00  0.00    -0.680 N 
ATOM      7  H   LIG    1       -4.768   1.141   5.181  0.00  0.00    +0.430 HD
ATOM      8  C   LIG    1       -5.024   0.498   3.269  0.00  0.00    +0.530 C 
ATOM      9  O   LIG    1       -6.000  -0.213   3.379  0.00  0.00    -0.450 OA
ATOM     10  O   LIG    1       -2.706   2.578   4.648  0.00  0.00    -0.460 OA
ATOM     11  C   LIG    1       -4.274   0.769   1.965  0.00  0.00    +0.020 C 
ATOM     12  C   LIG    1       -3.551  -0.513   1.514  0.00  0.00    +0.330 C 
ATOM     13  O   LIG    1       -1.880  -1.245  -0.697  0.00  0.00    -0.510 OA
ENDROOT
BRANCH   1  15
ATOM     14  C   LIG    1        0.025   1.323  -0.757  0.00  0.00    +0.120 C 
ATOM     15  C   LIG    1        0.002  -0.004   0.002  0.00  0.00    +0.170 C 
BRANCH  15  16
ATOM     16  N   LIG    1        0.793  -1.002  -0.731  0.00  0.00    -0.620 N 
ATOM     17  H   LIG    1        0.399  -1.133  -1.651  0.00  0.00    +0.440 HD
ATOM     18  H   LIG    1        0.778  -1.877  -0.230  0.00  0.00    +0.440 HD
ATOM     19  H   LIG    1        1.745  -0.679  -0.817  0.00  0.00    +0.450 HD
ENDBRANCH  15  16
ENDBRANCH   1  15
TORSDOF 2
ENDMDL
MODEL      371
REMARK  Name = ZINC000386976611
REMARK                            x       y       z     vdW  Elec       q    Type
REMARK                         _______ _______ _______ _____ _____    ______ ____
ROOT
ATOM      1  O   LIG    1        0.002  -0.004   0.002  0.00  0.00    -0.520 OA
ATOM      2  C   LIG    1       -0.014   1.209   0.009  0.00  0.00    +0.530 C 
ATOM      3  N   LIG    1       -1.191   1.867   0.018  0.00  0.00    -0.600 N 
ATOM      4  C   LIG    1       -1.413   3.331   0.020  0.00  0.00    +0.310 C 
ATOM      5  C   LIG    1       -2.612   3.547  -0.926  0.00  0.00    +0.010 C 
ATOM      6  C   LIG    1       -3.584   4.512  -0.285  0.00  0.00    +0.540 C 
ATOM      7  N   LIG    1       -4.704   3.859   0.046  0.00  0.00    -0.680 N 
ATOM      8  H   LIG    1       -5.459   4.294   0.472  0.00  0.00    +0.430 HD
ATOM      9  C   LIG    1       -4.697   2.556  -0.258  0.00  0.00    +0.530 C 
ATOM     10  O   LIG    1       -5.606   1.782  -0.045  0.00  0.00    -0.450 OA
ATOM     11  O   LIG    1       -3.381   5.693  -0.100  0.00  0.00    -0.460 OA
ATOM     12  C   LIG    1       -3.370   2.193  -0.921  0.00  0.00    +0.020 C 
ATOM     13  C   LIG    1       -2.555   1.290   0.021  0.00  0.00    +0.330 C 
ENDROOT
BRANCH   2  14
ATOM     14  C   LIG    1        1.280   1.980   0.001  0.00  0.00    +0.170 C 
ATOM     15  C   LIG    1        1.367   2.846  -1.274  0.00  0.00    +0.100 C 
ATOM     16  C   LIG    1        2.865   2.740  -1.667  0.00  0.00    +0.090 C 
ATOM     17  C   LIG    1        3.190   1.279  -1.268  0.00  0.00    +0.270 C 
ATOM     18  N   LIG    1        2.421   1.045  -0.023  0.00  0.00    -0.500 N 
ATOM     19  H   LIG    1        2.079   0.096  -0.008  0.00  0.00    +0.440 HD
ATOM     20  H   LIG    1        3.013   1.207   0.777  0.00  0.00    +0.440 HD
ENDBRANCH   2  14
TORSDOF 1
ENDMDL
MODEL      372
REMARK  Name = ZINC000395931994
REMARK                            x       y       z     vdW  Elec       q    Type
REMARK                         _______ _______ _______ _____ _____    ______ ____
ROOT
ATOM      1  C   LIG    1       -1.295  -0.603   0.011  0.00  0.00    +0.170 C 
ATOM      2  C   LIG    1       -1.737  -0.948   1.455  0.00  0.00    +0.260 C 
ATOM      3  N   LIG    1       -2.710  -2.045   1.300  0.00  0.00    -0.600 N 
ATOM      4  C   LIG    1       -2.446  -2.733   0.028  0.00  0.00    +0.240 C 
ATOM      5  C   LIG    1       -3.681  -2.364   2.179  0.00  0.00    +0.530 C 
ATOM      6  O   LIG    1       -3.808  -1.724   3.201  0.00  0.00    -0.530 OA
ATOM      7  C   LIG    1       -1.265  -2.006  -0.650  0.00  0.00    +0.180 C 
ENDROOT
BRANCH   5   8
ATOM      8  C   LIG    1       -4.609  -3.516   1.891  0.00  0.00    +0.010 C 
ATOM      9  C   LIG    1       -5.433  -3.235   0.613  0.00  0.00    +0.090 C 
ATOM     10  C   LIG    1       -6.833  -3.791   0.974  0.00  0.00    +0.280 C 
ATOM     11  N   LIG    1       -6.980  -3.438   2.409  0.00  0.00    -0.520 N 
ATOM     12  H   LIG    1       -7.667  -4.034   2.846  0.00  0.00    +0.440 HD
ATOM     13  H   LIG    1       -7.249  -2.470   2.503  0.00  0.00    +0.430 HD
ATOM     14  C   LIG    1       -5.648  -3.660   3.018  0.00  0.00    +0.300 C 
ENDBRANCH   5   8
BRANCH   1  16
ATOM     15  C   LIG    1       -0.017   1.425   0.010  0.00  0.00    +0.230 C 
ATOM     16  O   LIG    1        0.002  -0.004   0.002  0.00  0.00    -0.370 OA
ENDBRANCH   1  16
BRANCH   7  17
ATOM     17  O   LIG    1       -1.473  -1.910  -2.061  0.00  0.00    -0.550 OA
ATOM     18  H   LIG    1       -1.537  -2.765  -2.508  0.00  0.00    +0.390 HD
ENDBRANCH   7  17
TORSDOF 3
ENDMDL
MODEL      373
REMARK  Name = ZINC000387108498
REMARK                            x       y       z     vdW  Elec       q    Type
REMARK                         _______ _______ _______ _____ _____    ______ ____
ROOT
ATOM      1  O   LIG    1        0.002  -0.004   0.002  0.00  0.00    -0.520 OA
ATOM      2  C   LIG    1       -0.014   1.209   0.009  0.00  0.00    +0.540 C 
ATOM      3  N   LIG    1       -1.191   1.867   0.018  0.00  0.00    -0.620 N 
ATOM      4  C   LIG    1       -1.372   3.352   0.020  0.00  0.00    +0.330 C 
ATOM      5  C   LIG    1       -2.826   3.540  -0.103  0.00  0.00    -0.060 C 
ATOM      6  C   LIG    1       -3.830   4.546   0.170  0.00  0.00    +0.580 C 
ATOM      7  N   LIG    1       -5.014   3.852   0.197  0.00  0.00    -0.710 N 
ATOM      8  H   LIG    1       -5.886   4.277   0.172  0.00  0.00    +0.430 HD
ATOM      9  C   LIG    1       -4.833   2.499   0.262  0.00  0.00    +0.550 C 
ATOM     10  O   LIG    1       -5.652   1.638   0.023  0.00  0.00    -0.440 OA
ATOM     11  O   LIG    1       -3.663   5.735   0.337  0.00  0.00    -0.450 OA
ATOM     12  C   LIG    1       -3.405   2.316   0.715  0.00  0.00    +0.000 C 
ATOM     13  C   LIG    1       -2.551   1.244   0.021  0.00  0.00    +0.330 C 
ENDROOT
BRANCH   2  14
ATOM     14  C   LIG    1        1.280   1.980   0.001  0.00  0.00    -0.010 C 
ATOM     15  C   LIG    1        1.742   2.431   1.398  0.00  0.00    +0.340 C 
ATOM     16  N   LIG    1        2.477   1.149   1.461  0.00  0.00    -0.540 N 
ATOM     17  H   LIG    1        1.932   0.402   1.865  0.00  0.00    +0.440 HD
ATOM     18  H   LIG    1        3.388   1.238   1.886  0.00  0.00    +0.430 HD
ATOM     19  C   LIG    1        2.534   1.086  -0.016  0.00  0.00    +0.350 C 
ENDBRANCH   2  14
TORSDOF 1
ENDMDL
MODEL      374
REMARK  Name = ZINC000386976604
REMARK                            x       y       z     vdW  Elec       q    Type
REMARK                         _______ _______ _______ _____ _____    ______ ____
ROOT
ATOM      1  O   LIG    1        0.002  -0.004   0.002  0.00  0.00    -0.520 OA
ATOM      2  C   LIG    1       -0.014   1.209   0.009  0.00  0.00    +0.530 C 
ATOM      3  N   LIG    1       -1.191   1.867   0.018  0.00  0.00    -0.600 N 
ATOM      4  C   LIG    1       -1.413   3.331   0.020  0.00  0.00    +0.310 C 
ATOM      5  C   LIG    1       -2.612   3.547  -0.926  0.00  0.00    +0.010 C 
ATOM      6  C   LIG    1       -3.584   4.512  -0.285  0.00  0.00    +0.540 C 
ATOM      7  N   LIG    1       -4.704   3.859   0.046  0.00  0.00    -0.680 N 
ATOM      8  H   LIG    1       -5.459   4.294   0.472  0.00  0.00    +0.430 HD
ATOM      9  C   LIG    1       -4.697   2.556  -0.258  0.00  0.00    +0.530 C 
ATOM     10  O   LIG    1       -5.606   1.782  -0.045  0.00  0.00    -0.450 OA
ATOM     11  O   LIG    1       -3.381   5.693  -0.100  0.00  0.00    -0.460 OA
ATOM     12  C   LIG    1       -3.370   2.193  -0.921  0.00  0.00    +0.020 C 
ATOM     13  C   LIG    1       -2.555   1.290   0.021  0.00  0.00    +0.330 C 
ENDROOT
BRANCH   2  14
ATOM     14  C   LIG    1        1.280   1.980   0.001  0.00  0.00    +0.180 C 
ATOM     15  C   LIG    1        1.418   2.816   1.297  0.00  0.00    +0.100 C 
ATOM     16  C   LIG    1        2.957   2.988   1.397  0.00  0.00    +0.090 C 
ATOM     17  C   LIG    1        3.492   1.643   0.862  0.00  0.00    +0.270 C 
ATOM     18  N   LIG    1        2.432   1.053   0.022  0.00  0.00    -0.500 N 
ATOM     19  H   LIG    1        2.777   0.917  -0.916  0.00  0.00    +0.440 HD
ATOM     20  H   LIG    1        2.145   0.167   0.410  0.00  0.00    +0.440 HD
ENDBRANCH   2  14
TORSDOF 1
ENDMDL
MODEL      375
REMARK  Name = ZINC000386976605
REMARK                            x       y       z     vdW  Elec       q    Type
REMARK                         _______ _______ _______ _____ _____    ______ ____
ROOT
ATOM      1  O   LIG    1        0.002  -0.004   0.002  0.00  0.00    -0.520 OA
ATOM      2  C   LIG    1       -0.014   1.209   0.009  0.00  0.00    +0.530 C 
ATOM      3  N   LIG    1       -1.191   1.867   0.018  0.00  0.00    -0.610 N 
ATOM      4  C   LIG    1       -1.369   3.356   0.020  0.00  0.00    +0.360 C 
ATOM      5  C   LIG    1       -2.717   3.502   0.603  0.00  0.00    -0.060 C 
ATOM      6  C   LIG    1       -3.740   4.510   0.760  0.00  0.00    +0.580 C 
ATOM      7  N   LIG    1       -4.899   3.801   0.958  0.00  0.00    -0.710 N 
ATOM      8  H   LIG    1       -5.723   4.197   1.282  0.00  0.00    +0.430 HD
ATOM      9  C   LIG    1       -4.766   2.476   0.648  0.00  0.00    +0.550 C 
ATOM     10  O   LIG    1       -5.502   1.569   0.972  0.00  0.00    -0.440 OA
ATOM     11  O   LIG    1       -3.606   5.714   0.726  0.00  0.00    -0.440 OA
ATOM     12  C   LIG    1       -3.519   2.397  -0.197  0.00  0.00    +0.010 C 
ATOM     13  C   LIG    1       -2.544   1.243   0.021  0.00  0.00    +0.340 C 
ENDROOT
BRANCH   2  14
ATOM     14  C   LIG    1        1.280   1.980   0.001  0.00  0.00    +0.180 C 
ATOM     15  C   LIG    1        1.367   2.846  -1.274  0.00  0.00    +0.100 C 
ATOM     16  C   LIG    1        2.865   2.740  -1.667  0.00  0.00    +0.090 C 
ATOM     17  C   LIG    1        3.190   1.279  -1.268  0.00  0.00    +0.270 C 
ATOM     18  N   LIG    1        2.421   1.045  -0.023  0.00  0.00    -0.500 N 
ATOM     19  H   LIG    1        2.079   0.096  -0.008  0.00  0.00    +0.440 HD
ATOM     20  H   LIG    1        3.013   1.207   0.777  0.00  0.00    +0.440 HD
ENDBRANCH   2  14
TORSDOF 1
ENDMDL
MODEL      376
REMARK  Name = ZINC000387108504
REMARK                            x       y       z     vdW  Elec       q    Type
REMARK                         _______ _______ _______ _____ _____    ______ ____
ROOT
ATOM      1  O   LIG    1        0.002  -0.004   0.002  0.00  0.00    -0.520 OA
ATOM      2  C   LIG    1       -0.014   1.209   0.009  0.00  0.00    +0.540 C 
ATOM      3  N   LIG    1       -1.191   1.867   0.018  0.00  0.00    -0.610 N 
ATOM      4  C   LIG    1       -1.413   3.331   0.020  0.00  0.00    +0.310 C 
ATOM      5  C   LIG    1       -2.612   3.547  -0.926  0.00  0.00    +0.010 C 
ATOM      6  C   LIG    1       -3.584   4.512  -0.285  0.00  0.00    +0.540 C 
ATOM      7  N   LIG    1       -4.704   3.859   0.046  0.00  0.00    -0.680 N 
ATOM      8  H   LIG    1       -5.459   4.294   0.472  0.00  0.00    +0.430 HD
ATOM      9  C   LIG    1       -4.697   2.556  -0.258  0.00  0.00    +0.530 C 
ATOM     10  O   LIG    1       -5.606   1.782  -0.045  0.00  0.00    -0.460 OA
ATOM     11  O   LIG    1       -3.381   5.693  -0.100  0.00  0.00    -0.460 OA
ATOM     12  C   LIG    1       -3.370   2.193  -0.921  0.00  0.00    +0.020 C 
ATOM     13  C   LIG    1       -2.555   1.290   0.021  0.00  0.00    +0.320 C 
ENDROOT
BRANCH   2  14
ATOM     14  C   LIG    1        1.280   1.980   0.001  0.00  0.00    -0.010 C 
ATOM     15  C   LIG    1        1.742   2.431   1.398  0.00  0.00    +0.340 C 
ATOM     16  N   LIG    1        2.477   1.149   1.461  0.00  0.00    -0.540 N 
ATOM     17  H   LIG    1        1.932   0.402   1.865  0.00  0.00    +0.440 HD
ATOM     18  H   LIG    1        3.388   1.238   1.886  0.00  0.00    +0.430 HD
ATOM     19  C   LIG    1        2.534   1.086  -0.016  0.00  0.00    +0.350 C 
ENDBRANCH   2  14
TORSDOF 1
ENDMDL
MODEL      377
REMARK  Name = ZINC000386976603
REMARK                            x       y       z     vdW  Elec       q    Type
REMARK                         _______ _______ _______ _____ _____    ______ ____
ROOT
ATOM      1  O   LIG    1        0.003   0.014   0.215  0.00  0.00    -0.510 OA
ATOM      2  C   LIG    1       -0.014   1.209   0.009  0.00  0.00    +0.530 C 
ATOM      3  N   LIG    1       -1.185   1.835  -0.223  0.00  0.00    -0.610 N 
ATOM      4  C   LIG    1       -1.355   3.278  -0.596  0.00  0.00    +0.360 C 
ATOM      5  C   LIG    1       -2.739   3.547  -0.160  0.00  0.00    -0.060 C 
ATOM      6  C   LIG    1       -3.765   4.551  -0.323  0.00  0.00    +0.580 C 
ATOM      7  N   LIG    1       -4.939   3.897  -0.039  0.00  0.00    -0.710 N 
ATOM      8  H   LIG    1       -5.781   4.351   0.122  0.00  0.00    +0.430 HD
ATOM      9  C   LIG    1       -4.792   2.539  -0.006  0.00  0.00    +0.550 C 
ATOM     10  O   LIG    1       -5.553   1.730   0.478  0.00  0.00    -0.440 OA
ATOM     11  O   LIG    1       -3.622   5.711  -0.642  0.00  0.00    -0.440 OA
ATOM     12  C   LIG    1       -3.490   2.271  -0.719  0.00  0.00    +0.010 C 
ATOM     13  C   LIG    1       -2.539   1.216  -0.161  0.00  0.00    +0.330 C 
ENDROOT
BRANCH   2  14
ATOM     14  C   LIG    1        1.273   1.992   0.005  0.00  0.00    +0.180 C 
ATOM     15  C   LIG    1        1.605   2.492   1.433  0.00  0.00    +0.110 C 
ATOM     16  C   LIG    1        3.143   2.674   1.352  0.00  0.00    +0.090 C 
ATOM     17  C   LIG    1        3.583   1.513   0.435  0.00  0.00    +0.270 C 
ATOM     18  N   LIG    1        2.406   1.117  -0.364  0.00  0.00    -0.500 N 
ATOM     19  H   LIG    1        2.612   1.222  -1.346  0.00  0.00    +0.440 HD
ATOM     20  H   LIG    1        2.170   0.156  -0.167  0.00  0.00    +0.440 HD
ENDBRANCH   2  14
TORSDOF 1
ENDMDL
MODEL      378
REMARK  Name = ZINC000387108509
REMARK                            x       y       z     vdW  Elec       q    Type
REMARK                         _______ _______ _______ _____ _____    ______ ____
ROOT
ATOM      1  O   LIG    1        0.002  -0.004   0.002  0.00  0.00    -0.520 OA
ATOM      2  C   LIG    1       -0.014   1.209   0.009  0.00  0.00    +0.540 C 
ATOM      3  N   LIG    1       -1.191   1.867   0.018  0.00  0.00    -0.620 N 
ATOM      4  C   LIG    1       -1.369   3.356   0.020  0.00  0.00    +0.340 C 
ATOM      5  C   LIG    1       -2.717   3.502   0.603  0.00  0.00    -0.070 C 
ATOM      6  C   LIG    1       -3.740   4.510   0.760  0.00  0.00    +0.580 C 
ATOM      7  N   LIG    1       -4.899   3.801   0.958  0.00  0.00    -0.710 N 
ATOM      8  H   LIG    1       -5.723   4.197   1.282  0.00  0.00    +0.430 HD
ATOM      9  C   LIG    1       -4.766   2.476   0.648  0.00  0.00    +0.550 C 
ATOM     10  O   LIG    1       -5.502   1.569   0.972  0.00  0.00    -0.440 OA
ATOM     11  O   LIG    1       -3.606   5.714   0.726  0.00  0.00    -0.450 OA
ATOM     12  C   LIG    1       -3.519   2.397  -0.197  0.00  0.00    +0.000 C 
ATOM     13  C   LIG    1       -2.544   1.243   0.021  0.00  0.00    +0.320 C 
ENDROOT
BRANCH   2  14
ATOM     14  C   LIG    1        1.280   1.980   0.001  0.00  0.00    -0.010 C 
ATOM     15  C   LIG    1        1.742   2.431   1.398  0.00  0.00    +0.340 C 
ATOM     16  N   LIG    1        2.477   1.149   1.461  0.00  0.00    -0.540 N 
ATOM     17  H   LIG    1        1.932   0.402   1.865  0.00  0.00    +0.440 HD
ATOM     18  H   LIG    1        3.388   1.238   1.886  0.00  0.00    +0.430 HD
ATOM     19  C   LIG    1        2.534   1.086  -0.016  0.00  0.00    +0.350 C 
ENDBRANCH   2  14
TORSDOF 1
ENDMDL
MODEL      379
REMARK  Name = ZINC000387180514
REMARK                            x       y       z     vdW  Elec       q    Type
REMARK                         _______ _______ _______ _____ _____    ______ ____
ROOT
ATOM      1  C   LIG    1        0.710  -1.985  -1.215  0.00  0.00    +0.520 C 
ATOM      2  N   LIG    1        1.293  -2.645  -2.235  0.00  0.00    -0.610 N 
ATOM      3  C   LIG    1        1.964  -2.026  -3.420  0.00  0.00    +0.340 C 
ATOM      4  C   LIG    1        2.538  -3.167  -4.151  0.00  0.00    -0.060 C 
ATOM      5  C   LIG    1        2.993  -3.501  -5.482  0.00  0.00    +0.580 C 
ATOM      6  N   LIG    1        2.995  -4.874  -5.511  0.00  0.00    -0.710 N 
ATOM      7  H   LIG    1        3.428  -5.396  -6.205  0.00  0.00    +0.430 HD
ATOM      8  C   LIG    1        2.321  -5.425  -4.458  0.00  0.00    +0.550 C 
ATOM      9  O   LIG    1        2.386  -6.570  -4.066  0.00  0.00    -0.440 OA
ATOM     10  O   LIG    1        3.303  -2.740  -6.373  0.00  0.00    -0.450 OA
ATOM     11  C   LIG    1        1.470  -4.308  -3.907  0.00  0.00    +0.010 C 
ATOM     12  C   LIG    1        1.393  -4.130  -2.384  0.00  0.00    +0.340 C 
ATOM     13  O   LIG    1        0.202  -2.603  -0.304  0.00  0.00    -0.520 OA
ENDROOT
BRANCH   1  14
ATOM     14  C   LIG    1        0.690  -0.478  -1.207  0.00  0.00    +0.290 C 
BRANCH  14  16
ATOM     15  C   LIG    1       -0.018   1.465   0.010  0.00  0.00    +0.340 C 
ATOM     16  N   LIG    1        0.002  -0.004   0.002  0.00  0.00    -0.500 N 
ATOM     17  H   LIG    1       -0.945  -0.353   0.009  0.00  0.00    +0.440 HD
ATOM     18  H   LIG    1        0.490  -0.338   0.820  0.00  0.00    +0.440 HD
ENDBRANCH  14  16
ENDBRANCH   1  14
TORSDOF 2
ENDMDL
MODEL      380
REMARK  Name = ZINC000395946670
REMARK                            x       y       z     vdW  Elec       q    Type
REMARK                         _______ _______ _______ _____ _____    ______ ____
ROOT
ATOM      1  C   LIG    1       -1.295  -0.603   0.011  0.00  0.00    +0.170 C 
ATOM      2  C   LIG    1       -1.737  -0.948   1.455  0.00  0.00    +0.280 C 
ATOM      3  N   LIG    1       -2.710  -2.045   1.300  0.00  0.00    -0.590 N 
ATOM      4  C   LIG    1       -2.446  -2.733   0.028  0.00  0.00    +0.230 C 
ATOM      5  C   LIG    1       -3.681  -2.364   2.179  0.00  0.00    +0.520 C 
ATOM      6  O   LIG    1       -3.808  -1.724   3.201  0.00  0.00    -0.520 OA
ATOM      7  C   LIG    1       -1.265  -2.006  -0.650  0.00  0.00    +0.200 C 
ENDROOT
BRANCH   5   8
ATOM      8  C   LIG    1       -4.609  -3.516   1.891  0.00  0.00    +0.180 C 
ATOM      9  C   LIG    1       -3.815  -4.844   1.822  0.00  0.00    +0.100 C 
ATOM     10  C   LIG    1       -4.916  -5.885   2.157  0.00  0.00    +0.090 C 
ATOM     11  C   LIG    1       -5.789  -5.146   3.194  0.00  0.00    +0.270 C 
ATOM     12  N   LIG    1       -5.563  -3.700   3.005  0.00  0.00    -0.500 N 
ATOM     13  H   LIG    1       -6.436  -3.245   2.785  0.00  0.00    +0.440 HD
ATOM     14  H   LIG    1       -5.177  -3.304   3.849  0.00  0.00    +0.440 HD
ENDBRANCH   5   8
BRANCH   1  16
ATOM     15  C   LIG    1       -0.017   1.425   0.010  0.00  0.00    +0.230 C 
ATOM     16  O   LIG    1        0.002  -0.004   0.002  0.00  0.00    -0.370 OA
ENDBRANCH   1  16
BRANCH   7  17
ATOM     17  O   LIG    1       -1.473  -1.910  -2.061  0.00  0.00    -0.540 OA
ATOM     18  H   LIG    1       -1.537  -2.765  -2.508  0.00  0.00    +0.390 HD
ENDBRANCH   7  17
TORSDOF 3
ENDMDL
MODEL      381
REMARK  Name = ZINC000395946667
REMARK                            x       y       z     vdW  Elec       q    Type
REMARK                         _______ _______ _______ _____ _____    ______ ____
ROOT
ATOM      1  C   LIG    1       -1.295  -0.603   0.011  0.00  0.00    +0.170 C 
ATOM      2  C   LIG    1       -1.737  -0.948   1.455  0.00  0.00    +0.280 C 
ATOM      3  N   LIG    1       -2.710  -2.045   1.300  0.00  0.00    -0.590 N 
ATOM      4  C   LIG    1       -2.446  -2.733   0.028  0.00  0.00    +0.240 C 
ATOM      5  C   LIG    1       -3.681  -2.364   2.179  0.00  0.00    +0.520 C 
ATOM      6  O   LIG    1       -3.808  -1.724   3.201  0.00  0.00    -0.520 OA
ATOM      7  C   LIG    1       -1.265  -2.006  -0.650  0.00  0.00    +0.200 C 
ENDROOT
BRANCH   5   8
ATOM      8  C   LIG    1       -4.609  -3.516   1.891  0.00  0.00    +0.180 C 
ATOM      9  C   LIG    1       -5.407  -3.237   0.599  0.00  0.00    +0.080 C 
ATOM     10  C   LIG    1       -6.814  -3.800   0.930  0.00  0.00    +0.090 C 
ATOM     11  C   LIG    1       -6.943  -3.457   2.435  0.00  0.00    +0.270 C 
ATOM     12  N   LIG    1       -5.584  -3.661   2.987  0.00  0.00    -0.500 N 
ATOM     13  H   LIG    1       -5.398  -2.969   3.697  0.00  0.00    +0.440 HD
ATOM     14  H   LIG    1       -5.515  -4.585   3.387  0.00  0.00    +0.440 HD
ENDBRANCH   5   8
BRANCH   1  16
ATOM     15  C   LIG    1       -0.017   1.425   0.010  0.00  0.00    +0.230 C 
ATOM     16  O   LIG    1        0.002  -0.004   0.002  0.00  0.00    -0.370 OA
ENDBRANCH   1  16
BRANCH   7  17
ATOM     17  O   LIG    1       -1.473  -1.910  -2.061  0.00  0.00    -0.540 OA
ATOM     18  H   LIG    1       -1.537  -2.765  -2.508  0.00  0.00    +0.390 HD
ENDBRANCH   7  17
TORSDOF 3
ENDMDL
MODEL      382
REMARK  Name = ZINC000409424013
REMARK                            x       y       z     vdW  Elec       q    Type
REMARK                         _______ _______ _______ _____ _____    ______ ____
ROOT
ATOM      1  N   LIG    1       -1.372  -0.511   0.012  0.00  0.00    -0.600 N 
ATOM      2  C   LIG    1       -2.077  -0.775   1.161  0.00  0.00    +0.570 C 
ATOM      3  C   LIG    1       -3.222  -1.534   0.724  0.00  0.00    -0.060 C 
ATOM      4  C   LIG    1       -4.577  -1.905   1.167  0.00  0.00    +0.270 C 
ATOM      5  N   LIG    1       -5.154  -2.531  -0.073  0.00  0.00    -0.520 NA
ATOM      6  C   LIG    1       -4.395  -2.003  -1.246  0.00  0.00    +0.240 C 
ATOM      7  C   LIG    1       -3.527  -0.871  -0.678  0.00  0.00    -0.020 C 
ATOM      8  O   LIG    1       -1.798  -0.442   2.293  0.00  0.00    -0.450 OA
ATOM      9  C   LIG    1       -2.093  -0.767  -1.120  0.00  0.00    +0.550 C 
ATOM     10  O   LIG    1       -1.663  -0.899  -2.245  0.00  0.00    -0.450 OA
ENDROOT
BRANCH   1  12
ATOM     11  C   LIG    1       -0.019   1.526   0.010  0.00  0.00    +0.030 C 
ATOM     12  C   LIG    1        0.002  -0.004   0.002  0.00  0.00    +0.300 C 
ENDBRANCH   1  12
BRANCH   5  13
ATOM     13  C   LIG    1       -6.587  -2.233  -0.196  0.00  0.00    +0.180 C 
BRANCH  13  14
ATOM     14  C   LIG    1       -7.190  -3.080  -1.318  0.00  0.00    +0.270 C 
BRANCH  14  15
ATOM     15  N   LIG    1       -8.623  -2.782  -1.441  0.00  0.00    -0.640 N 
ATOM     16  H   LIG    1       -8.746  -1.804  -1.655  0.00  0.00    +0.440 HD
ATOM     17  H   LIG    1       -9.087  -2.997  -0.571  0.00  0.00    +0.440 HD
ATOM     18  H   LIG    1       -9.021  -3.341  -2.181  0.00  0.00    +0.440 HD
ENDBRANCH  14  15
ENDBRANCH  13  14
ENDBRANCH   5  13
TORSDOF 4
ENDMDL
MODEL      383
REMARK  Name = ZINC000409424012
REMARK                            x       y       z     vdW  Elec       q    Type
REMARK                         _______ _______ _______ _____ _____    ______ ____
ROOT
ATOM      1  N   LIG    1       -1.372  -0.511   0.012  0.00  0.00    -0.570 N 
ATOM      2  C   LIG    1       -2.042  -0.762   1.143  0.00  0.00    +0.530 C 
ATOM      3  C   LIG    1       -3.425  -1.271   0.804  0.00  0.00    +0.030 C 
ATOM      4  C   LIG    1       -4.471  -0.218   1.224  0.00  0.00    +0.220 C 
ATOM      5  N   LIG    1       -5.393  -0.118   0.064  0.00  0.00    -0.500 NA
ATOM      6  C   LIG    1       -4.499  -0.191  -1.119  0.00  0.00    +0.210 C 
ATOM      7  C   LIG    1       -3.438  -1.270  -0.748  0.00  0.00    +0.030 C 
ATOM      8  O   LIG    1       -1.609  -0.606   2.264  0.00  0.00    -0.460 OA
ATOM      9  C   LIG    1       -2.062  -0.756  -1.108  0.00  0.00    +0.530 C 
ATOM     10  O   LIG    1       -1.652  -0.582  -2.235  0.00  0.00    -0.470 OA
ENDROOT
BRANCH   1  12
ATOM     11  C   LIG    1       -0.019   1.526   0.010  0.00  0.00    +0.030 C 
ATOM     12  C   LIG    1        0.002  -0.004   0.002  0.00  0.00    +0.290 C 
ENDBRANCH   1  12
BRANCH   5  13
ATOM     13  C   LIG    1       -6.133   1.151   0.087  0.00  0.00    +0.180 C 
BRANCH  13  14
ATOM     14  C   LIG    1       -7.241   1.115  -0.967  0.00  0.00    +0.270 C 
BRANCH  14  15
ATOM     15  N   LIG    1       -7.981   2.384  -0.944  0.00  0.00    -0.640 N 
ATOM     16  H   LIG    1       -7.349   3.145  -1.145  0.00  0.00    +0.440 HD
ATOM     17  H   LIG    1       -8.389   2.518  -0.031  0.00  0.00    +0.440 HD
ATOM     18  H   LIG    1       -8.711   2.360  -1.639  0.00  0.00    +0.440 HD
ENDBRANCH  14  15
ENDBRANCH  13  14
ENDBRANCH   5  13
TORSDOF 4
ENDMDL
MODEL      384
REMARK  Name = ZINC000409423946
REMARK                            x       y       z     vdW  Elec       q    Type
REMARK                         _______ _______ _______ _____ _____    ______ ____
ROOT
ATOM      1  C   LIG    1       -0.018   1.461   0.010  0.00  0.00    +0.320 C 
ATOM      2  N   LIG    1        0.002  -0.004   0.002  0.00  0.00    -0.570 N 
ATOM      3  C   LIG    1        0.007  -0.722  -1.127  0.00  0.00    +0.530 C 
ATOM      4  C   LIG    1        0.028  -2.195  -0.786  0.00  0.00    +0.030 C 
ATOM      5  C   LIG    1        1.387  -2.793  -1.207  0.00  0.00    +0.240 C 
ATOM      6  N   LIG    1        1.812  -3.616  -0.046  0.00  0.00    -0.500 NA
ATOM      7  C   LIG    1        1.424  -2.806   1.137  0.00  0.00    +0.210 C 
ATOM      8  C   LIG    1        0.035  -2.203   0.766  0.00  0.00    +0.030 C 
ATOM      9  O   LIG    1       -0.004  -0.262  -2.249  0.00  0.00    -0.460 OA
ATOM     10  C   LIG    1        0.023  -0.734   1.123  0.00  0.00    +0.530 C 
ATOM     11  O   LIG    1        0.039  -0.286   2.250  0.00  0.00    -0.460 OA
ENDROOT
BRANCH   6  12
ATOM     12  C   LIG    1        3.262  -3.851  -0.070  0.00  0.00    +0.300 C 
BRANCH  12  13
ATOM     13  C   LIG    1        3.621  -4.881   0.970  0.00  0.00    +0.570 C 
ATOM     14  N   LIG    1        3.631  -6.137   0.660  0.00  0.00    -0.700 N 
ATOM     15  H   LIG    1        3.407  -6.415  -0.242  0.00  0.00    +0.450 HD
ATOM     16  H   LIG    1        3.862  -6.800   1.329  0.00  0.00    +0.440 HD
BRANCH  13  17
ATOM     17  N   LIG    1        3.938  -4.487   2.243  0.00  0.00    -0.540 N 
ATOM     18  H   LIG    1        3.931  -3.546   2.475  0.00  0.00    +0.450 HD
BRANCH  17  19
ATOM     19  O   LIG    1        4.276  -5.455   3.220  0.00  0.00    -0.310 OA
ATOM     20  H   LIG    1        4.483  -5.082   4.088  0.00  0.00    +0.430 HD
ENDBRANCH  17  19
ENDBRANCH  13  17
ENDBRANCH  12  13
ENDBRANCH   6  12
TORSDOF 4
ENDMDL
MODEL      385
REMARK  Name = ZINC000409424165
REMARK                            x       y       z     vdW  Elec       q    Type
REMARK                         _______ _______ _______ _____ _____    ______ ____
ROOT
ATOM      1  C   LIG    1       -0.018   1.461   0.010  0.00  0.00    +0.330 C 
ATOM      2  N   LIG    1        0.002  -0.004   0.002  0.00  0.00    -0.600 N 
ATOM      3  C   LIG    1        0.007  -0.760  -1.144  0.00  0.00    +0.570 C 
ATOM      4  C   LIG    1        0.383  -2.102  -0.706  0.00  0.00    -0.050 C 
ATOM      5  C   LIG    1        0.073  -3.467  -1.200  0.00  0.00    +0.340 C 
ATOM      6  N   LIG    1        0.099  -4.326   0.025  0.00  0.00    -0.620 N 
ATOM      7  C   LIG    1        0.256  -3.422   1.209  0.00  0.00    +0.330 C 
ATOM      8  C   LIG    1        0.000  -5.670   0.057  0.00  0.00    +0.540 C 
ATOM      9  O   LIG    1       -0.124  -6.293  -0.976  0.00  0.00    -0.520 OA
ATOM     10  C   LIG    1       -0.351  -2.134   0.694  0.00  0.00    -0.020 C 
ATOM     11  O   LIG    1       -0.244  -0.394  -2.272  0.00  0.00    -0.440 OA
ATOM     12  C   LIG    1        0.023  -0.771   1.137  0.00  0.00    +0.560 C 
ATOM     13  O   LIG    1        0.297  -0.413   2.263  0.00  0.00    -0.450 OA
ENDROOT
BRANCH   8  14
ATOM     14  C   LIG    1        0.043  -6.397   1.376  0.00  0.00    +0.070 C 
BRANCH  14  15
ATOM     15  C   LIG    1       -0.089  -7.902   1.133  0.00  0.00    +0.290 C 
BRANCH  15  16
ATOM     16  N   LIG    1       -0.046  -8.611   2.418  0.00  0.00    -0.640 N 
ATOM     17  H   LIG    1        0.831  -8.421   2.879  0.00  0.00    +0.440 HD
ATOM     18  H   LIG    1       -0.134  -9.604   2.258  0.00  0.00    +0.440 HD
ATOM     19  H   LIG    1       -0.808  -8.297   3.001  0.00  0.00    +0.440 HD
ENDBRANCH  15  16
ENDBRANCH  14  15
ENDBRANCH   8  14
TORSDOF 3
ENDMDL
MODEL      386
REMARK  Name = ZINC000409424164
REMARK                            x       y       z     vdW  Elec       q    Type
REMARK                         _______ _______ _______ _____ _____    ______ ____
ROOT
ATOM      1  C   LIG    1       -0.018   1.461   0.010  0.00  0.00    +0.310 C 
ATOM      2  N   LIG    1        0.002  -0.004   0.002  0.00  0.00    -0.570 N 
ATOM      3  C   LIG    1        0.007  -0.722  -1.127  0.00  0.00    +0.530 C 
ATOM      4  C   LIG    1        0.029  -2.195  -0.786  0.00  0.00    +0.020 C 
ATOM      5  C   LIG    1        1.389  -2.792  -1.205  0.00  0.00    +0.330 C 
ATOM      6  N   LIG    1        2.280  -2.546  -0.049  0.00  0.00    -0.630 N 
ATOM      7  C   LIG    1        1.427  -2.804   1.134  0.00  0.00    +0.310 C 
ATOM      8  C   LIG    1        3.575  -2.171  -0.068  0.00  0.00    +0.540 C 
ATOM      9  O   LIG    1        4.140  -1.996  -1.127  0.00  0.00    -0.520 OA
ATOM     10  C   LIG    1        0.036  -2.203   0.766  0.00  0.00    +0.020 C 
ATOM     11  O   LIG    1       -0.004  -0.262  -2.249  0.00  0.00    -0.460 OA
ATOM     12  C   LIG    1        0.023  -0.734   1.123  0.00  0.00    +0.530 C 
ATOM     13  O   LIG    1        0.039  -0.286   2.250  0.00  0.00    -0.470 OA
ENDROOT
BRANCH   8  14
ATOM     14  C   LIG    1        4.320  -1.968   1.226  0.00  0.00    +0.070 C 
BRANCH  14  15
ATOM     15  C   LIG    1        5.760  -1.548   0.926  0.00  0.00    +0.300 C 
BRANCH  15  16
ATOM     16  N   LIG    1        6.486  -1.351   2.187  0.00  0.00    -0.640 N 
ATOM     17  H   LIG    1        6.032  -0.630   2.728  0.00  0.00    +0.440 HD
ATOM     18  H   LIG    1        7.436  -1.074   1.989  0.00  0.00    +0.440 HD
ATOM     19  H   LIG    1        6.490  -2.213   2.712  0.00  0.00    +0.440 HD
ENDBRANCH  15  16
ENDBRANCH  14  15
ENDBRANCH   8  14
TORSDOF 3
ENDMDL
MODEL      387
REMARK  Name = ZINC000409424817
REMARK                            x       y       z     vdW  Elec       q    Type
REMARK                         _______ _______ _______ _____ _____    ______ ____
ROOT
ATOM      1  C   LIG    1       -0.018   1.461   0.010  0.00  0.00    +0.320 C 
ATOM      2  N   LIG    1        0.002  -0.004   0.002  0.00  0.00    -0.600 N 
ATOM      3  C   LIG    1        0.007  -0.760  -1.144  0.00  0.00    +0.570 C 
ATOM      4  C   LIG    1        0.382  -2.102  -0.706  0.00  0.00    -0.060 C 
ATOM      5  C   LIG    1        0.070  -3.466  -1.202  0.00  0.00    +0.250 C 
ATOM      6  N   LIG    1        0.095  -4.329   0.024  0.00  0.00    -0.520 NA
ATOM      7  C   LIG    1        0.254  -3.422   1.211  0.00  0.00    +0.230 C 
ATOM      8  C   LIG    1       -0.352  -2.134   0.694  0.00  0.00    -0.010 C 
ATOM      9  O   LIG    1       -0.243  -0.394  -2.272  0.00  0.00    -0.450 OA
ATOM     10  C   LIG    1        0.023  -0.771   1.137  0.00  0.00    +0.550 C 
ATOM     11  O   LIG    1        0.297  -0.413   2.263  0.00  0.00    -0.460 OA
ENDROOT
BRANCH   6  12
ATOM     12  C   LIG    1        1.190  -5.306  -0.042  0.00  0.00    +0.190 C 
BRANCH  12  13
ATOM     13  C   LIG    1        1.037  -6.322   1.092  0.00  0.00    +0.040 C 
BRANCH  13  14
ATOM     14  C   LIG    1        2.178  -7.339   1.023  0.00  0.00    +0.260 C 
BRANCH  14  15
ATOM     15  N   LIG    1        2.031  -8.314   2.112  0.00  0.00    -0.640 N 
ATOM     16  H   LIG    1        1.147  -8.793   2.017  0.00  0.00    +0.440 HD
ATOM     17  H   LIG    1        2.061  -7.835   2.999  0.00  0.00    +0.440 HD
ATOM     18  H   LIG    1        2.783  -8.985   2.066  0.00  0.00    +0.440 HD
ENDBRANCH  14  15
ENDBRANCH  13  14
ENDBRANCH  12  13
ENDBRANCH   6  12
TORSDOF 4
ENDMDL
MODEL      388
REMARK  Name = ZINC000409425027
REMARK                            x       y       z     vdW  Elec       q    Type
REMARK                         _______ _______ _______ _____ _____    ______ ____
ROOT
ATOM      1  C   LIG    1        0.707  -0.490  -1.238  0.00  0.00    +0.500 C 
ATOM      2  N   LIG    1        0.083  -0.430  -2.431  0.00  0.00    -0.580 N 
ATOM      3  C   LIG    1       -1.265   0.113  -2.493  0.00  0.00    +0.310 C 
ATOM      4  C   LIG    1       -2.173  -0.801  -3.291  0.00  0.00    +0.080 C 
ATOM      5  C   LIG    1       -1.569  -1.387  -4.516  0.00  0.00    +0.000 C 
ATOM      6  C   LIG    1       -1.839  -0.625  -5.785  0.00  0.00    +0.530 C 
ATOM      7  N   LIG    1       -0.736  -0.689  -6.550  0.00  0.00    -0.580 N 
ATOM      8  C   LIG    1        0.296  -1.325  -5.978  0.00  0.00    +0.530 C 
ATOM      9  O   LIG    1        1.363  -1.556  -6.506  0.00  0.00    -0.460 OA
ATOM     10  C   LIG    1       -0.667  -0.112  -7.895  0.00  0.00    +0.320 C 
ATOM     11  O   LIG    1       -2.870  -0.053  -6.068  0.00  0.00    -0.450 OA
ATOM     12  C   LIG    1       -0.088  -1.688  -4.563  0.00  0.00    +0.010 C 
ATOM     13  C   LIG    1        0.778  -0.902  -3.609  0.00  0.00    +0.300 C 
ATOM     14  O   LIG    1        0.112  -0.186  -0.226  0.00  0.00    -0.510 OA
ENDROOT
BRANCH   1  16
ATOM     15  C   LIG    1        2.202  -2.458  -1.036  0.00  0.00    +0.130 C 
ATOM     16  C   LIG    1        2.145  -0.934  -1.161  0.00  0.00    +0.160 C 
BRANCH  16  17
ATOM     17  N   LIG    1        2.785  -0.323   0.011  0.00  0.00    -0.620 N 
ATOM     18  H   LIG    1        2.748   0.682  -0.071  0.00  0.00    +0.440 HD
ATOM     19  H   LIG    1        3.748  -0.620   0.062  0.00  0.00    +0.440 HD
ATOM     20  H   LIG    1        2.300  -0.610   0.848  0.00  0.00    +0.440 HD
ENDBRANCH  16  17
ENDBRANCH   1  16
TORSDOF 2
ENDMDL
MODEL      389
REMARK  Name = ZINC000409425024
REMARK                            x       y       z     vdW  Elec       q    Type
REMARK                         _______ _______ _______ _____ _____    ______ ____
ROOT
ATOM      1  C   LIG    1        0.707  -0.490  -1.238  0.00  0.00    +0.500 C 
ATOM      2  N   LIG    1        0.053  -0.526  -2.415  0.00  0.00    -0.590 N 
ATOM      3  C   LIG    1       -1.343  -0.084  -2.476  0.00  0.00    +0.270 C 
ATOM      4  C   LIG    1       -2.206  -1.080  -3.281  0.00  0.00    +0.090 C 
ATOM      5  C   LIG    1       -1.482  -1.302  -4.591  0.00  0.00    -0.010 C 
ATOM      6  C   LIG    1       -2.070  -2.238  -5.600  0.00  0.00    +0.540 C 
ATOM      7  N   LIG    1       -1.017  -2.831  -6.222  0.00  0.00    -0.590 N 
ATOM      8  C   LIG    1        0.170  -2.628  -5.590  0.00  0.00    +0.540 C 
ATOM      9  O   LIG    1        1.278  -2.854  -6.027  0.00  0.00    -0.450 OA
ATOM     10  C   LIG    1       -1.147  -3.614  -7.454  0.00  0.00    +0.330 C 
ATOM     11  O   LIG    1       -3.248  -2.428  -5.818  0.00  0.00    -0.450 OA
ATOM     12  C   LIG    1       -0.158  -2.048  -4.241  0.00  0.00    -0.020 C 
ATOM     13  C   LIG    1        0.759  -1.006  -3.625  0.00  0.00    +0.360 C 
ATOM     14  O   LIG    1        1.864  -0.849  -1.176  0.00  0.00    -0.520 OA
ENDROOT
BRANCH   1  16
ATOM     15  C   LIG    1       -0.019   1.526   0.010  0.00  0.00    +0.120 C 
ATOM     16  C   LIG    1        0.002  -0.004   0.002  0.00  0.00    +0.170 C 
BRANCH  16  17
ATOM     17  N   LIG    1        0.713  -0.491   1.192  0.00  0.00    -0.620 N 
ATOM     18  H   LIG    1        0.726  -1.500   1.187  0.00  0.00    +0.440 HD
ATOM     19  H   LIG    1        0.240  -0.165   2.022  0.00  0.00    +0.440 HD
ATOM     20  H   LIG    1        1.659  -0.141   1.185  0.00  0.00    +0.440 HD
ENDBRANCH  16  17
ENDBRANCH   1  16
TORSDOF 2
ENDMDL
MODEL      390
REMARK  Name = ZINC000409425028
REMARK                            x       y       z     vdW  Elec       q    Type
REMARK                         _______ _______ _______ _____ _____    ______ ____
ROOT
ATOM      1  C   LIG    1        0.707  -0.490  -1.238  0.00  0.00    +0.500 C 
ATOM      2  N   LIG    1        0.053  -0.526  -2.415  0.00  0.00    -0.590 N 
ATOM      3  C   LIG    1       -1.343  -0.085  -2.479  0.00  0.00    +0.280 C 
ATOM      4  C   LIG    1       -1.582   0.843  -3.688  0.00  0.00    +0.090 C 
ATOM      5  C   LIG    1       -1.000   0.143  -4.894  0.00  0.00    -0.010 C 
ATOM      6  C   LIG    1       -1.048   0.818  -6.229  0.00  0.00    +0.540 C 
ATOM      7  N   LIG    1        0.081   0.435  -6.883  0.00  0.00    -0.590 N 
ATOM      8  C   LIG    1        0.993  -0.173  -6.079  0.00  0.00    +0.550 C 
ATOM      9  O   LIG    1        1.974  -0.794  -6.429  0.00  0.00    -0.450 OA
ATOM     10  C   LIG    1        0.294   0.657  -8.316  0.00  0.00    +0.330 C 
ATOM     11  O   LIG    1       -1.916   1.556  -6.642  0.00  0.00    -0.450 OA
ATOM     12  C   LIG    1        0.540   0.070  -4.669  0.00  0.00    -0.020 C 
ATOM     13  C   LIG    1        0.757  -1.006  -3.629  0.00  0.00    +0.360 C 
ATOM     14  O   LIG    1        1.864  -0.849  -1.176  0.00  0.00    -0.520 OA
ENDROOT
BRANCH   1  16
ATOM     15  C   LIG    1       -0.019   1.526   0.010  0.00  0.00    +0.110 C 
ATOM     16  C   LIG    1        0.002  -0.004   0.002  0.00  0.00    +0.180 C 
BRANCH  16  17
ATOM     17  N   LIG    1        0.713  -0.491   1.192  0.00  0.00    -0.620 N 
ATOM     18  H   LIG    1        0.726  -1.500   1.187  0.00  0.00    +0.440 HD
ATOM     19  H   LIG    1        0.240  -0.165   2.022  0.00  0.00    +0.440 HD
ATOM     20  H   LIG    1        1.659  -0.141   1.185  0.00  0.00    +0.440 HD
ENDBRANCH  16  17
ENDBRANCH   1  16
TORSDOF 2
ENDMDL
MODEL      391
REMARK  Name = ZINC000409425257
REMARK                            x       y       z     vdW  Elec       q    Type
REMARK                         _______ _______ _______ _____ _____    ______ ____
ROOT
ATOM      1  C   LIG    1       -0.018   1.461   0.010  0.00  0.00    +0.340 C 
ATOM      2  N   LIG    1        0.002  -0.004   0.002  0.00  0.00    -0.580 N 
ATOM      3  C   LIG    1        0.007  -0.725  -1.128  0.00  0.00    +0.520 C 
ATOM      4  C   LIG    1       -0.048  -2.204  -0.769  0.00  0.00    +0.030 C 
ATOM      5  C   LIG    1       -1.349  -2.770  -1.292  0.00  0.00    +0.090 C 
ATOM      6  C   LIG    1       -1.976  -3.821  -0.408  0.00  0.00    +0.270 C 
ATOM      7  N   LIG    1       -2.075  -3.388   0.975  0.00  0.00    -0.370 N 
ATOM      8  C   LIG    1       -0.778  -3.090   1.548  0.00  0.00    +0.310 C 
ATOM      9  H   LIG    1       -2.512  -4.118   1.517  0.00  0.00    +0.440 HD
ATOM     10  C   LIG    1        0.106  -2.192   0.739  0.00  0.00    +0.010 C 
ATOM     11  O   LIG    1        0.048  -0.273  -2.252  0.00  0.00    -0.440 OA
ATOM     12  C   LIG    1        0.023  -0.738   1.126  0.00  0.00    +0.520 C 
ATOM     13  O   LIG    1       -0.033  -0.306   2.258  0.00  0.00    -0.450 OA
ENDROOT
BRANCH   7  14
ATOM     14  C   LIG    1       -2.910  -2.181   1.039  0.00  0.00    +0.250 C 
BRANCH  14  15
ATOM     15  C   LIG    1       -4.339  -2.527   0.613  0.00  0.00    +0.220 C 
BRANCH  15  16
ATOM     16  O   LIG    1       -4.911  -3.433   1.559  0.00  0.00    -0.580 OA
ATOM     17  H   LIG    1       -5.818  -3.696   1.352  0.00  0.00    +0.410 HD
ENDBRANCH  15  16
ENDBRANCH  14  15
ENDBRANCH   7  14
TORSDOF 3
ENDMDL
MODEL      392
REMARK  Name = ZINC000409425256
REMARK                            x       y       z     vdW  Elec       q    Type
REMARK                         _______ _______ _______ _____ _____    ______ ____
ROOT
ATOM      1  C   LIG    1       -0.018   1.461   0.010  0.00  0.00    +0.340 C 
ATOM      2  N   LIG    1        0.002  -0.004   0.002  0.00  0.00    -0.570 N 
ATOM      3  C   LIG    1        0.007  -0.726  -1.130  0.00  0.00    +0.530 C 
ATOM      4  C   LIG    1       -0.043  -2.186  -0.759  0.00  0.00    +0.010 C 
ATOM      5  C   LIG    1        0.866  -3.048  -1.570  0.00  0.00    +0.110 C 
ATOM      6  C   LIG    1        2.192  -3.370  -0.917  0.00  0.00    +0.260 C 
ATOM      7  N   LIG    1        2.023  -3.770   0.470  0.00  0.00    -0.360 N 
ATOM      8  C   LIG    1        1.410  -2.737   1.274  0.00  0.00    +0.280 C 
ATOM      9  H   LIG    1        2.928  -3.992   0.858  0.00  0.00    +0.440 HD
ATOM     10  C   LIG    1        0.113  -2.211   0.749  0.00  0.00    +0.020 C 
ATOM     11  O   LIG    1        0.045  -0.281  -2.257  0.00  0.00    -0.450 OA
ATOM     12  C   LIG    1        0.023  -0.737   1.124  0.00  0.00    +0.530 C 
ATOM     13  O   LIG    1       -0.045  -0.299   2.253  0.00  0.00    -0.450 OA
ENDROOT
BRANCH   7  14
ATOM     14  C   LIG    1        1.179  -4.971   0.519  0.00  0.00    +0.260 C 
BRANCH  14  15
ATOM     15  C   LIG    1        1.907  -6.134  -0.159  0.00  0.00    +0.220 C 
BRANCH  15  16
ATOM     16  O   LIG    1        3.078  -6.465   0.589  0.00  0.00    -0.580 OA
ATOM     17  H   LIG    1        3.590  -7.195   0.216  0.00  0.00    +0.410 HD
ENDBRANCH  15  16
ENDBRANCH  14  15
ENDBRANCH   7  14
TORSDOF 3
ENDMDL
MODEL      393
REMARK  Name = ZINC000409425286
REMARK                            x       y       z     vdW  Elec       q    Type
REMARK                         _______ _______ _______ _____ _____    ______ ____
ROOT
ATOM      1  N   LIG    1        3.501  -2.380  -4.289  0.00  0.00    -0.280 N 
ATOM      2  C   LIG    1        3.703  -3.293  -5.268  0.00  0.00    +0.200 A 
ATOM      3  C   LIG    1        4.813  -3.982  -4.917  0.00  0.00    -0.110 A 
ATOM      4  N   LIG    1        5.231  -3.465  -3.756  0.00  0.00    -0.240 NA
ATOM      5  N   LIG    1        4.435  -2.514  -3.414  0.00  0.00    -0.040 NA
ENDROOT
BRANCH   1   6
ATOM      6  C   LIG    1        2.410  -1.403  -4.238  0.00  0.00    +0.370 C 
BRANCH   6   9
ATOM      7  N   LIG    1        0.796  -0.399  -1.397  0.00  0.00    -1.040 NA
ATOM      8  C   LIG    1        0.416  -0.654  -2.794  0.00  0.00    +0.320 C 
ATOM      9  C   LIG    1        1.659  -1.546  -2.913  0.00  0.00    -0.020 C 
ATOM     10  C   LIG    1        2.192  -0.642  -1.789  0.00  0.00    +0.310 C 
BRANCH   7  12
ATOM     11  C   LIG    1       -0.022   1.810   0.012  0.00  0.00    -0.280 C 
ATOM     12  S   LIG    1        0.002  -0.004   0.002  0.00  0.00    +2.640 S 
ATOM     13  O   LIG    1       -1.309  -0.519  -0.182  0.00  0.00    -0.940 OA
ATOM     14  O   LIG    1        0.845  -0.497   1.035  0.00  0.00    -0.940 OA
ENDBRANCH   7  12
ENDBRANCH   6   9
ENDBRANCH   1   6
BRANCH   3  15
ATOM     15  C   LIG    1        5.453  -5.111  -5.683  0.00  0.00    +0.400 C 
BRANCH  15  16
ATOM     16  N   LIG    1        6.527  -4.579  -6.532  0.00  0.00    -0.640 N 
ATOM     17  H   LIG    1        6.956  -5.335  -7.045  0.00  0.00    +0.440 HD
ATOM     18  H   LIG    1        7.221  -4.129  -5.955  0.00  0.00    +0.440 HD
ATOM     19  H   LIG    1        6.142  -3.909  -7.181  0.00  0.00    +0.430 HD
ENDBRANCH  15  16
ENDBRANCH   3  15
TORSDOF 5
ENDMDL
MODEL      394
REMARK  Name = ZINC000409425254
REMARK                            x       y       z     vdW  Elec       q    Type
REMARK                         _______ _______ _______ _____ _____    ______ ____
ROOT
ATOM      1  C   LIG    1       -0.018   1.461   0.010  0.00  0.00    +0.340 C 
ATOM      2  N   LIG    1        0.002  -0.004   0.002  0.00  0.00    -0.590 N 
ATOM      3  C   LIG    1        0.007  -0.746  -1.140  0.00  0.00    +0.540 C 
ATOM      4  C   LIG    1        0.351  -2.139  -0.722  0.00  0.00    -0.010 C 
ATOM      5  C   LIG    1       -0.239  -3.318  -1.463  0.00  0.00    +0.110 C 
ATOM      6  C   LIG    1        0.234  -4.574  -0.702  0.00  0.00    +0.260 C 
ATOM      7  N   LIG    1       -0.162  -4.554   0.705  0.00  0.00    -0.380 N 
ATOM      8  C   LIG    1        0.291  -3.341   1.418  0.00  0.00    +0.310 C 
ATOM      9  H   LIG    1        0.227  -5.364   1.163  0.00  0.00    +0.440 HD
ATOM     10  C   LIG    1       -0.286  -2.154   0.701  0.00  0.00    -0.030 C 
ATOM     11  O   LIG    1       -0.220  -0.355  -2.265  0.00  0.00    -0.440 OA
ATOM     12  C   LIG    1        0.023  -0.758   1.136  0.00  0.00    +0.560 C 
ATOM     13  O   LIG    1        0.230  -0.373   2.267  0.00  0.00    -0.440 OA
ENDROOT
BRANCH   7  14
ATOM     14  C   LIG    1       -1.627  -4.626   0.784  0.00  0.00    +0.260 C 
BRANCH  14  15
ATOM     15  C   LIG    1       -2.102  -5.975   0.241  0.00  0.00    +0.220 C 
BRANCH  15  16
ATOM     16  O   LIG    1       -1.625  -7.024   1.086  0.00  0.00    -0.580 OA
ATOM     17  H   LIG    1       -1.888  -7.910   0.801  0.00  0.00    +0.410 HD
ENDBRANCH  15  16
ENDBRANCH  14  15
ENDBRANCH   7  14
TORSDOF 3
ENDMDL
MODEL      395
REMARK  Name = ZINC000409425259
REMARK                            x       y       z     vdW  Elec       q    Type
REMARK                         _______ _______ _______ _____ _____    ______ ____
ROOT
ATOM      1  C   LIG    1       -0.018   1.461   0.010  0.00  0.00    +0.340 C 
ATOM      2  N   LIG    1        0.002  -0.004   0.002  0.00  0.00    -0.590 N 
ATOM      3  C   LIG    1       -1.126  -0.767   0.003  0.00  0.00    +0.550 C 
ATOM      4  C   LIG    1       -0.677  -2.157   0.314  0.00  0.00    -0.030 C 
ATOM      5  C   LIG    1       -1.393  -3.346  -0.277  0.00  0.00    +0.320 C 
ATOM      6  N   LIG    1       -0.677  -4.550   0.197  0.00  0.00    -0.380 N 
ATOM      7  C   LIG    1        0.733  -4.568  -0.186  0.00  0.00    +0.250 C 
ATOM      8  C   LIG    1        1.484  -3.303   0.278  0.00  0.00    +0.110 C 
ATOM      9  H   LIG    1       -0.741  -4.590   1.203  0.00  0.00    +0.430 HD
ATOM     10  C   LIG    1        0.741  -2.135  -0.336  0.00  0.00    +0.000 C 
ATOM     11  O   LIG    1       -2.260  -0.395  -0.205  0.00  0.00    -0.440 OA
ATOM     12  C   LIG    1        1.150  -0.736  -0.013  0.00  0.00    +0.540 C 
ATOM     13  O   LIG    1        2.274  -0.335   0.198  0.00  0.00    -0.440 OA
ENDROOT
BRANCH   6  14
ATOM     14  C   LIG    1       -1.332  -5.740  -0.364  0.00  0.00    +0.280 C 
BRANCH  14  15
ATOM     15  C   LIG    1       -0.683  -6.999   0.214  0.00  0.00    +0.210 C 
BRANCH  15  16
ATOM     16  O   LIG    1       -0.930  -7.059   1.621  0.00  0.00    -0.580 OA
ATOM     17  H   LIG    1       -0.547  -7.834   2.054  0.00  0.00    +0.410 HD
ENDBRANCH  15  16
ENDBRANCH  14  15
ENDBRANCH   6  14
TORSDOF 3
ENDMDL
MODEL      396
REMARK  Name = ZINC000409425548
REMARK                            x       y       z     vdW  Elec       q    Type
REMARK                         _______ _______ _______ _____ _____    ______ ____
ROOT
ATOM      1  C   LIG    1       -2.113   0.957   1.227  0.00  0.00    +0.490 C 
ATOM      2  N   LIG    1       -2.938   1.266   2.247  0.00  0.00    -0.580 N 
ATOM      3  C   LIG    1       -2.451   2.109   3.329  0.00  0.00    +0.280 C 
ATOM      4  C   LIG    1       -2.780   1.512   4.678  0.00  0.00    +0.050 C 
ATOM      5  C   LIG    1       -4.197   1.009   4.826  0.00  0.00    +0.040 C 
ATOM      6  C   LIG    1       -4.177  -0.155   5.814  0.00  0.00    +0.530 C 
ATOM      7  N   LIG    1       -4.511  -1.279   5.164  0.00  0.00    -0.680 N 
ATOM      8  H   LIG    1       -4.510  -2.151   5.588  0.00  0.00    +0.420 HD
ATOM      9  C   LIG    1       -4.848  -1.094   3.876  0.00  0.00    +0.530 C 
ATOM     10  O   LIG    1       -5.128  -1.965   3.081  0.00  0.00    -0.460 OA
ATOM     11  O   LIG    1       -3.903  -0.076   6.992  0.00  0.00    -0.460 OA
ATOM     12  C   LIG    1       -4.819   0.395   3.592  0.00  0.00    +0.000 C 
ATOM     13  C   LIG    1       -4.297   0.756   2.245  0.00  0.00    +0.340 C 
ATOM     14  O   LIG    1       -2.509   0.259   0.317  0.00  0.00    -0.520 OA
ENDROOT
BRANCH   1  15
ATOM     15  C   LIG    1       -0.699   1.479   1.216  0.00  0.00    +0.300 C 
BRANCH  15  16
ATOM     16  N   LIG    1       -0.012   1.005   0.008  0.00  0.00    -0.620 N 
ATOM     17  H   LIG    1       -0.500   1.339  -0.810  0.00  0.00    +0.440 HD
ATOM     18  H   LIG    1        0.935   1.354   0.000  0.00  0.00    +0.450 HD
ATOM     19  H   LIG    1        0.002  -0.004   0.002  0.00  0.00    +0.440 HD
ENDBRANCH  15  16
ENDBRANCH   1  15
TORSDOF 2
ENDMDL
MODEL      397
REMARK  Name = ZINC000409425556
REMARK                            x       y       z     vdW  Elec       q    Type
REMARK                         _______ _______ _______ _____ _____    ______ ____
ROOT
ATOM      1  C   LIG    1       -2.113   0.957   1.227  0.00  0.00    +0.490 C 
ATOM      2  N   LIG    1       -2.938   1.266   2.247  0.00  0.00    -0.580 N 
ATOM      3  C   LIG    1       -2.440   2.109   3.323  0.00  0.00    +0.280 C 
ATOM      4  C   LIG    1       -2.772   1.505   4.673  0.00  0.00    +0.080 C 
ATOM      5  C   LIG    1       -4.127   0.907   4.787  0.00  0.00    +0.010 C 
ATOM      6  C   LIG    1       -5.180   1.821   5.354  0.00  0.00    +0.530 C 
ATOM      7  N   LIG    1       -6.335   1.571   4.712  0.00  0.00    -0.680 N 
ATOM      8  H   LIG    1       -7.169   2.010   4.941  0.00  0.00    +0.420 HD
ATOM      9  C   LIG    1       -6.235   0.665   3.729  0.00  0.00    +0.540 C 
ATOM     10  O   LIG    1       -7.156   0.241   3.064  0.00  0.00    -0.460 OA
ATOM     11  O   LIG    1       -5.016   2.639   6.233  0.00  0.00    -0.460 OA
ATOM     12  C   LIG    1       -4.783   0.277   3.579  0.00  0.00    +0.010 C 
ATOM     13  C   LIG    1       -4.290   0.752   2.234  0.00  0.00    +0.320 C 
ATOM     14  O   LIG    1       -2.509   0.259   0.317  0.00  0.00    -0.520 OA
ENDROOT
BRANCH   1  15
ATOM     15  C   LIG    1       -0.699   1.479   1.216  0.00  0.00    +0.310 C 
BRANCH  15  16
ATOM     16  N   LIG    1       -0.012   1.005   0.008  0.00  0.00    -0.620 N 
ATOM     17  H   LIG    1       -0.500   1.339  -0.810  0.00  0.00    +0.440 HD
ATOM     18  H   LIG    1        0.935   1.354   0.000  0.00  0.00    +0.450 HD
ATOM     19  H   LIG    1        0.002  -0.004   0.002  0.00  0.00    +0.440 HD
ENDBRANCH  15  16
ENDBRANCH   1  15
TORSDOF 2
ENDMDL
MODEL      398
REMARK  Name = ZINC000409425557
REMARK                            x       y       z     vdW  Elec       q    Type
REMARK                         _______ _______ _______ _____ _____    ______ ____
ROOT
ATOM      1  C   LIG    1       -2.113   0.957   1.227  0.00  0.00    +0.500 C 
ATOM      2  N   LIG    1       -2.938   1.266   2.247  0.00  0.00    -0.590 N 
ATOM      3  C   LIG    1       -2.447   2.115   3.336  0.00  0.00    +0.270 C 
ATOM      4  C   LIG    1       -2.840   1.534   4.712  0.00  0.00    +0.090 C 
ATOM      5  C   LIG    1       -4.328   1.264   4.646  0.00  0.00    -0.010 C 
ATOM      6  C   LIG    1       -5.017   0.682   5.841  0.00  0.00    +0.550 C 
ATOM      7  N   LIG    1       -5.999  -0.122   5.353  0.00  0.00    -0.700 N 
ATOM      8  H   LIG    1       -6.711  -0.486   5.903  0.00  0.00    +0.420 HD
ATOM      9  C   LIG    1       -5.886  -0.367   4.021  0.00  0.00    +0.550 C 
ATOM     10  O   LIG    1       -6.723  -0.864   3.297  0.00  0.00    -0.450 OA
ATOM     11  O   LIG    1       -4.753   0.887   7.006  0.00  0.00    -0.450 OA
ATOM     12  C   LIG    1       -4.522   0.115   3.611  0.00  0.00    -0.020 C 
ATOM     13  C   LIG    1       -4.324   0.746   2.244  0.00  0.00    +0.360 C 
ATOM     14  O   LIG    1       -2.509   0.259   0.317  0.00  0.00    -0.520 OA
ENDROOT
BRANCH   1  15
ATOM     15  C   LIG    1       -0.699   1.479   1.216  0.00  0.00    +0.310 C 
BRANCH  15  16
ATOM     16  N   LIG    1       -0.012   1.005   0.008  0.00  0.00    -0.620 N 
ATOM     17  H   LIG    1       -0.500   1.339  -0.810  0.00  0.00    +0.440 HD
ATOM     18  H   LIG    1        0.935   1.354   0.000  0.00  0.00    +0.450 HD
ATOM     19  H   LIG    1        0.002  -0.004   0.002  0.00  0.00    +0.440 HD
ENDBRANCH  15  16
ENDBRANCH   1  15
TORSDOF 2
ENDMDL
MODEL      399
REMARK  Name = ZINC000409425646
REMARK                            x       y       z     vdW  Elec       q    Type
REMARK                         _______ _______ _______ _____ _____    ______ ____
ROOT
ATOM      1  N   LIG    1        1.935   1.257  -3.417  0.00  0.00    -0.260 N 
ATOM      2  C   LIG    1        2.173   2.183  -2.458  0.00  0.00    +0.180 A 
ATOM      3  C   LIG    1        2.199   3.380  -3.089  0.00  0.00    -0.110 A 
ATOM      4  N   LIG    1        1.979   3.131  -4.385  0.00  0.00    -0.240 NA
ATOM      5  N   LIG    1        1.832   1.864  -4.547  0.00  0.00    -0.040 NA
ENDROOT
BRANCH   1   8
ATOM      6  N   LIG    1        0.796  -0.399  -1.397  0.00  0.00    -1.060 NA
ATOM      7  C   LIG    1        0.416  -0.654  -2.794  0.00  0.00    +0.350 C 
ATOM      8  C   LIG    1        1.820  -0.188  -3.204  0.00  0.00    +0.240 C 
ATOM      9  C   LIG    1        2.192  -0.642  -1.789  0.00  0.00    +0.350 C 
BRANCH   6  11
ATOM     10  C   LIG    1       -0.022   1.810   0.012  0.00  0.00    -0.280 C 
ATOM     11  S   LIG    1        0.002  -0.004   0.002  0.00  0.00    +2.630 S 
ATOM     12  O   LIG    1       -1.309  -0.519  -0.182  0.00  0.00    -0.930 OA
ATOM     13  O   LIG    1        0.845  -0.497   1.035  0.00  0.00    -0.940 OA
ENDBRANCH   6  11
ENDBRANCH   1   8
BRANCH   3  14
ATOM     14  C   LIG    1        2.432   4.728  -2.456  0.00  0.00    +0.400 C 
BRANCH  14  15
ATOM     15  N   LIG    1        3.854   5.080  -2.563  0.00  0.00    -0.640 N 
ATOM     16  H   LIG    1        4.120   5.115  -3.536  0.00  0.00    +0.440 HD
ATOM     17  H   LIG    1        4.409   4.385  -2.088  0.00  0.00    +0.430 HD
ATOM     18  H   LIG    1        4.010   5.982  -2.139  0.00  0.00    +0.440 HD
ENDBRANCH  14  15
ENDBRANCH   3  14
TORSDOF 4
ENDMDL
MODEL      400
REMARK  Name = ZINC000409425555
REMARK                            x       y       z     vdW  Elec       q    Type
REMARK                         _______ _______ _______ _____ _____    ______ ____
ROOT
ATOM      1  C   LIG    1       -2.113   0.957   1.227  0.00  0.00    +0.500 C 
ATOM      2  N   LIG    1       -2.938   1.266   2.247  0.00  0.00    -0.590 N 
ATOM      3  C   LIG    1       -2.450   2.115   3.338  0.00  0.00    +0.270 C 
ATOM      4  C   LIG    1       -3.474   3.211   3.694  0.00  0.00    +0.090 C 
ATOM      5  C   LIG    1       -4.807   2.521   3.869  0.00  0.00    -0.010 C 
ATOM      6  C   LIG    1       -6.020   3.336   4.189  0.00  0.00    +0.550 C 
ATOM      7  N   LIG    1       -7.063   2.712   3.579  0.00  0.00    -0.700 N 
ATOM      8  H   LIG    1       -7.992   2.924   3.764  0.00  0.00    +0.420 HD
ATOM      9  C   LIG    1       -6.678   1.762   2.686  0.00  0.00    +0.550 C 
ATOM     10  O   LIG    1       -7.381   0.920   2.169  0.00  0.00    -0.450 OA
ATOM     11  O   LIG    1       -6.064   4.348   4.856  0.00  0.00    -0.450 OA
ATOM     12  C   LIG    1       -5.206   1.956   2.472  0.00  0.00    -0.020 C 
ATOM     13  C   LIG    1       -4.326   0.747   2.247  0.00  0.00    +0.360 C 
ATOM     14  O   LIG    1       -2.509   0.259   0.317  0.00  0.00    -0.520 OA
ENDROOT
BRANCH   1  15
ATOM     15  C   LIG    1       -0.699   1.479   1.216  0.00  0.00    +0.310 C 
BRANCH  15  16
ATOM     16  N   LIG    1       -0.012   1.005   0.008  0.00  0.00    -0.620 N 
ATOM     17  H   LIG    1       -0.500   1.339  -0.810  0.00  0.00    +0.440 HD
ATOM     18  H   LIG    1        0.935   1.354   0.000  0.00  0.00    +0.450 HD
ATOM     19  H   LIG    1        0.002  -0.004   0.002  0.00  0.00    +0.440 HD
ENDBRANCH  15  16
ENDBRANCH   1  15
TORSDOF 2
ENDMDL
MODEL      401
REMARK  Name = ZINC000409425678
REMARK                            x       y       z     vdW  Elec       q    Type
REMARK                         _______ _______ _______ _____ _____    ______ ____
ROOT
ATOM      1  C   LIG    1       -1.425   3.494   2.465  0.00  0.00    +0.520 C 
ATOM      2  N   LIG    1       -1.564   4.816   2.686  0.00  0.00    -0.610 N 
ATOM      3  C   LIG    1       -1.030   5.769   1.710  0.00  0.00    +0.270 C 
ATOM      4  C   LIG    1       -0.253   6.905   2.411  0.00  0.00    +0.070 C 
ATOM      5  C   LIG    1       -1.171   7.442   3.488  0.00  0.00    -0.010 C 
ATOM      6  C   LIG    1       -0.696   8.561   4.360  0.00  0.00    +0.550 C 
ATOM      7  N   LIG    1       -1.251   8.346   5.583  0.00  0.00    -0.700 N 
ATOM      8  H   LIG    1       -1.254   9.010   6.290  0.00  0.00    +0.420 HD
ATOM      9  C   LIG    1       -1.800   7.109   5.718  0.00  0.00    +0.550 C 
ATOM     10  O   LIG    1       -2.534   6.731   6.605  0.00  0.00    -0.450 OA
ATOM     11  O   LIG    1        0.035   9.474   4.041  0.00  0.00    -0.460 OA
ATOM     12  C   LIG    1       -1.331   6.302   4.539  0.00  0.00    -0.020 C 
ATOM     13  C   LIG    1       -2.260   5.279   3.909  0.00  0.00    +0.350 C 
ATOM     14  O   LIG    1       -1.868   2.696   3.263  0.00  0.00    -0.520 OA
ENDROOT
BRANCH   1  15
ATOM     15  C   LIG    1       -0.720   3.008   1.225  0.00  0.00    +0.060 C 
BRANCH  15  16
ATOM     16  C   LIG    1       -0.699   1.479   1.216  0.00  0.00    +0.290 C 
BRANCH  16  17
ATOM     17  N   LIG    1       -0.012   1.005   0.008  0.00  0.00    -0.640 N 
ATOM     18  H   LIG    1       -0.500   1.339  -0.810  0.00  0.00    +0.440 HD
ATOM     19  H   LIG    1        0.935   1.354   0.000  0.00  0.00    +0.440 HD
ATOM     20  H   LIG    1        0.002  -0.004   0.002  0.00  0.00    +0.440 HD
ENDBRANCH  16  17
ENDBRANCH  15  16
ENDBRANCH   1  15
TORSDOF 3
ENDMDL
MODEL      402
REMARK  Name = ZINC000409425717
REMARK                            x       y       z     vdW  Elec       q    Type
REMARK                         _______ _______ _______ _____ _____    ______ ____
ROOT
ATOM      1  C   LIG    1       -1.356  -2.019   0.004  0.00  0.00    +0.500 C 
ATOM      2  N   LIG    1       -2.514  -2.709   0.011  0.00  0.00    -0.580 N 
ATOM      3  C   LIG    1       -3.770  -1.975   0.021  0.00  0.00    +0.280 C 
ATOM      4  C   LIG    1       -4.701  -2.523   1.084  0.00  0.00    +0.080 C 
ATOM      5  C   LIG    1       -4.724  -4.004   1.207  0.00  0.00    +0.000 C 
ATOM      6  C   LIG    1       -5.813  -4.690   0.428  0.00  0.00    +0.530 C 
ATOM      7  N   LIG    1       -5.318  -5.846  -0.047  0.00  0.00    -0.580 N 
ATOM      8  C   LIG    1       -4.020  -6.043   0.224  0.00  0.00    +0.530 C 
ATOM      9  O   LIG    1       -3.385  -7.039  -0.050  0.00  0.00    -0.460 OA
ATOM     10  C   LIG    1       -6.128  -6.808  -0.799  0.00  0.00    +0.320 C 
ATOM     11  O   LIG    1       -6.939  -4.274   0.257  0.00  0.00    -0.460 OA
ATOM     12  C   LIG    1       -3.480  -4.810   0.910  0.00  0.00    +0.010 C 
ATOM     13  C   LIG    1       -2.467  -4.155   0.003  0.00  0.00    +0.330 C 
ATOM     14  O   LIG    1       -0.297  -2.611  -0.009  0.00  0.00    -0.520 OA
ENDROOT
BRANCH   1  15
ATOM     15  C   LIG    1       -1.376  -0.512   0.012  0.00  0.00    +0.290 C 
BRANCH  15  17
ATOM     16  C   LIG    1       -0.018   1.465   0.010  0.00  0.00    +0.340 C 
ATOM     17  N   LIG    1        0.002  -0.004   0.002  0.00  0.00    -0.500 N 
ATOM     18  H   LIG    1        0.490  -0.338   0.820  0.00  0.00    +0.440 HD
ATOM     19  H   LIG    1        0.474  -0.330  -0.828  0.00  0.00    +0.440 HD
ENDBRANCH  15  17
ENDBRANCH   1  15
TORSDOF 2
ENDMDL
MODEL      403
REMARK  Name = ZINC000409425708
REMARK                            x       y       z     vdW  Elec       q    Type
REMARK                         _______ _______ _______ _____ _____    ______ ____
ROOT
ATOM      1  C   LIG    1       -1.356  -2.019   0.004  0.00  0.00    +0.500 C 
ATOM      2  N   LIG    1       -2.514  -2.709   0.011  0.00  0.00    -0.590 N 
ATOM      3  C   LIG    1       -3.787  -1.983   0.021  0.00  0.00    +0.270 C 
ATOM      4  C   LIG    1       -4.776  -2.575  -1.002  0.00  0.00    +0.090 C 
ATOM      5  C   LIG    1       -4.805  -4.067  -0.767  0.00  0.00    -0.010 C 
ATOM      6  C   LIG    1       -5.658  -4.932  -1.640  0.00  0.00    +0.540 C 
ATOM      7  N   LIG    1       -4.995  -6.113  -1.762  0.00  0.00    -0.590 N 
ATOM      8  C   LIG    1       -3.709  -6.059  -1.322  0.00  0.00    +0.550 C 
ATOM      9  O   LIG    1       -2.970  -6.997  -1.117  0.00  0.00    -0.450 OA
ATOM     10  C   LIG    1       -5.606  -7.325  -2.314  0.00  0.00    +0.330 C 
ATOM     11  O   LIG    1       -6.724  -4.639  -2.138  0.00  0.00    -0.450 OA
ATOM     12  C   LIG    1       -3.389  -4.606  -1.133  0.00  0.00    -0.020 C 
ATOM     13  C   LIG    1       -2.481  -4.191   0.003  0.00  0.00    +0.360 C 
ATOM     14  O   LIG    1       -0.297  -2.611  -0.009  0.00  0.00    -0.520 OA
ENDROOT
BRANCH   1  15
ATOM     15  C   LIG    1       -1.376  -0.512   0.012  0.00  0.00    +0.290 C 
BRANCH  15  17
ATOM     16  C   LIG    1       -0.018   1.465   0.010  0.00  0.00    +0.340 C 
ATOM     17  N   LIG    1        0.002  -0.004   0.002  0.00  0.00    -0.500 N 
ATOM     18  H   LIG    1        0.490  -0.338   0.820  0.00  0.00    +0.440 HD
ATOM     19  H   LIG    1        0.474  -0.330  -0.828  0.00  0.00    +0.440 HD
ENDBRANCH  15  17
ENDBRANCH   1  15
TORSDOF 2
ENDMDL
MODEL      404
REMARK  Name = ZINC000409425720
REMARK                            x       y       z     vdW  Elec       q    Type
REMARK                         _______ _______ _______ _____ _____    ______ ____
ROOT
ATOM      1  N   LIG    1       -1.372  -0.511   0.012  0.00  0.00    -0.600 N 
ATOM      2  C   LIG    1       -2.077  -0.775   1.161  0.00  0.00    +0.580 C 
ATOM      3  C   LIG    1       -3.221  -1.535   0.724  0.00  0.00    -0.070 C 
ATOM      4  C   LIG    1       -4.577  -1.908   1.164  0.00  0.00    +0.370 C 
ATOM      5  N   LIG    1       -5.150  -2.531  -0.074  0.00  0.00    -0.610 N 
ATOM      6  C   LIG    1       -4.394  -2.005  -1.245  0.00  0.00    +0.310 C 
ATOM      7  C   LIG    1       -6.168  -3.413  -0.119  0.00  0.00    +0.520 C 
ATOM      8  O   LIG    1       -6.708  -3.768   0.907  0.00  0.00    -0.520 OA
ATOM      9  C   LIG    1       -3.526  -0.871  -0.678  0.00  0.00    +0.020 C 
ATOM     10  O   LIG    1       -1.798  -0.442   2.293  0.00  0.00    -0.440 OA
ATOM     11  C   LIG    1       -2.093  -0.767  -1.119  0.00  0.00    +0.550 C 
ATOM     12  O   LIG    1       -1.663  -0.899  -2.245  0.00  0.00    -0.450 OA
ENDROOT
BRANCH   1  14
ATOM     13  C   LIG    1       -0.019   1.526   0.010  0.00  0.00    +0.040 C 
ATOM     14  C   LIG    1        0.002  -0.004   0.002  0.00  0.00    +0.300 C 
ENDBRANCH   1  14
BRANCH   7  15
ATOM     15  C   LIG    1       -6.637  -3.956  -1.444  0.00  0.00    +0.320 C 
BRANCH  15  16
ATOM     16  N   LIG    1       -7.750  -4.889  -1.225  0.00  0.00    -0.620 N 
ATOM     17  H   LIG    1       -8.510  -4.406  -0.772  0.00  0.00    +0.440 HD
ATOM     18  H   LIG    1       -7.439  -5.651  -0.641  0.00  0.00    +0.440 HD
ATOM     19  H   LIG    1       -8.063  -5.253  -2.113  0.00  0.00    +0.450 HD
ENDBRANCH  15  16
ENDBRANCH   7  15
TORSDOF 3
ENDMDL
MODEL      405
REMARK  Name = ZINC000409425685
REMARK                            x       y       z     vdW  Elec       q    Type
REMARK                         _______ _______ _______ _____ _____    ______ ____
ROOT
ATOM      1  C   LIG    1       -1.425   3.494   2.465  0.00  0.00    +0.520 C 
ATOM      2  N   LIG    1       -1.564   4.816   2.686  0.00  0.00    -0.610 N 
ATOM      3  C   LIG    1       -1.031   5.772   1.712  0.00  0.00    +0.270 C 
ATOM      4  C   LIG    1       -2.052   6.886   1.404  0.00  0.00    +0.070 C 
ATOM      5  C   LIG    1       -2.530   7.418   2.735  0.00  0.00    -0.010 C 
ATOM      6  C   LIG    1       -3.565   8.497   2.766  0.00  0.00    +0.550 C 
ATOM      7  N   LIG    1       -4.316   8.267   3.876  0.00  0.00    -0.700 N 
ATOM      8  H   LIG    1       -4.944   8.911   4.237  0.00  0.00    +0.420 HD
ATOM      9  C   LIG    1       -4.098   7.045   4.432  0.00  0.00    +0.550 C 
ATOM     10  O   LIG    1       -4.462   6.666   5.525  0.00  0.00    -0.450 OA
ATOM     11  O   LIG    1       -3.707   9.395   1.964  0.00  0.00    -0.460 OA
ATOM     12  C   LIG    1       -3.310   6.259   3.426  0.00  0.00    -0.020 C 
ATOM     13  C   LIG    1       -2.260   5.283   3.909  0.00  0.00    +0.350 C 
ATOM     14  O   LIG    1       -1.868   2.696   3.263  0.00  0.00    -0.520 OA
ENDROOT
BRANCH   1  15
ATOM     15  C   LIG    1       -0.720   3.008   1.225  0.00  0.00    +0.060 C 
BRANCH  15  16
ATOM     16  C   LIG    1       -0.699   1.479   1.216  0.00  0.00    +0.290 C 
BRANCH  16  17
ATOM     17  N   LIG    1       -0.012   1.005   0.008  0.00  0.00    -0.640 N 
ATOM     18  H   LIG    1       -0.500   1.339  -0.810  0.00  0.00    +0.440 HD
ATOM     19  H   LIG    1        0.935   1.354   0.000  0.00  0.00    +0.440 HD
ATOM     20  H   LIG    1        0.002  -0.004   0.002  0.00  0.00    +0.440 HD
ENDBRANCH  16  17
ENDBRANCH  15  16
ENDBRANCH   1  15
TORSDOF 3
ENDMDL
MODEL      406
REMARK  Name = ZINC000409425721
REMARK                            x       y       z     vdW  Elec       q    Type
REMARK                         _______ _______ _______ _____ _____    ______ ____
ROOT
ATOM      1  N   LIG    1       -1.372  -0.511   0.012  0.00  0.00    -0.570 N 
ATOM      2  C   LIG    1       -2.042  -0.762   1.143  0.00  0.00    +0.530 C 
ATOM      3  C   LIG    1       -3.426  -1.271   0.804  0.00  0.00    +0.020 C 
ATOM      4  C   LIG    1       -4.471  -0.215   1.222  0.00  0.00    +0.340 C 
ATOM      5  N   LIG    1       -4.562   0.704   0.065  0.00  0.00    -0.610 N 
ATOM      6  C   LIG    1       -4.499  -0.188  -1.116  0.00  0.00    +0.320 C 
ATOM      7  C   LIG    1       -4.677   2.046   0.082  0.00  0.00    +0.520 C 
ATOM      8  O   LIG    1       -4.715   2.638   1.139  0.00  0.00    -0.520 OA
ATOM      9  C   LIG    1       -3.438  -1.270  -0.748  0.00  0.00    +0.020 C 
ATOM     10  O   LIG    1       -1.609  -0.606   2.264  0.00  0.00    -0.460 OA
ATOM     11  C   LIG    1       -2.062  -0.756  -1.108  0.00  0.00    +0.530 C 
ATOM     12  O   LIG    1       -1.652  -0.582  -2.235  0.00  0.00    -0.470 OA
ENDROOT
BRANCH   1  14
ATOM     13  C   LIG    1       -0.019   1.526   0.010  0.00  0.00    +0.030 C 
ATOM     14  C   LIG    1        0.002  -0.004   0.002  0.00  0.00    +0.290 C 
ENDBRANCH   1  14
BRANCH   7  15
ATOM     15  C   LIG    1       -4.756   2.812  -1.214  0.00  0.00    +0.300 C 
BRANCH  15  16
ATOM     16  N   LIG    1       -4.876   4.248  -0.927  0.00  0.00    -0.620 N 
ATOM     17  H   LIG    1       -4.069   4.555  -0.404  0.00  0.00    +0.440 HD
ATOM     18  H   LIG    1       -5.711   4.415  -0.386  0.00  0.00    +0.440 HD
ATOM     19  H   LIG    1       -4.929   4.761  -1.794  0.00  0.00    +0.450 HD
ENDBRANCH  15  16
ENDBRANCH   7  15
TORSDOF 3
ENDMDL
MODEL      407
REMARK  Name = ZINC000409425716
REMARK                            x       y       z     vdW  Elec       q    Type
REMARK                         _______ _______ _______ _____ _____    ______ ____
ROOT
ATOM      1  C   LIG    1       -1.356  -2.019   0.004  0.00  0.00    +0.500 C 
ATOM      2  N   LIG    1       -2.514  -2.709   0.011  0.00  0.00    -0.580 N 
ATOM      3  C   LIG    1       -3.777  -1.986   0.021  0.00  0.00    +0.280 C 
ATOM      4  C   LIG    1       -4.710  -2.529   1.079  0.00  0.00    +0.060 C 
ATOM      5  C   LIG    1       -4.817  -4.035   1.123  0.00  0.00    +0.030 C 
ATOM      6  C   LIG    1       -5.114  -4.438   2.565  0.00  0.00    +0.530 C 
ATOM      7  N   LIG    1       -4.068  -5.125   3.046  0.00  0.00    -0.580 N 
ATOM      8  C   LIG    1       -3.094  -5.349   2.148  0.00  0.00    +0.530 C 
ATOM      9  O   LIG    1       -2.034  -5.895   2.367  0.00  0.00    -0.460 OA
ATOM     10  C   LIG    1       -3.993  -5.591   4.433  0.00  0.00    +0.320 C 
ATOM     11  O   LIG    1       -6.129  -4.179   3.176  0.00  0.00    -0.460 OA
ATOM     12  C   LIG    1       -3.553  -4.804   0.810  0.00  0.00    -0.010 C 
ATOM     13  C   LIG    1       -2.479  -4.160   0.003  0.00  0.00    +0.340 C 
ATOM     14  O   LIG    1       -0.297  -2.611  -0.009  0.00  0.00    -0.520 OA
ENDROOT
BRANCH   1  15
ATOM     15  C   LIG    1       -1.376  -0.512   0.012  0.00  0.00    +0.290 C 
BRANCH  15  17
ATOM     16  C   LIG    1       -0.018   1.465   0.010  0.00  0.00    +0.340 C 
ATOM     17  N   LIG    1        0.002  -0.004   0.002  0.00  0.00    -0.500 N 
ATOM     18  H   LIG    1        0.490  -0.338   0.820  0.00  0.00    +0.440 HD
ATOM     19  H   LIG    1        0.474  -0.330  -0.828  0.00  0.00    +0.440 HD
ENDBRANCH  15  17
ENDBRANCH   1  15
TORSDOF 2
ENDMDL
MODEL      408
REMARK  Name = ZINC000079418600
REMARK                            x       y       z     vdW  Elec       q    Type
REMARK                         _______ _______ _______ _____ _____    ______ ____
ROOT
ATOM      1  C   LIG    1       -1.317  -2.051   0.250  0.00  0.00    +0.250 C 
ATOM      2  C   LIG    1       -1.083  -2.388   1.728  0.00  0.00    +0.330 C 
ATOM      3  N   LIG    1       -1.426  -3.800   1.948  0.00  0.00    -0.590 N 
ATOM      4  C   LIG    1       -2.763  -4.272   1.564  0.00  0.00    +0.280 C 
ATOM      5  C   LIG    1       -2.997  -3.935   0.086  0.00  0.00    +0.290 C 
ATOM      6  C   LIG    1       -0.529  -4.646   2.492  0.00  0.00    +0.500 C 
ATOM      7  O   LIG    1        0.572  -4.245   2.805  0.00  0.00    -0.520 OA
ATOM      8  N   LIG    1       -2.653  -2.524  -0.137  0.00  0.00    -0.620 N 
ATOM      9  C   LIG    1       -3.550  -1.677  -0.681  0.00  0.00    +0.510 C 
ATOM     10  O   LIG    1       -3.214  -0.553  -0.987  0.00  0.00    -0.500 OA
ATOM     11  C   LIG    1       -4.969  -2.128  -0.910  0.00  0.00    +0.120 C 
ENDROOT
BRANCH   1  12
ATOM     12  C   LIG    1       -1.231  -0.559   0.052  0.00  0.00    +0.470 C 
ATOM     13  O   LIG    1       -2.052   0.166   0.560  0.00  0.00    -0.470 OA
BRANCH  12  15
ATOM     14  C   LIG    1       -0.221   1.407  -0.838  0.00  0.00    +0.270 C 
ATOM     15  O   LIG    1       -0.241  -0.037  -0.690  0.00  0.00    -0.360 OA
ENDBRANCH  12  15
ENDBRANCH   1  12
BRANCH   6  16
ATOM     16  C   LIG    1       -0.894  -6.092   2.711  0.00  0.00    +0.310 C 
BRANCH  16  17
ATOM     17  N   LIG    1        0.245  -6.799   3.312  0.00  0.00    -0.620 N 
ATOM     18  H   LIG    1        1.039  -6.743   2.692  0.00  0.00    +0.440 HD
ATOM     19  H   LIG    1        0.000  -7.767   3.458  0.00  0.00    +0.450 HD
ATOM     20  H   LIG    1        0.477  -6.373   4.196  0.00  0.00    +0.440 HD
ENDBRANCH  16  17
ENDBRANCH   6  16
TORSDOF 4
ENDMDL
MODEL      409
REMARK  Name = ZINC000409425724
REMARK                            x       y       z     vdW  Elec       q    Type
REMARK                         _______ _______ _______ _____ _____    ______ ____
ROOT
ATOM      1  N   LIG    1       -1.372  -0.511   0.012  0.00  0.00    -0.600 N 
ATOM      2  C   LIG    1       -2.078  -0.775   1.159  0.00  0.00    +0.570 C 
ATOM      3  C   LIG    1       -3.466  -0.907   0.723  0.00  0.00    -0.040 C 
ATOM      4  C   LIG    1       -4.629  -1.686   1.220  0.00  0.00    +0.360 C 
ATOM      5  N   LIG    1       -5.441  -1.971  -0.003  0.00  0.00    -0.610 N 
ATOM      6  C   LIG    1       -4.655  -1.502  -1.189  0.00  0.00    +0.330 C 
ATOM      7  C   LIG    1       -6.660  -2.546  -0.033  0.00  0.00    +0.520 C 
ATOM      8  O   LIG    1       -7.196  -2.884   1.001  0.00  0.00    -0.520 OA
ATOM      9  C   LIG    1       -3.234  -1.606  -0.675  0.00  0.00    -0.020 C 
ATOM     10  O   LIG    1       -1.645  -0.877   2.287  0.00  0.00    -0.440 OA
ATOM     11  C   LIG    1       -2.097  -0.768  -1.122  0.00  0.00    +0.560 C 
ATOM     12  O   LIG    1       -1.863  -0.386  -2.248  0.00  0.00    -0.450 OA
ENDROOT
BRANCH   1  14
ATOM     13  C   LIG    1       -0.019   1.526   0.010  0.00  0.00    +0.030 C 
ATOM     14  C   LIG    1        0.002  -0.004   0.002  0.00  0.00    +0.300 C 
ENDBRANCH   1  14
BRANCH   7  15
ATOM     15  C   LIG    1       -7.356  -2.769  -1.351  0.00  0.00    +0.320 C 
BRANCH  15  16
ATOM     16  N   LIG    1       -8.659  -3.405  -1.115  0.00  0.00    -0.620 N 
ATOM     17  H   LIG    1       -9.225  -2.807  -0.533  0.00  0.00    +0.440 HD
ATOM     18  H   LIG    1       -8.522  -4.292  -0.653  0.00  0.00    +0.440 HD
ATOM     19  H   LIG    1       -9.125  -3.554  -1.998  0.00  0.00    +0.450 HD
ENDBRANCH  15  16
ENDBRANCH   7  15
TORSDOF 3
ENDMDL
MODEL      410
REMARK  Name = ZINC000409425718
REMARK                            x       y       z     vdW  Elec       q    Type
REMARK                         _______ _______ _______ _____ _____    ______ ____
ROOT
ATOM      1  C   LIG    1       -1.356  -2.019   0.004  0.00  0.00    +0.500 C 
ATOM      2  N   LIG    1       -2.514  -2.709   0.011  0.00  0.00    -0.590 N 
ATOM      3  C   LIG    1       -3.785  -1.980   0.022  0.00  0.00    +0.270 C 
ATOM      4  C   LIG    1       -4.759  -2.579   1.059  0.00  0.00    +0.090 C 
ATOM      5  C   LIG    1       -4.804  -4.067   0.786  0.00  0.00    -0.010 C 
ATOM      6  C   LIG    1       -5.667  -4.939   1.643  0.00  0.00    +0.540 C 
ATOM      7  N   LIG    1       -5.013  -6.128   1.747  0.00  0.00    -0.590 N 
ATOM      8  C   LIG    1       -3.726  -6.077   1.312  0.00  0.00    +0.550 C 
ATOM      9  O   LIG    1       -2.993  -7.018   1.093  0.00  0.00    -0.450 OA
ATOM     10  C   LIG    1       -5.636  -7.344   2.276  0.00  0.00    +0.330 C 
ATOM     11  O   LIG    1       -6.731  -4.646   2.143  0.00  0.00    -0.450 OA
ATOM     12  C   LIG    1       -3.390  -4.622   1.137  0.00  0.00    -0.020 C 
ATOM     13  C   LIG    1       -2.478  -4.189   0.003  0.00  0.00    +0.360 C 
ATOM     14  O   LIG    1       -0.297  -2.611  -0.009  0.00  0.00    -0.520 OA
ENDROOT
BRANCH   1  15
ATOM     15  C   LIG    1       -1.376  -0.512   0.012  0.00  0.00    +0.290 C 
BRANCH  15  17
ATOM     16  C   LIG    1       -0.018   1.465   0.010  0.00  0.00    +0.340 C 
ATOM     17  N   LIG    1        0.002  -0.004   0.002  0.00  0.00    -0.500 N 
ATOM     18  H   LIG    1        0.490  -0.338   0.820  0.00  0.00    +0.440 HD
ATOM     19  H   LIG    1        0.474  -0.330  -0.828  0.00  0.00    +0.440 HD
ENDBRANCH  15  17
ENDBRANCH   1  15
TORSDOF 2
ENDMDL
MODEL      411
REMARK  Name = ZINC000409425688
REMARK                            x       y       z     vdW  Elec       q    Type
REMARK                         _______ _______ _______ _____ _____    ______ ____
ROOT
ATOM      1  C   LIG    1       -1.425   3.494   2.465  0.00  0.00    +0.520 C 
ATOM      2  N   LIG    1       -1.564   4.816   2.686  0.00  0.00    -0.590 N 
ATOM      3  C   LIG    1       -1.030   5.754   1.710  0.00  0.00    +0.280 C 
ATOM      4  C   LIG    1       -0.215   6.832   2.395  0.00  0.00    +0.070 C 
ATOM      5  C   LIG    1       -0.786   7.353   3.664  0.00  0.00    +0.000 C 
ATOM      6  C   LIG    1       -1.622   8.596   3.522  0.00  0.00    +0.530 C 
ATOM      7  N   LIG    1       -2.645   8.509   4.391  0.00  0.00    -0.680 N 
ATOM      8  H   LIG    1       -3.293   9.220   4.512  0.00  0.00    +0.420 HD
ATOM      9  C   LIG    1       -2.692   7.357   5.075  0.00  0.00    +0.540 C 
ATOM     10  O   LIG    1       -3.486   7.089   5.951  0.00  0.00    -0.460 OA
ATOM     11  O   LIG    1       -1.411   9.514   2.759  0.00  0.00    -0.460 OA
ATOM     12  C   LIG    1       -1.604   6.446   4.557  0.00  0.00    +0.000 C 
ATOM     13  C   LIG    1       -2.246   5.258   3.884  0.00  0.00    +0.310 C 
ATOM     14  O   LIG    1       -1.868   2.696   3.263  0.00  0.00    -0.520 OA
ENDROOT
BRANCH   1  15
ATOM     15  C   LIG    1       -0.720   3.008   1.225  0.00  0.00    +0.060 C 
BRANCH  15  16
ATOM     16  C   LIG    1       -0.699   1.479   1.216  0.00  0.00    +0.290 C 
BRANCH  16  17
ATOM     17  N   LIG    1       -0.012   1.005   0.008  0.00  0.00    -0.640 N 
ATOM     18  H   LIG    1       -0.500   1.339  -0.810  0.00  0.00    +0.440 HD
ATOM     19  H   LIG    1        0.935   1.354   0.000  0.00  0.00    +0.440 HD
ATOM     20  H   LIG    1        0.002  -0.004   0.002  0.00  0.00    +0.440 HD
ENDBRANCH  16  17
ENDBRANCH  15  16
ENDBRANCH   1  15
TORSDOF 3
ENDMDL
MODEL      412
REMARK  Name = ZINC000409425683
REMARK                            x       y       z     vdW  Elec       q    Type
REMARK                         _______ _______ _______ _____ _____    ______ ____
ROOT
ATOM      1  C   LIG    1       -1.425   3.494   2.465  0.00  0.00    +0.520 C 
ATOM      2  N   LIG    1       -1.564   4.816   2.686  0.00  0.00    -0.600 N 
ATOM      3  C   LIG    1       -1.034   5.764   1.717  0.00  0.00    +0.290 C 
ATOM      4  C   LIG    1       -0.220   6.842   2.394  0.00  0.00    +0.050 C 
ATOM      5  C   LIG    1       -0.860   7.449   3.621  0.00  0.00    +0.030 C 
ATOM      6  C   LIG    1        0.260   7.887   4.561  0.00  0.00    +0.530 C 
ATOM      7  N   LIG    1        0.207   7.140   5.673  0.00  0.00    -0.680 N 
ATOM      8  H   LIG    1        0.861   7.212   6.386  0.00  0.00    +0.420 HD
ATOM      9  C   LIG    1       -0.827   6.283   5.715  0.00  0.00    +0.530 C 
ATOM     10  O   LIG    1       -1.046   5.472   6.589  0.00  0.00    -0.460 OA
ATOM     11  O   LIG    1        1.064   8.766   4.339  0.00  0.00    -0.460 OA
ATOM     12  C   LIG    1       -1.677   6.511   4.481  0.00  0.00    -0.010 C 
ATOM     13  C   LIG    1       -2.246   5.271   3.885  0.00  0.00    +0.330 C 
ATOM     14  O   LIG    1       -1.868   2.696   3.263  0.00  0.00    -0.520 OA
ENDROOT
BRANCH   1  15
ATOM     15  C   LIG    1       -0.720   3.008   1.225  0.00  0.00    +0.060 C 
BRANCH  15  16
ATOM     16  C   LIG    1       -0.699   1.479   1.216  0.00  0.00    +0.290 C 
BRANCH  16  17
ATOM     17  N   LIG    1       -0.012   1.005   0.008  0.00  0.00    -0.640 N 
ATOM     18  H   LIG    1       -0.500   1.339  -0.810  0.00  0.00    +0.440 HD
ATOM     19  H   LIG    1        0.935   1.354   0.000  0.00  0.00    +0.440 HD
ATOM     20  H   LIG    1        0.002  -0.004   0.002  0.00  0.00    +0.440 HD
ENDBRANCH  16  17
ENDBRANCH  15  16
ENDBRANCH   1  15
TORSDOF 3
ENDMDL
MODEL      413
REMARK  Name = ZINC000409425957
REMARK                            x       y       z     vdW  Elec       q    Type
REMARK                         _______ _______ _______ _____ _____    ______ ____
ROOT
ATOM      1  C   LIG    1       -1.432  -1.925   0.005  0.00  0.00    +0.170 C 
ATOM      2  C   LIG    1       -1.550  -2.471   1.444  0.00  0.00    +0.260 C 
ATOM      3  N   LIG    1       -2.517  -3.578   1.412  0.00  0.00    -0.610 N 
ATOM      4  C   LIG    1       -2.982  -3.760   0.025  0.00  0.00    +0.240 C 
ATOM      5  C   LIG    1       -2.913  -4.306   2.475  0.00  0.00    +0.530 C 
ATOM      6  O   LIG    1       -2.463  -4.066   3.575  0.00  0.00    -0.530 OA
ATOM      7  C   LIG    1       -2.758  -2.385  -0.656  0.00  0.00    +0.190 C 
ENDROOT
BRANCH   7   8
ATOM      8  O   LIG    1       -2.609  -2.531  -2.070  0.00  0.00    -0.540 OA
ATOM      9  H   LIG    1       -3.383  -2.908  -2.510  0.00  0.00    +0.390 HD
ENDBRANCH   7   8
BRANCH   1  10
ATOM     10  O   LIG    1       -1.339  -0.499   0.012  0.00  0.00    -0.370 OA
BRANCH  10  12
ATOM     11  C   LIG    1       -0.019   1.526   0.010  0.00  0.00    +0.060 C 
ATOM     12  C   LIG    1        0.002  -0.004   0.002  0.00  0.00    +0.160 C 
ENDBRANCH  10  12
ENDBRANCH   1  10
BRANCH   5  13
ATOM     13  C   LIG    1       -3.915  -5.417   2.296  0.00  0.00    +0.070 C 
BRANCH  13  14
ATOM     14  C   LIG    1       -4.190  -6.079   3.648  0.00  0.00    +0.290 C 
BRANCH  14  15
ATOM     15  N   LIG    1       -5.167  -7.162   3.474  0.00  0.00    -0.640 N 
ATOM     16  H   LIG    1       -5.348  -7.598   4.366  0.00  0.00    +0.440 HD
ATOM     17  H   LIG    1       -4.798  -7.848   2.833  0.00  0.00    +0.440 HD
ATOM     18  H   LIG    1       -6.026  -6.784   3.104  0.00  0.00    +0.440 HD
ENDBRANCH  14  15
ENDBRANCH  13  14
ENDBRANCH   5  13
TORSDOF 6
ENDMDL
MODEL      414
REMARK  Name = ZINC000409425955
REMARK                            x       y       z     vdW  Elec       q    Type
REMARK                         _______ _______ _______ _____ _____    ______ ____
ROOT
ATOM      1  C   LIG    1       -1.432  -1.925   0.005  0.00  0.00    +0.170 C 
ATOM      2  C   LIG    1       -1.597  -2.463  -1.438  0.00  0.00    +0.260 C 
ATOM      3  N   LIG    1       -2.272  -3.765  -1.280  0.00  0.00    -0.610 N 
ATOM      4  C   LIG    1       -3.008  -3.763  -0.006  0.00  0.00    +0.220 C 
ATOM      5  C   LIG    1       -2.222  -4.787  -2.156  0.00  0.00    +0.530 C 
ATOM      6  O   LIG    1       -1.580  -4.677  -3.180  0.00  0.00    -0.530 OA
ATOM      7  C   LIG    1       -2.752  -2.398   0.669  0.00  0.00    +0.190 C 
ENDROOT
BRANCH   7   8
ATOM      8  O   LIG    1       -3.817  -1.488   0.389  0.00  0.00    -0.540 OA
ATOM      9  H   LIG    1       -4.679  -1.778   0.717  0.00  0.00    +0.380 HD
ENDBRANCH   7   8
BRANCH   1  10
ATOM     10  O   LIG    1       -1.339  -0.499   0.012  0.00  0.00    -0.350 OA
BRANCH  10  12
ATOM     11  C   LIG    1       -0.019   1.526   0.010  0.00  0.00    +0.070 C 
ATOM     12  C   LIG    1        0.002  -0.004   0.002  0.00  0.00    +0.150 C 
ENDBRANCH  10  12
ENDBRANCH   1  10
BRANCH   5  13
ATOM     13  C   LIG    1       -2.964  -6.066  -1.865  0.00  0.00    +0.070 C 
BRANCH  13  14
ATOM     14  C   LIG    1       -2.743  -7.056  -3.012  0.00  0.00    +0.290 C 
BRANCH  14  15
ATOM     15  N   LIG    1       -3.466  -8.302  -2.728  0.00  0.00    -0.640 N 
ATOM     16  H   LIG    1       -3.321  -8.955  -3.484  0.00  0.00    +0.440 HD
ATOM     17  H   LIG    1       -4.452  -8.107  -2.638  0.00  0.00    +0.440 HD
ATOM     18  H   LIG    1       -3.123  -8.702  -1.868  0.00  0.00    +0.440 HD
ENDBRANCH  14  15
ENDBRANCH  13  14
ENDBRANCH   5  13
TORSDOF 6
ENDMDL
MODEL      415
REMARK  Name = ZINC000409425956
REMARK                            x       y       z     vdW  Elec       q    Type
REMARK                         _______ _______ _______ _____ _____    ______ ____
ROOT
ATOM      1  C   LIG    1       -1.432  -1.925   0.005  0.00  0.00    +0.190 C 
ATOM      2  C   LIG    1       -1.550  -2.471   1.444  0.00  0.00    +0.260 C 
ATOM      3  N   LIG    1       -2.517  -3.578   1.412  0.00  0.00    -0.600 N 
ATOM      4  C   LIG    1       -2.982  -3.760   0.025  0.00  0.00    +0.240 C 
ATOM      5  C   LIG    1       -2.913  -4.306   2.475  0.00  0.00    +0.530 C 
ATOM      6  O   LIG    1       -2.463  -4.066   3.575  0.00  0.00    -0.530 OA
ATOM      7  C   LIG    1       -2.758  -2.385  -0.656  0.00  0.00    +0.180 C 
ENDROOT
BRANCH   7   8
ATOM      8  O   LIG    1       -3.821  -1.482  -0.347  0.00  0.00    -0.530 OA
ATOM      9  H   LIG    1       -4.690  -1.777  -0.653  0.00  0.00    +0.380 HD
ENDBRANCH   7   8
BRANCH   1  10
ATOM     10  O   LIG    1       -1.339  -0.499   0.012  0.00  0.00    -0.350 OA
BRANCH  10  12
ATOM     11  C   LIG    1       -0.019   1.526   0.010  0.00  0.00    +0.060 C 
ATOM     12  C   LIG    1        0.002  -0.004   0.002  0.00  0.00    +0.150 C 
ENDBRANCH  10  12
ENDBRANCH   1  10
BRANCH   5  13
ATOM     13  C   LIG    1       -3.915  -5.417   2.296  0.00  0.00    +0.070 C 
BRANCH  13  14
ATOM     14  C   LIG    1       -4.190  -6.079   3.648  0.00  0.00    +0.290 C 
BRANCH  14  15
ATOM     15  N   LIG    1       -5.167  -7.162   3.474  0.00  0.00    -0.640 N 
ATOM     16  H   LIG    1       -5.348  -7.598   4.366  0.00  0.00    +0.440 HD
ATOM     17  H   LIG    1       -4.798  -7.848   2.833  0.00  0.00    +0.440 HD
ATOM     18  H   LIG    1       -6.026  -6.784   3.104  0.00  0.00    +0.440 HD
ENDBRANCH  14  15
ENDBRANCH  13  14
ENDBRANCH   5  13
TORSDOF 6
ENDMDL
MODEL      416
REMARK  Name = ZINC000409425954
REMARK                            x       y       z     vdW  Elec       q    Type
REMARK                         _______ _______ _______ _____ _____    ______ ____
ROOT
ATOM      1  C   LIG    1       -1.432  -1.925   0.005  0.00  0.00    +0.170 C 
ATOM      2  C   LIG    1       -1.597  -2.463  -1.438  0.00  0.00    +0.260 C 
ATOM      3  N   LIG    1       -2.272  -3.765  -1.280  0.00  0.00    -0.610 N 
ATOM      4  C   LIG    1       -3.008  -3.763  -0.006  0.00  0.00    +0.230 C 
ATOM      5  C   LIG    1       -2.222  -4.787  -2.156  0.00  0.00    +0.530 C 
ATOM      6  O   LIG    1       -1.580  -4.677  -3.180  0.00  0.00    -0.530 OA
ATOM      7  C   LIG    1       -2.752  -2.398   0.669  0.00  0.00    +0.190 C 
ENDROOT
BRANCH   7   8
ATOM      8  O   LIG    1       -2.586  -2.556   2.080  0.00  0.00    -0.550 OA
ATOM      9  H   LIG    1       -3.361  -2.922   2.528  0.00  0.00    +0.390 HD
ENDBRANCH   7   8
BRANCH   1  10
ATOM     10  O   LIG    1       -1.339  -0.499   0.012  0.00  0.00    -0.370 OA
BRANCH  10  12
ATOM     11  C   LIG    1       -0.019   1.526   0.010  0.00  0.00    +0.070 C 
ATOM     12  C   LIG    1        0.002  -0.004   0.002  0.00  0.00    +0.170 C 
ENDBRANCH  10  12
ENDBRANCH   1  10
BRANCH   5  13
ATOM     13  C   LIG    1       -2.964  -6.066  -1.865  0.00  0.00    +0.070 C 
BRANCH  13  14
ATOM     14  C   LIG    1       -2.743  -7.056  -3.012  0.00  0.00    +0.290 C 
BRANCH  14  15
ATOM     15  N   LIG    1       -3.466  -8.302  -2.728  0.00  0.00    -0.640 N 
ATOM     16  H   LIG    1       -3.321  -8.955  -3.484  0.00  0.00    +0.440 HD
ATOM     17  H   LIG    1       -4.452  -8.107  -2.638  0.00  0.00    +0.440 HD
ATOM     18  H   LIG    1       -3.123  -8.702  -1.868  0.00  0.00    +0.440 HD
ENDBRANCH  14  15
ENDBRANCH  13  14
ENDBRANCH   5  13
TORSDOF 6
ENDMDL
MODEL      417
REMARK  Name = ZINC000409426229
REMARK                            x       y       z     vdW  Elec       q    Type
REMARK                         _______ _______ _______ _____ _____    ______ ____
ROOT
ATOM      1  C   LIG    1       -1.356  -2.019   0.004  0.00  0.00    +0.500 C 
ATOM      2  N   LIG    1       -2.514  -2.709   0.011  0.00  0.00    -0.590 N 
ATOM      3  C   LIG    1       -3.785  -1.980   0.022  0.00  0.00    +0.270 C 
ATOM      4  C   LIG    1       -4.759  -2.579   1.059  0.00  0.00    +0.090 C 
ATOM      5  C   LIG    1       -4.804  -4.067   0.786  0.00  0.00    -0.010 C 
ATOM      6  C   LIG    1       -5.667  -4.939   1.643  0.00  0.00    +0.550 C 
ATOM      7  N   LIG    1       -5.013  -6.128   1.747  0.00  0.00    -0.700 N 
ATOM      8  H   LIG    1       -5.426  -6.933   2.098  0.00  0.00    +0.420 HD
ATOM      9  C   LIG    1       -3.726  -6.077   1.312  0.00  0.00    +0.550 C 
ATOM     10  O   LIG    1       -2.993  -7.018   1.093  0.00  0.00    -0.450 OA
ATOM     11  O   LIG    1       -6.731  -4.646   2.143  0.00  0.00    -0.450 OA
ATOM     12  C   LIG    1       -3.390  -4.622   1.137  0.00  0.00    -0.020 C 
ATOM     13  C   LIG    1       -2.478  -4.189   0.003  0.00  0.00    +0.360 C 
ATOM     14  O   LIG    1       -0.297  -2.611  -0.009  0.00  0.00    -0.520 OA
ENDROOT
BRANCH   1  15
ATOM     15  C   LIG    1       -1.376  -0.512   0.012  0.00  0.00    +0.290 C 
BRANCH  15  17
ATOM     16  C   LIG    1       -0.018   1.465   0.010  0.00  0.00    +0.340 C 
ATOM     17  N   LIG    1        0.002  -0.004   0.002  0.00  0.00    -0.500 N 
ATOM     18  H   LIG    1        0.490  -0.338   0.820  0.00  0.00    +0.440 HD
ATOM     19  H   LIG    1        0.474  -0.330  -0.828  0.00  0.00    +0.440 HD
ENDBRANCH  15  17
ENDBRANCH   1  15
TORSDOF 2
ENDMDL
MODEL      418
REMARK  Name = ZINC000409426235
REMARK                            x       y       z     vdW  Elec       q    Type
REMARK                         _______ _______ _______ _____ _____    ______ ____
ROOT
ATOM      1  C   LIG    1       -1.356  -2.019   0.004  0.00  0.00    +0.500 C 
ATOM      2  N   LIG    1       -2.514  -2.709   0.011  0.00  0.00    -0.580 N 
ATOM      3  C   LIG    1       -3.770  -1.975   0.021  0.00  0.00    +0.280 C 
ATOM      4  C   LIG    1       -4.701  -2.523   1.084  0.00  0.00    +0.080 C 
ATOM      5  C   LIG    1       -4.724  -4.004   1.207  0.00  0.00    +0.000 C 
ATOM      6  C   LIG    1       -5.813  -4.690   0.428  0.00  0.00    +0.530 C 
ATOM      7  N   LIG    1       -5.318  -5.846  -0.047  0.00  0.00    -0.680 N 
ATOM      8  H   LIG    1       -5.855  -6.483  -0.544  0.00  0.00    +0.420 HD
ATOM      9  C   LIG    1       -4.020  -6.043   0.224  0.00  0.00    +0.540 C 
ATOM     10  O   LIG    1       -3.385  -7.039  -0.050  0.00  0.00    -0.460 OA
ATOM     11  O   LIG    1       -6.939  -4.274   0.257  0.00  0.00    -0.460 OA
ATOM     12  C   LIG    1       -3.480  -4.810   0.910  0.00  0.00    +0.010 C 
ATOM     13  C   LIG    1       -2.467  -4.155   0.003  0.00  0.00    +0.320 C 
ATOM     14  O   LIG    1       -0.297  -2.611  -0.009  0.00  0.00    -0.520 OA
ENDROOT
BRANCH   1  15
ATOM     15  C   LIG    1       -1.376  -0.512   0.012  0.00  0.00    +0.290 C 
BRANCH  15  17
ATOM     16  C   LIG    1       -0.018   1.465   0.010  0.00  0.00    +0.340 C 
ATOM     17  N   LIG    1        0.002  -0.004   0.002  0.00  0.00    -0.500 N 
ATOM     18  H   LIG    1        0.490  -0.338   0.820  0.00  0.00    +0.440 HD
ATOM     19  H   LIG    1        0.474  -0.330  -0.828  0.00  0.00    +0.440 HD
ENDBRANCH  15  17
ENDBRANCH   1  15
TORSDOF 2
ENDMDL
MODEL      419
REMARK  Name = ZINC000409426233
REMARK                            x       y       z     vdW  Elec       q    Type
REMARK                         _______ _______ _______ _____ _____    ______ ____
ROOT
ATOM      1  C   LIG    1       -1.356  -2.019   0.004  0.00  0.00    +0.500 C 
ATOM      2  N   LIG    1       -2.514  -2.709   0.011  0.00  0.00    -0.590 N 
ATOM      3  C   LIG    1       -3.787  -1.983   0.021  0.00  0.00    +0.270 C 
ATOM      4  C   LIG    1       -4.776  -2.575  -1.002  0.00  0.00    +0.090 C 
ATOM      5  C   LIG    1       -4.805  -4.067  -0.767  0.00  0.00    -0.010 C 
ATOM      6  C   LIG    1       -5.658  -4.932  -1.640  0.00  0.00    +0.550 C 
ATOM      7  N   LIG    1       -4.995  -6.113  -1.762  0.00  0.00    -0.700 N 
ATOM      8  H   LIG    1       -5.400  -6.915  -2.127  0.00  0.00    +0.420 HD
ATOM      9  C   LIG    1       -3.709  -6.059  -1.322  0.00  0.00    +0.550 C 
ATOM     10  O   LIG    1       -2.970  -6.997  -1.117  0.00  0.00    -0.450 OA
ATOM     11  O   LIG    1       -6.724  -4.639  -2.138  0.00  0.00    -0.450 OA
ATOM     12  C   LIG    1       -3.389  -4.606  -1.133  0.00  0.00    -0.020 C 
ATOM     13  C   LIG    1       -2.481  -4.191   0.003  0.00  0.00    +0.360 C 
ATOM     14  O   LIG    1       -0.297  -2.611  -0.009  0.00  0.00    -0.520 OA
ENDROOT
BRANCH   1  15
ATOM     15  C   LIG    1       -1.376  -0.512   0.012  0.00  0.00    +0.290 C 
BRANCH  15  17
ATOM     16  C   LIG    1       -0.018   1.465   0.010  0.00  0.00    +0.340 C 
ATOM     17  N   LIG    1        0.002  -0.004   0.002  0.00  0.00    -0.500 N 
ATOM     18  H   LIG    1        0.490  -0.338   0.820  0.00  0.00    +0.440 HD
ATOM     19  H   LIG    1        0.474  -0.330  -0.828  0.00  0.00    +0.440 HD
ENDBRANCH  15  17
ENDBRANCH   1  15
TORSDOF 2
ENDMDL
MODEL      420
REMARK  Name = ZINC000409426232
REMARK                            x       y       z     vdW  Elec       q    Type
REMARK                         _______ _______ _______ _____ _____    ______ ____
ROOT
ATOM      1  C   LIG    1       -1.356  -2.019   0.004  0.00  0.00    +0.500 C 
ATOM      2  N   LIG    1       -2.514  -2.709   0.011  0.00  0.00    -0.580 N 
ATOM      3  C   LIG    1       -3.777  -1.986   0.021  0.00  0.00    +0.280 C 
ATOM      4  C   LIG    1       -4.710  -2.529   1.079  0.00  0.00    +0.050 C 
ATOM      5  C   LIG    1       -4.817  -4.035   1.123  0.00  0.00    +0.040 C 
ATOM      6  C   LIG    1       -5.114  -4.438   2.565  0.00  0.00    +0.530 C 
ATOM      7  N   LIG    1       -4.068  -5.125   3.046  0.00  0.00    -0.680 N 
ATOM      8  H   LIG    1       -4.018  -5.433   3.964  0.00  0.00    +0.420 HD
ATOM      9  C   LIG    1       -3.094  -5.349   2.148  0.00  0.00    +0.530 C 
ATOM     10  O   LIG    1       -2.034  -5.895   2.367  0.00  0.00    -0.460 OA
ATOM     11  O   LIG    1       -6.129  -4.179   3.176  0.00  0.00    -0.460 OA
ATOM     12  C   LIG    1       -3.553  -4.804   0.810  0.00  0.00    -0.010 C 
ATOM     13  C   LIG    1       -2.479  -4.160   0.003  0.00  0.00    +0.340 C 
ATOM     14  O   LIG    1       -0.297  -2.611  -0.009  0.00  0.00    -0.520 OA
ENDROOT
BRANCH   1  15
ATOM     15  C   LIG    1       -1.376  -0.512   0.012  0.00  0.00    +0.290 C 
BRANCH  15  17
ATOM     16  C   LIG    1       -0.018   1.465   0.010  0.00  0.00    +0.340 C 
ATOM     17  N   LIG    1        0.002  -0.004   0.002  0.00  0.00    -0.500 N 
ATOM     18  H   LIG    1        0.490  -0.338   0.820  0.00  0.00    +0.440 HD
ATOM     19  H   LIG    1        0.474  -0.330  -0.828  0.00  0.00    +0.440 HD
ENDBRANCH  15  17
ENDBRANCH   1  15
TORSDOF 2
ENDMDL
MODEL      421
REMARK  Name = ZINC000409426368
REMARK                            x       y       z     vdW  Elec       q    Type
REMARK                         _______ _______ _______ _____ _____    ______ ____
ROOT
ATOM      1  C   LIG    1       -1.425   3.494   2.465  0.00  0.00    +0.540 C 
ATOM      2  N   LIG    1       -1.564   4.816   2.686  0.00  0.00    -0.610 N 
ATOM      3  C   LIG    1       -1.084   5.889   1.802  0.00  0.00    +0.240 C 
ATOM      4  C   LIG    1       -1.491   7.231   2.447  0.00  0.00    +0.180 C 
ATOM      5  C   LIG    1       -2.672   6.829   3.370  0.00  0.00    +0.260 C 
ATOM      6  C   LIG    1       -2.229   5.427   3.852  0.00  0.00    +0.290 C 
ATOM      7  O   LIG    1       -1.868   2.696   3.263  0.00  0.00    -0.520 OA
ENDROOT
BRANCH   5   8
ATOM      8  N   LIG    1       -2.799   7.758   4.495  0.00  0.00    -0.460 N 
ATOM      9  C   LIG    1       -3.891   8.527   4.794  0.00  0.00    +0.140 A 
ATOM     10  C   LIG    1       -3.583   9.228   5.902  0.00  0.00    +0.160 A 
ATOM     11  N   LIG    1       -2.336   8.896   6.269  0.00  0.00    -0.480 NA
ATOM     12  C   LIG    1       -1.862   8.013   5.434  0.00  0.00    +0.380 A 
ENDBRANCH   5   8
BRANCH   4  13
ATOM     13  O   LIG    1       -1.918   8.161   1.450  0.00  0.00    -0.540 OA
ATOM     14  H   LIG    1       -1.236   8.385   0.803  0.00  0.00    +0.390 HD
ENDBRANCH   4  13
BRANCH   1  15
ATOM     15  C   LIG    1       -0.720   3.008   1.225  0.00  0.00    +0.070 C 
BRANCH  15  16
ATOM     16  C   LIG    1       -0.699   1.479   1.216  0.00  0.00    +0.290 C 
BRANCH  16  17
ATOM     17  N   LIG    1       -0.012   1.005   0.008  0.00  0.00    -0.640 N 
ATOM     18  H   LIG    1       -0.500   1.339  -0.810  0.00  0.00    +0.440 HD
ATOM     19  H   LIG    1        0.935   1.354   0.000  0.00  0.00    +0.440 HD
ATOM     20  H   LIG    1        0.002  -0.004   0.002  0.00  0.00    +0.440 HD
ENDBRANCH  16  17
ENDBRANCH  15  16
ENDBRANCH   1  15
TORSDOF 5
ENDMDL
MODEL      422
REMARK  Name = ZINC000409426365
REMARK                            x       y       z     vdW  Elec       q    Type
REMARK                         _______ _______ _______ _____ _____    ______ ____
ROOT
ATOM      1  C   LIG    1       -0.665   1.458   3.696  0.00  0.00    +0.540 C 
ATOM      2  N   LIG    1       -0.188   1.132   4.913  0.00  0.00    -0.610 N 
ATOM      3  C   LIG    1       -0.780   1.533   6.203  0.00  0.00    +0.300 C 
ATOM      4  C   LIG    1       -0.296   0.461   7.211  0.00  0.00    +0.270 C 
ATOM      5  C   LIG    1        1.146   0.187   6.707  0.00  0.00    +0.190 C 
ATOM      6  C   LIG    1        1.004   0.313   5.176  0.00  0.00    +0.230 C 
ATOM      7  O   LIG    1       -1.661   2.142   3.598  0.00  0.00    -0.520 OA
ENDROOT
BRANCH   4   8
ATOM      8  N   LIG    1       -1.120  -0.748   7.129  0.00  0.00    -0.440 N 
ATOM      9  C   LIG    1       -1.845  -1.308   8.146  0.00  0.00    +0.130 A 
ATOM     10  C   LIG    1       -2.449  -2.399   7.639  0.00  0.00    +0.150 A 
ATOM     11  N   LIG    1       -2.103  -2.502   6.347  0.00  0.00    -0.490 NA
ATOM     12  C   LIG    1       -1.311  -1.514   6.033  0.00  0.00    +0.380 A 
ENDBRANCH   4   8
BRANCH   5  13
ATOM     13  O   LIG    1        1.567  -1.129   7.071  0.00  0.00    -0.540 OA
ATOM     14  H   LIG    1        2.462  -1.350   6.779  0.00  0.00    +0.390 HD
ENDBRANCH   5  13
BRANCH   1  15
ATOM     15  C   LIG    1        0.041   0.972   2.456  0.00  0.00    +0.070 C 
BRANCH  15  16
ATOM     16  C   LIG    1       -0.699   1.479   1.216  0.00  0.00    +0.290 C 
BRANCH  16  17
ATOM     17  N   LIG    1       -0.012   1.005   0.008  0.00  0.00    -0.640 N 
ATOM     18  H   LIG    1       -0.500   1.339  -0.810  0.00  0.00    +0.440 HD
ATOM     19  H   LIG    1        0.935   1.354   0.000  0.00  0.00    +0.440 HD
ATOM     20  H   LIG    1        0.002  -0.004   0.002  0.00  0.00    +0.440 HD
ENDBRANCH  16  17
ENDBRANCH  15  16
ENDBRANCH   1  15
TORSDOF 5
ENDMDL
MODEL      423
REMARK  Name = ZINC000409426366
REMARK                            x       y       z     vdW  Elec       q    Type
REMARK                         _______ _______ _______ _____ _____    ______ ____
ROOT
ATOM      1  C   LIG    1       -1.425   3.494   2.465  0.00  0.00    +0.540 C 
ATOM      2  N   LIG    1       -1.564   4.816   2.686  0.00  0.00    -0.610 N 
ATOM      3  C   LIG    1       -1.083   5.892   1.800  0.00  0.00    +0.240 C 
ATOM      4  C   LIG    1       -1.982   7.109   2.129  0.00  0.00    +0.180 C 
ATOM      5  C   LIG    1       -2.166   6.956   3.662  0.00  0.00    +0.270 C 
ATOM      6  C   LIG    1       -2.227   5.425   3.849  0.00  0.00    +0.280 C 
ATOM      7  O   LIG    1       -1.868   2.696   3.263  0.00  0.00    -0.520 OA
ENDROOT
BRANCH   5   8
ATOM      8  N   LIG    1       -3.416   7.582   4.099  0.00  0.00    -0.460 N 
ATOM      9  C   LIG    1       -3.540   8.610   4.995  0.00  0.00    +0.120 A 
ATOM     10  C   LIG    1       -4.856   8.874   5.105  0.00  0.00    +0.150 A 
ATOM     11  N   LIG    1       -5.518   8.031   4.298  0.00  0.00    -0.500 NA
ATOM     12  C   LIG    1       -4.661   7.258   3.688  0.00  0.00    +0.420 A 
ENDBRANCH   5   8
BRANCH   4  13
ATOM     13  O   LIG    1       -3.236   7.018   1.450  0.00  0.00    -0.540 OA
ATOM     14  H   LIG    1       -3.162   7.011   0.485  0.00  0.00    +0.390 HD
ENDBRANCH   4  13
BRANCH   1  15
ATOM     15  C   LIG    1       -0.720   3.008   1.225  0.00  0.00    +0.070 C 
BRANCH  15  16
ATOM     16  C   LIG    1       -0.699   1.479   1.216  0.00  0.00    +0.290 C 
BRANCH  16  17
ATOM     17  N   LIG    1       -0.012   1.005   0.008  0.00  0.00    -0.640 N 
ATOM     18  H   LIG    1       -0.500   1.339  -0.810  0.00  0.00    +0.440 HD
ATOM     19  H   LIG    1        0.935   1.354   0.000  0.00  0.00    +0.440 HD
ATOM     20  H   LIG    1        0.002  -0.004   0.002  0.00  0.00    +0.440 HD
ENDBRANCH  16  17
ENDBRANCH  15  16
ENDBRANCH   1  15
TORSDOF 5
ENDMDL
MODEL      424
REMARK  Name = ZINC000409426367
REMARK                            x       y       z     vdW  Elec       q    Type
REMARK                         _______ _______ _______ _____ _____    ______ ____
ROOT
ATOM      1  C   LIG    1       -1.425   3.494   2.465  0.00  0.00    +0.540 C 
ATOM      2  N   LIG    1       -1.564   4.816   2.686  0.00  0.00    -0.610 N 
ATOM      3  C   LIG    1       -1.083   5.892   1.800  0.00  0.00    +0.240 C 
ATOM      4  C   LIG    1       -1.982   7.109   2.129  0.00  0.00    +0.170 C 
ATOM      5  C   LIG    1       -2.166   6.956   3.662  0.00  0.00    +0.260 C 
ATOM      6  C   LIG    1       -2.227   5.425   3.849  0.00  0.00    +0.290 C 
ATOM      7  O   LIG    1       -1.868   2.696   3.263  0.00  0.00    -0.520 OA
ENDROOT
BRANCH   5   8
ATOM      8  N   LIG    1       -3.416   7.582   4.099  0.00  0.00    -0.460 N 
ATOM      9  C   LIG    1       -3.540   8.610   4.995  0.00  0.00    +0.140 A 
ATOM     10  C   LIG    1       -4.856   8.874   5.105  0.00  0.00    +0.160 A 
ATOM     11  N   LIG    1       -5.518   8.031   4.298  0.00  0.00    -0.480 NA
ATOM     12  C   LIG    1       -4.661   7.258   3.688  0.00  0.00    +0.370 A 
ENDBRANCH   5   8
BRANCH   4  13
ATOM     13  O   LIG    1       -1.320   8.335   1.812  0.00  0.00    -0.540 OA
ATOM     14  H   LIG    1       -1.096   8.431   0.876  0.00  0.00    +0.390 HD
ENDBRANCH   4  13
BRANCH   1  15
ATOM     15  C   LIG    1       -0.720   3.008   1.225  0.00  0.00    +0.070 C 
BRANCH  15  16
ATOM     16  C   LIG    1       -0.699   1.479   1.216  0.00  0.00    +0.290 C 
BRANCH  16  17
ATOM     17  N   LIG    1       -0.012   1.005   0.008  0.00  0.00    -0.640 N 
ATOM     18  H   LIG    1       -0.500   1.339  -0.810  0.00  0.00    +0.440 HD
ATOM     19  H   LIG    1        0.935   1.354   0.000  0.00  0.00    +0.440 HD
ATOM     20  H   LIG    1        0.002  -0.004   0.002  0.00  0.00    +0.440 HD
ENDBRANCH  16  17
ENDBRANCH  15  16
ENDBRANCH   1  15
TORSDOF 5
ENDMDL
MODEL      425
REMARK  Name = ZINC000409431875
REMARK                            x       y       z     vdW  Elec       q    Type
REMARK                         _______ _______ _______ _____ _____    ______ ____
ROOT
ATOM      1  C   LIG    1        0.707  -0.490  -1.238  0.00  0.00    +0.520 C 
ATOM      2  N   LIG    1        0.053  -0.526  -2.415  0.00  0.00    -0.610 N 
ATOM      3  C   LIG    1       -1.370  -0.111  -2.647  0.00  0.00    +0.360 C 
ATOM      4  C   LIG    1       -1.717  -0.870  -3.865  0.00  0.00    -0.060 C 
ATOM      5  C   LIG    1       -2.746  -0.909  -4.877  0.00  0.00    +0.580 C 
ATOM      6  N   LIG    1       -2.156  -1.532  -5.949  0.00  0.00    -0.600 N 
ATOM      7  C   LIG    1       -0.798  -1.619  -5.826  0.00  0.00    +0.550 C 
ATOM      8  O   LIG    1       -0.050  -2.339  -6.452  0.00  0.00    -0.440 OA
ATOM      9  C   LIG    1       -2.902  -2.047  -7.100  0.00  0.00    +0.330 C 
ATOM     10  O   LIG    1       -3.879  -0.485  -4.798  0.00  0.00    -0.440 OA
ATOM     11  C   LIG    1       -0.438  -0.614  -4.761  0.00  0.00    +0.000 C 
ATOM     12  C   LIG    1        0.616  -0.979  -3.718  0.00  0.00    +0.340 C 
ATOM     13  O   LIG    1        1.864  -0.849  -1.176  0.00  0.00    -0.520 OA
ENDROOT
BRANCH   1  15
ATOM     14  C   LIG    1       -0.019   1.526   0.010  0.00  0.00    +0.120 C 
ATOM     15  C   LIG    1        0.002  -0.004   0.002  0.00  0.00    +0.180 C 
BRANCH  15  16
ATOM     16  N   LIG    1        0.713  -0.491   1.192  0.00  0.00    -0.620 N 
ATOM     17  H   LIG    1        0.726  -1.500   1.187  0.00  0.00    +0.440 HD
ATOM     18  H   LIG    1        0.240  -0.165   2.022  0.00  0.00    +0.450 HD
ATOM     19  H   LIG    1        1.659  -0.141   1.185  0.00  0.00    +0.440 HD
ENDBRANCH  15  16
ENDBRANCH   1  15
TORSDOF 2
ENDMDL
MODEL      426
REMARK  Name = ZINC000409431874
REMARK                            x       y       z     vdW  Elec       q    Type
REMARK                         _______ _______ _______ _____ _____    ______ ____
ROOT
ATOM      1  C   LIG    1       -1.412  -0.526   0.013  0.00  0.00    +0.530 C 
ATOM      2  N   LIG    1       -2.125  -0.563  -1.130  0.00  0.00    -0.600 N 
ATOM      3  C   LIG    1       -1.694  -0.145  -2.484  0.00  0.00    +0.320 C 
ATOM      4  C   LIG    1       -2.287  -1.209  -3.431  0.00  0.00    +0.010 C 
ATOM      5  C   LIG    1       -2.915  -0.521  -4.622  0.00  0.00    +0.530 C 
ATOM      6  N   LIG    1       -4.245  -0.663  -4.567  0.00  0.00    -0.570 N 
ATOM      7  C   LIG    1       -4.686  -1.355  -3.510  0.00  0.00    +0.530 C 
ATOM      8  O   LIG    1       -5.848  -1.600  -3.268  0.00  0.00    -0.450 OA
ATOM      9  C   LIG    1       -5.144  -0.108  -5.581  0.00  0.00    +0.320 C 
ATOM     10  O   LIG    1       -2.309   0.067  -5.491  0.00  0.00    -0.460 OA
ATOM     11  C   LIG    1       -3.498  -1.797  -2.656  0.00  0.00    +0.020 C 
ATOM     12  C   LIG    1       -3.515  -1.036  -1.319  0.00  0.00    +0.330 C 
ATOM     13  O   LIG    1       -1.908  -0.912   1.050  0.00  0.00    -0.510 OA
ENDROOT
BRANCH   1  15
ATOM     14  C   LIG    1       -0.019   1.526   0.010  0.00  0.00    +0.120 C 
ATOM     15  C   LIG    1        0.002  -0.004   0.002  0.00  0.00    +0.180 C 
BRANCH  15  16
ATOM     16  N   LIG    1        0.713  -0.491   1.192  0.00  0.00    -0.620 N 
ATOM     17  H   LIG    1        1.659  -0.141   1.185  0.00  0.00    +0.450 HD
ATOM     18  H   LIG    1        0.726  -1.500   1.187  0.00  0.00    +0.440 HD
ATOM     19  H   LIG    1        0.240  -0.165   2.022  0.00  0.00    +0.440 HD
ENDBRANCH  15  16
ENDBRANCH   1  15
TORSDOF 2
ENDMDL
MODEL      427
REMARK  Name = ZINC000409431872
REMARK                            x       y       z     vdW  Elec       q    Type
REMARK                         _______ _______ _______ _____ _____    ______ ____
ROOT
ATOM      1  C   LIG    1        0.707  -0.490  -1.238  0.00  0.00    +0.520 C 
ATOM      2  N   LIG    1        0.053  -0.526  -2.415  0.00  0.00    -0.610 N 
ATOM      3  C   LIG    1       -1.366  -0.112  -2.650  0.00  0.00    +0.340 C 
ATOM      4  C   LIG    1       -1.540  -0.221  -4.108  0.00  0.00    -0.070 C 
ATOM      5  C   LIG    1       -2.602  -0.364  -5.079  0.00  0.00    +0.580 C 
ATOM      6  N   LIG    1       -1.976  -0.829  -6.209  0.00  0.00    -0.600 N 
ATOM      7  C   LIG    1       -0.704  -1.265  -5.966  0.00  0.00    +0.540 C 
ATOM      8  O   LIG    1        0.171  -1.461  -6.782  0.00  0.00    -0.440 OA
ATOM      9  C   LIG    1       -2.603  -0.853  -7.533  0.00  0.00    +0.330 C 
ATOM     10  O   LIG    1       -3.781  -0.126  -4.929  0.00  0.00    -0.450 OA
ATOM     11  C   LIG    1       -0.636  -1.468  -4.473  0.00  0.00    +0.000 C 
ATOM     12  C   LIG    1        0.615  -0.980  -3.725  0.00  0.00    +0.340 C 
ATOM     13  O   LIG    1        1.864  -0.849  -1.176  0.00  0.00    -0.520 OA
ENDROOT
BRANCH   1  15
ATOM     14  C   LIG    1       -0.019   1.526   0.010  0.00  0.00    +0.120 C 
ATOM     15  C   LIG    1        0.002  -0.004   0.002  0.00  0.00    +0.180 C 
BRANCH  15  16
ATOM     16  N   LIG    1        0.713  -0.491   1.192  0.00  0.00    -0.620 N 
ATOM     17  H   LIG    1        0.726  -1.500   1.187  0.00  0.00    +0.440 HD
ATOM     18  H   LIG    1        0.240  -0.165   2.022  0.00  0.00    +0.440 HD
ATOM     19  H   LIG    1        1.659  -0.141   1.185  0.00  0.00    +0.440 HD
ENDBRANCH  15  16
ENDBRANCH   1  15
TORSDOF 2
ENDMDL
MODEL      428
REMARK  Name = ZINC000409431873
REMARK                            x       y       z     vdW  Elec       q    Type
REMARK                         _______ _______ _______ _____ _____    ______ ____
ROOT
ATOM      1  C   LIG    1        0.707  -0.490  -1.238  0.00  0.00    +0.530 C 
ATOM      2  N   LIG    1        0.053  -0.526  -2.415  0.00  0.00    -0.600 N 
ATOM      3  C   LIG    1       -1.347  -0.127  -2.689  0.00  0.00    +0.310 C 
ATOM      4  C   LIG    1       -1.290   0.591  -4.054  0.00  0.00    +0.010 C 
ATOM      5  C   LIG    1       -2.425   0.097  -4.923  0.00  0.00    +0.530 C 
ATOM      6  N   LIG    1       -1.929  -0.626  -5.933  0.00  0.00    -0.570 N 
ATOM      7  C   LIG    1       -0.596  -0.737  -5.934  0.00  0.00    +0.530 C 
ATOM      8  O   LIG    1        0.056  -1.346  -6.755  0.00  0.00    -0.450 OA
ATOM      9  C   LIG    1       -2.776  -1.246  -6.955  0.00  0.00    +0.320 C 
ATOM     10  O   LIG    1       -3.601   0.323  -4.734  0.00  0.00    -0.460 OA
ATOM     11  C   LIG    1       -0.018   0.029  -4.744  0.00  0.00    +0.020 C 
ATOM     12  C   LIG    1        0.571  -0.968  -3.730  0.00  0.00    +0.330 C 
ATOM     13  O   LIG    1        1.864  -0.849  -1.176  0.00  0.00    -0.510 OA
ENDROOT
BRANCH   1  15
ATOM     14  C   LIG    1       -0.019   1.526   0.010  0.00  0.00    +0.120 C 
ATOM     15  C   LIG    1        0.002  -0.004   0.002  0.00  0.00    +0.180 C 
BRANCH  15  16
ATOM     16  N   LIG    1        0.713  -0.491   1.192  0.00  0.00    -0.620 N 
ATOM     17  H   LIG    1        0.726  -1.500   1.187  0.00  0.00    +0.440 HD
ATOM     18  H   LIG    1        0.240  -0.165   2.022  0.00  0.00    +0.450 HD
ATOM     19  H   LIG    1        1.659  -0.141   1.185  0.00  0.00    +0.440 HD
ENDBRANCH  15  16
ENDBRANCH   1  15
TORSDOF 2
ENDMDL
MODEL      429
REMARK  Name = ZINC000409431381
REMARK                            x       y       z     vdW  Elec       q    Type
REMARK                         _______ _______ _______ _____ _____    ______ ____
ROOT
ATOM      1  C   LIG    1       -1.631   4.823  -0.006  0.00  0.00    +0.370 A 
ATOM      2  C   LIG    1       -2.387   5.360  -1.040  0.00  0.00    -0.120 A 
ATOM      3  C   LIG    1       -2.481   6.746  -1.138  0.00  0.00    +0.390 A 
ATOM      4  N   LIG    1       -1.848   7.501  -0.243  0.00  0.00    -0.500 NA
ATOM      5  C   LIG    1       -1.141   6.952   0.724  0.00  0.00    +0.580 A 
ATOM      6  N   LIG    1       -1.033   5.646   0.851  0.00  0.00    -0.580 NA
ENDROOT
BRANCH   3   7
ATOM      7  N   LIG    1       -3.224   7.330  -2.152  0.00  0.00    -0.490 N 
ATOM      8  C   LIG    1       -4.658   7.045  -1.988  0.00  0.00    +0.210 C 
ATOM      9  C   LIG    1       -5.451   7.952  -2.931  0.00  0.00    +0.290 C 
ATOM     10  N   LIG    1       -4.903   7.869  -4.282  0.00  0.00    -0.720 N 
ATOM     11  H   LIG    1       -5.451   8.168  -5.024  0.00  0.00    +0.410 HD
ATOM     12  C   LIG    1       -3.679   7.397  -4.542  0.00  0.00    +0.530 C 
ATOM     13  O   LIG    1       -3.290   7.392  -5.691  0.00  0.00    -0.540 OA
ATOM     14  C   LIG    1       -2.765   6.874  -3.471  0.00  0.00    +0.250 C 
ENDBRANCH   3   7
BRANCH   1  15
ATOM     15  O   LIG    1       -1.510   3.480   0.131  0.00  0.00    -0.320 OA
BRANCH  15  16
ATOM     16  C   LIG    1       -0.720   3.008   1.225  0.00  0.00    +0.250 C 
BRANCH  16  17
ATOM     17  C   LIG    1       -0.699   1.479   1.216  0.00  0.00    +0.310 C 
BRANCH  17  18
ATOM     18  N   LIG    1       -0.012   1.005   0.008  0.00  0.00    -0.640 N 
ATOM     19  H   LIG    1       -0.500   1.339  -0.810  0.00  0.00    +0.440 HD
ATOM     20  H   LIG    1        0.935   1.354   0.000  0.00  0.00    +0.440 HD
ATOM     21  H   LIG    1        0.002  -0.004   0.002  0.00  0.00    +0.440 HD
ENDBRANCH  17  18
ENDBRANCH  16  17
ENDBRANCH  15  16
ENDBRANCH   1  15
TORSDOF 5
ENDMDL
MODEL      430
REMARK  Name = ZINC000409432486
REMARK                            x       y       z     vdW  Elec       q    Type
REMARK                         _______ _______ _______ _____ _____    ______ ____
ROOT
ATOM      1  N   LIG    1       -1.372  -0.511   0.012  0.00  0.00    -0.600 N 
ATOM      2  C   LIG    1       -2.078  -0.775   1.159  0.00  0.00    +0.570 C 
ATOM      3  C   LIG    1       -3.466  -0.907   0.723  0.00  0.00    -0.040 C 
ATOM      4  C   LIG    1       -4.629  -1.686   1.220  0.00  0.00    +0.360 C 
ATOM      5  N   LIG    1       -5.441  -1.971  -0.003  0.00  0.00    -0.610 N 
ATOM      6  C   LIG    1       -4.655  -1.502  -1.189  0.00  0.00    +0.330 C 
ATOM      7  C   LIG    1       -6.660  -2.546  -0.033  0.00  0.00    +0.520 C 
ATOM      8  O   LIG    1       -7.196  -2.884   1.001  0.00  0.00    -0.520 OA
ATOM      9  C   LIG    1       -3.234  -1.606  -0.675  0.00  0.00    -0.020 C 
ATOM     10  O   LIG    1       -1.645  -0.877   2.287  0.00  0.00    -0.440 OA
ATOM     11  C   LIG    1       -2.097  -0.768  -1.122  0.00  0.00    +0.560 C 
ATOM     12  O   LIG    1       -1.863  -0.386  -2.248  0.00  0.00    -0.450 OA
ENDROOT
BRANCH   1  14
ATOM     13  C   LIG    1       -0.019   1.526   0.010  0.00  0.00    +0.030 C 
ATOM     14  C   LIG    1        0.002  -0.004   0.002  0.00  0.00    +0.300 C 
ENDBRANCH   1  14
BRANCH   7  15
ATOM     15  C   LIG    1       -7.356  -2.769  -1.351  0.00  0.00    +0.290 C 
BRANCH  15  16
ATOM     16  N   LIG    1       -8.659  -3.405  -1.115  0.00  0.00    -0.500 N 
ATOM     17  C   LIG    1       -9.338  -3.623  -2.400  0.00  0.00    +0.340 C 
ATOM     18  H   LIG    1       -9.225  -2.807  -0.533  0.00  0.00    +0.440 HD
ATOM     19  H   LIG    1       -8.522  -4.292  -0.653  0.00  0.00    +0.440 HD
ENDBRANCH  15  16
ENDBRANCH   7  15
TORSDOF 3
ENDMDL
MODEL      431
REMARK  Name = ZINC000409432487
REMARK                            x       y       z     vdW  Elec       q    Type
REMARK                         _______ _______ _______ _____ _____    ______ ____
ROOT
ATOM      1  N   LIG    1       -1.372  -0.511   0.012  0.00  0.00    -0.570 N 
ATOM      2  C   LIG    1       -2.042  -0.762   1.143  0.00  0.00    +0.530 C 
ATOM      3  C   LIG    1       -3.426  -1.271   0.804  0.00  0.00    +0.020 C 
ATOM      4  C   LIG    1       -4.471  -0.215   1.222  0.00  0.00    +0.340 C 
ATOM      5  N   LIG    1       -4.562   0.704   0.065  0.00  0.00    -0.610 N 
ATOM      6  C   LIG    1       -4.499  -0.188  -1.116  0.00  0.00    +0.320 C 
ATOM      7  C   LIG    1       -4.677   2.046   0.082  0.00  0.00    +0.520 C 
ATOM      8  O   LIG    1       -4.715   2.638   1.139  0.00  0.00    -0.520 OA
ATOM      9  C   LIG    1       -3.438  -1.270  -0.748  0.00  0.00    +0.020 C 
ATOM     10  O   LIG    1       -1.609  -0.606   2.264  0.00  0.00    -0.460 OA
ATOM     11  C   LIG    1       -2.062  -0.756  -1.108  0.00  0.00    +0.530 C 
ATOM     12  O   LIG    1       -1.652  -0.582  -2.235  0.00  0.00    -0.470 OA
ENDROOT
BRANCH   1  14
ATOM     13  C   LIG    1       -0.019   1.526   0.010  0.00  0.00    +0.030 C 
ATOM     14  C   LIG    1        0.002  -0.004   0.002  0.00  0.00    +0.290 C 
ENDBRANCH   1  14
BRANCH   7  15
ATOM     15  C   LIG    1       -4.756   2.812  -1.214  0.00  0.00    +0.300 C 
BRANCH  15  16
ATOM     16  N   LIG    1       -4.876   4.248  -0.927  0.00  0.00    -0.500 N 
ATOM     17  C   LIG    1       -4.954   4.995  -2.190  0.00  0.00    +0.340 C 
ATOM     18  H   LIG    1       -4.069   4.555  -0.404  0.00  0.00    +0.440 HD
ATOM     19  H   LIG    1       -5.711   4.415  -0.386  0.00  0.00    +0.440 HD
ENDBRANCH  15  16
ENDBRANCH   7  15
TORSDOF 3
ENDMDL
MODEL      432
REMARK  Name = ZINC000409432489
REMARK                            x       y       z     vdW  Elec       q    Type
REMARK                         _______ _______ _______ _____ _____    ______ ____
ROOT
ATOM      1  N   LIG    1       -1.372  -0.511   0.012  0.00  0.00    -0.600 N 
ATOM      2  C   LIG    1       -2.077  -0.775   1.161  0.00  0.00    +0.580 C 
ATOM      3  C   LIG    1       -3.221  -1.535   0.724  0.00  0.00    -0.070 C 
ATOM      4  C   LIG    1       -4.577  -1.908   1.164  0.00  0.00    +0.370 C 
ATOM      5  N   LIG    1       -5.150  -2.531  -0.074  0.00  0.00    -0.610 N 
ATOM      6  C   LIG    1       -4.394  -2.005  -1.245  0.00  0.00    +0.310 C 
ATOM      7  C   LIG    1       -6.168  -3.413  -0.119  0.00  0.00    +0.520 C 
ATOM      8  O   LIG    1       -6.708  -3.768   0.907  0.00  0.00    -0.520 OA
ATOM      9  C   LIG    1       -3.526  -0.871  -0.678  0.00  0.00    +0.020 C 
ATOM     10  O   LIG    1       -1.798  -0.442   2.293  0.00  0.00    -0.440 OA
ATOM     11  C   LIG    1       -2.093  -0.767  -1.119  0.00  0.00    +0.550 C 
ATOM     12  O   LIG    1       -1.663  -0.899  -2.245  0.00  0.00    -0.450 OA
ENDROOT
BRANCH   1  14
ATOM     13  C   LIG    1       -0.019   1.526   0.010  0.00  0.00    +0.040 C 
ATOM     14  C   LIG    1        0.002  -0.004   0.002  0.00  0.00    +0.300 C 
ENDBRANCH   1  14
BRANCH   7  15
ATOM     15  C   LIG    1       -6.637  -3.956  -1.444  0.00  0.00    +0.290 C 
BRANCH  15  16
ATOM     16  N   LIG    1       -7.750  -4.889  -1.225  0.00  0.00    -0.500 N 
ATOM     17  C   LIG    1       -8.206  -5.419  -2.517  0.00  0.00    +0.340 C 
ATOM     18  H   LIG    1       -8.510  -4.406  -0.772  0.00  0.00    +0.440 HD
ATOM     19  H   LIG    1       -7.439  -5.651  -0.641  0.00  0.00    +0.440 HD
ENDBRANCH  15  16
ENDBRANCH   7  15
TORSDOF 3
ENDMDL
MODEL      433
REMARK  Name = ZINC000409432248
REMARK                            x       y       z     vdW  Elec       q    Type
REMARK                         _______ _______ _______ _____ _____    ______ ____
ROOT
ATOM      1  C   LIG    1        0.710  -1.985  -1.215  0.00  0.00    +0.520 C 
ATOM      2  N   LIG    1        1.293  -2.645  -2.235  0.00  0.00    -0.610 N 
ATOM      3  C   LIG    1        1.966  -2.071  -3.423  0.00  0.00    +0.320 C 
ATOM      4  C   LIG    1        3.198  -2.971  -3.650  0.00  0.00    +0.010 C 
ATOM      5  C   LIG    1        3.307  -3.304  -5.120  0.00  0.00    +0.530 C 
ATOM      6  N   LIG    1        3.045  -4.604  -5.302  0.00  0.00    -0.570 N 
ATOM      7  C   LIG    1        2.759  -5.275  -4.180  0.00  0.00    +0.530 C 
ATOM      8  O   LIG    1        2.493  -6.456  -4.119  0.00  0.00    -0.450 OA
ATOM      9  C   LIG    1        3.069  -5.240  -6.622  0.00  0.00    +0.320 C 
ATOM     10  O   LIG    1        3.589  -2.517  -5.998  0.00  0.00    -0.460 OA
ATOM     11  C   LIG    1        2.827  -4.324  -2.985  0.00  0.00    +0.020 C 
ATOM     12  C   LIG    1        1.412  -4.110  -2.419  0.00  0.00    +0.330 C 
ATOM     13  O   LIG    1        0.202  -2.603  -0.304  0.00  0.00    -0.520 OA
ENDROOT
BRANCH   1  14
ATOM     14  C   LIG    1        0.690  -0.478  -1.207  0.00  0.00    +0.290 C 
BRANCH  14  16
ATOM     15  C   LIG    1       -0.018   1.465   0.010  0.00  0.00    +0.340 C 
ATOM     16  N   LIG    1        0.002  -0.004   0.002  0.00  0.00    -0.500 N 
ATOM     17  H   LIG    1       -0.945  -0.353   0.009  0.00  0.00    +0.440 HD
ATOM     18  H   LIG    1        0.490  -0.338   0.820  0.00  0.00    +0.440 HD
ENDBRANCH  14  16
ENDBRANCH   1  14
TORSDOF 2
ENDMDL
MODEL      434
REMARK  Name = ZINC000409432247
REMARK                            x       y       z     vdW  Elec       q    Type
REMARK                         _______ _______ _______ _____ _____    ______ ____
ROOT
ATOM      1  C   LIG    1        0.710  -1.985  -1.215  0.00  0.00    +0.520 C 
ATOM      2  N   LIG    1        1.293  -2.645  -2.235  0.00  0.00    -0.610 N 
ATOM      3  C   LIG    1        1.964  -2.026  -3.420  0.00  0.00    +0.340 C 
ATOM      4  C   LIG    1        2.538  -3.167  -4.151  0.00  0.00    -0.070 C 
ATOM      5  C   LIG    1        2.993  -3.501  -5.482  0.00  0.00    +0.580 C 
ATOM      6  N   LIG    1        2.995  -4.874  -5.511  0.00  0.00    -0.600 N 
ATOM      7  C   LIG    1        2.321  -5.425  -4.458  0.00  0.00    +0.540 C 
ATOM      8  O   LIG    1        2.386  -6.570  -4.066  0.00  0.00    -0.440 OA
ATOM      9  C   LIG    1        3.649  -5.662  -6.558  0.00  0.00    +0.330 C 
ATOM     10  O   LIG    1        3.303  -2.740  -6.373  0.00  0.00    -0.450 OA
ATOM     11  C   LIG    1        1.470  -4.308  -3.907  0.00  0.00    +0.000 C 
ATOM     12  C   LIG    1        1.393  -4.130  -2.384  0.00  0.00    +0.340 C 
ATOM     13  O   LIG    1        0.202  -2.603  -0.304  0.00  0.00    -0.520 OA
ENDROOT
BRANCH   1  14
ATOM     14  C   LIG    1        0.690  -0.478  -1.207  0.00  0.00    +0.290 C 
BRANCH  14  16
ATOM     15  C   LIG    1       -0.018   1.465   0.010  0.00  0.00    +0.340 C 
ATOM     16  N   LIG    1        0.002  -0.004   0.002  0.00  0.00    -0.500 N 
ATOM     17  H   LIG    1       -0.945  -0.353   0.009  0.00  0.00    +0.440 HD
ATOM     18  H   LIG    1        0.490  -0.338   0.820  0.00  0.00    +0.440 HD
ENDBRANCH  14  16
ENDBRANCH   1  14
TORSDOF 2
ENDMDL
MODEL      435
REMARK  Name = ZINC000409432249
REMARK                            x       y       z     vdW  Elec       q    Type
REMARK                         _______ _______ _______ _____ _____    ______ ____
ROOT
ATOM      1  C   LIG    1        0.710  -1.985  -1.215  0.00  0.00    +0.520 C 
ATOM      2  N   LIG    1        1.293  -2.645  -2.235  0.00  0.00    -0.610 N 
ATOM      3  C   LIG    1        1.964  -2.021  -3.422  0.00  0.00    +0.360 C 
ATOM      4  C   LIG    1        1.881  -3.100  -4.425  0.00  0.00    -0.060 C 
ATOM      5  C   LIG    1        2.442  -3.449  -5.710  0.00  0.00    +0.580 C 
ATOM      6  N   LIG    1        2.282  -4.810  -5.801  0.00  0.00    -0.600 N 
ATOM      7  C   LIG    1        1.959  -5.384  -4.603  0.00  0.00    +0.550 C 
ATOM      8  O   LIG    1        1.494  -6.488  -4.421  0.00  0.00    -0.440 OA
ATOM      9  C   LIG    1        2.442  -5.565  -7.046  0.00  0.00    +0.330 C 
ATOM     10  O   LIG    1        2.942  -2.706  -6.526  0.00  0.00    -0.440 OA
ATOM     11  C   LIG    1        2.325  -4.353  -3.565  0.00  0.00    +0.000 C 
ATOM     12  C   LIG    1        1.391  -4.125  -2.380  0.00  0.00    +0.340 C 
ATOM     13  O   LIG    1        0.202  -2.603  -0.304  0.00  0.00    -0.520 OA
ENDROOT
BRANCH   1  14
ATOM     14  C   LIG    1        0.690  -0.478  -1.207  0.00  0.00    +0.290 C 
BRANCH  14  16
ATOM     15  C   LIG    1       -0.018   1.465   0.010  0.00  0.00    +0.340 C 
ATOM     16  N   LIG    1        0.002  -0.004   0.002  0.00  0.00    -0.500 N 
ATOM     17  H   LIG    1       -0.945  -0.353   0.009  0.00  0.00    +0.440 HD
ATOM     18  H   LIG    1        0.490  -0.338   0.820  0.00  0.00    +0.440 HD
ENDBRANCH  14  16
ENDBRANCH   1  14
TORSDOF 2
ENDMDL
MODEL      436
REMARK  Name = ZINC000409432283
REMARK                            x       y       z     vdW  Elec       q    Type
REMARK                         _______ _______ _______ _____ _____    ______ ____
ROOT
ATOM      1  C   LIG    1        0.707  -0.490  -1.238  0.00  0.00    +0.520 C 
ATOM      2  N   LIG    1        0.053  -0.526  -2.415  0.00  0.00    -0.600 N 
ATOM      3  C   LIG    1        0.617  -0.982  -3.699  0.00  0.00    +0.320 C 
ATOM      4  C   LIG    1       -0.610  -1.418  -4.539  0.00  0.00    +0.270 C 
ATOM      5  C   LIG    1       -1.664  -0.359  -4.123  0.00  0.00    +0.200 C 
ATOM      6  C   LIG    1       -1.345  -0.123  -2.631  0.00  0.00    +0.220 C 
ATOM      7  O   LIG    1        1.864  -0.849  -1.176  0.00  0.00    -0.510 OA
ENDROOT
BRANCH   4   8
ATOM      8  N   LIG    1       -1.046  -2.767  -4.170  0.00  0.00    -0.440 N 
ATOM      9  C   LIG    1       -1.130  -3.849  -5.004  0.00  0.00    +0.140 A 
ATOM     10  C   LIG    1       -1.572  -4.881  -4.260  0.00  0.00    +0.150 A 
ATOM     11  N   LIG    1       -1.752  -4.441  -3.006  0.00  0.00    -0.490 NA
ATOM     12  C   LIG    1       -1.434  -3.177  -2.944  0.00  0.00    +0.360 A 
ENDBRANCH   4   8
BRANCH   1  14
ATOM     13  C   LIG    1       -0.019   1.526   0.010  0.00  0.00    +0.120 C 
ATOM     14  C   LIG    1        0.002  -0.004   0.002  0.00  0.00    +0.170 C 
BRANCH  14  15
ATOM     15  N   LIG    1        0.713  -0.491   1.192  0.00  0.00    -0.620 N 
ATOM     16  H   LIG    1        1.659  -0.141   1.185  0.00  0.00    +0.440 HD
ATOM     17  H   LIG    1        0.726  -1.500   1.187  0.00  0.00    +0.440 HD
ATOM     18  H   LIG    1        0.240  -0.165   2.022  0.00  0.00    +0.450 HD
ENDBRANCH  14  15
ENDBRANCH   1  14
BRANCH   5  19
ATOM     19  O   LIG    1       -2.988  -0.873  -4.281  0.00  0.00    -0.540 OA
ATOM     20  H   LIG    1       -3.684  -0.250  -4.035  0.00  0.00    +0.390 HD
ENDBRANCH   5  19
TORSDOF 4
ENDMDL
MODEL      437
REMARK  Name = ZINC000409432400
REMARK                            x       y       z     vdW  Elec       q    Type
REMARK                         _______ _______ _______ _____ _____    ______ ____
ROOT
ATOM      1  N   LIG    1       -1.372  -0.511   0.012  0.00  0.00    -0.600 N 
ATOM      2  C   LIG    1       -2.077  -0.775   1.161  0.00  0.00    +0.580 C 
ATOM      3  C   LIG    1       -3.221  -1.535   0.724  0.00  0.00    -0.070 C 
ATOM      4  C   LIG    1       -4.577  -1.908   1.164  0.00  0.00    +0.360 C 
ATOM      5  N   LIG    1       -5.150  -2.531  -0.074  0.00  0.00    -0.620 N 
ATOM      6  C   LIG    1       -4.394  -2.005  -1.245  0.00  0.00    +0.310 C 
ATOM      7  C   LIG    1       -6.168  -3.413  -0.119  0.00  0.00    +0.540 C 
ATOM      8  O   LIG    1       -6.708  -3.768   0.907  0.00  0.00    -0.520 OA
ATOM      9  C   LIG    1       -3.526  -0.871  -0.678  0.00  0.00    +0.020 C 
ATOM     10  O   LIG    1       -1.798  -0.442   2.293  0.00  0.00    -0.440 OA
ATOM     11  C   LIG    1       -2.093  -0.767  -1.119  0.00  0.00    +0.550 C 
ATOM     12  O   LIG    1       -1.663  -0.899  -2.245  0.00  0.00    -0.450 OA
ENDROOT
BRANCH   1  14
ATOM     13  C   LIG    1       -0.019   1.526   0.010  0.00  0.00    +0.040 C 
ATOM     14  C   LIG    1        0.002  -0.004   0.002  0.00  0.00    +0.300 C 
ENDBRANCH   1  14
BRANCH   7  15
ATOM     15  C   LIG    1       -6.637  -3.956  -1.444  0.00  0.00    +0.070 C 
BRANCH  15  16
ATOM     16  C   LIG    1       -7.796  -4.928  -1.216  0.00  0.00    +0.290 C 
BRANCH  16  17
ATOM     17  N   LIG    1       -8.252  -5.457  -2.508  0.00  0.00    -0.640 N 
ATOM     18  H   LIG    1       -9.017  -6.099  -2.358  0.00  0.00    +0.440 HD
ATOM     19  H   LIG    1       -7.492  -5.941  -2.961  0.00  0.00    +0.440 HD
ATOM     20  H   LIG    1       -8.562  -4.696  -3.093  0.00  0.00    +0.440 HD
ENDBRANCH  16  17
ENDBRANCH  15  16
ENDBRANCH   7  15
TORSDOF 4
ENDMDL
MODEL      438
REMARK  Name = ZINC000409432399
REMARK                            x       y       z     vdW  Elec       q    Type
REMARK                         _______ _______ _______ _____ _____    ______ ____
ROOT
ATOM      1  N   LIG    1       -1.372  -0.511   0.012  0.00  0.00    -0.570 N 
ATOM      2  C   LIG    1       -2.042  -0.762   1.143  0.00  0.00    +0.530 C 
ATOM      3  C   LIG    1       -3.426  -1.271   0.804  0.00  0.00    +0.020 C 
ATOM      4  C   LIG    1       -4.471  -0.215   1.222  0.00  0.00    +0.330 C 
ATOM      5  N   LIG    1       -4.562   0.704   0.065  0.00  0.00    -0.630 N 
ATOM      6  C   LIG    1       -4.499  -0.188  -1.116  0.00  0.00    +0.310 C 
ATOM      7  C   LIG    1       -4.677   2.046   0.082  0.00  0.00    +0.540 C 
ATOM      8  O   LIG    1       -4.715   2.638   1.139  0.00  0.00    -0.520 OA
ATOM      9  C   LIG    1       -3.438  -1.270  -0.748  0.00  0.00    +0.020 C 
ATOM     10  O   LIG    1       -1.609  -0.606   2.264  0.00  0.00    -0.460 OA
ATOM     11  C   LIG    1       -2.062  -0.756  -1.108  0.00  0.00    +0.530 C 
ATOM     12  O   LIG    1       -1.652  -0.582  -2.235  0.00  0.00    -0.470 OA
ENDROOT
BRANCH   1  14
ATOM     13  C   LIG    1       -0.019   1.526   0.010  0.00  0.00    +0.030 C 
ATOM     14  C   LIG    1        0.002  -0.004   0.002  0.00  0.00    +0.290 C 
ENDBRANCH   1  14
BRANCH   7  15
ATOM     15  C   LIG    1       -4.756   2.812  -1.214  0.00  0.00    +0.060 C 
BRANCH  15  16
ATOM     16  C   LIG    1       -4.881   4.308  -0.915  0.00  0.00    +0.300 C 
BRANCH  16  17
ATOM     17  N   LIG    1       -4.958   5.054  -2.178  0.00  0.00    -0.640 N 
ATOM     18  H   LIG    1       -5.040   6.040  -1.981  0.00  0.00    +0.440 HD
ATOM     19  H   LIG    1       -5.765   4.748  -2.701  0.00  0.00    +0.440 HD
ATOM     20  H   LIG    1       -4.123   4.888  -2.719  0.00  0.00    +0.440 HD
ENDBRANCH  16  17
ENDBRANCH  15  16
ENDBRANCH   7  15
TORSDOF 4
ENDMDL
MODEL      439
REMARK  Name = ZINC000409432398
REMARK                            x       y       z     vdW  Elec       q    Type
REMARK                         _______ _______ _______ _____ _____    ______ ____
ROOT
ATOM      1  N   LIG    1       -1.372  -0.511   0.012  0.00  0.00    -0.600 N 
ATOM      2  C   LIG    1       -2.078  -0.775   1.159  0.00  0.00    +0.570 C 
ATOM      3  C   LIG    1       -3.466  -0.907   0.723  0.00  0.00    -0.050 C 
ATOM      4  C   LIG    1       -4.629  -1.686   1.220  0.00  0.00    +0.340 C 
ATOM      5  N   LIG    1       -5.441  -1.971  -0.003  0.00  0.00    -0.620 N 
ATOM      6  C   LIG    1       -4.655  -1.502  -1.189  0.00  0.00    +0.330 C 
ATOM      7  C   LIG    1       -6.660  -2.546  -0.033  0.00  0.00    +0.540 C 
ATOM      8  O   LIG    1       -7.196  -2.884   1.001  0.00  0.00    -0.520 OA
ATOM      9  C   LIG    1       -3.234  -1.606  -0.675  0.00  0.00    -0.020 C 
ATOM     10  O   LIG    1       -1.645  -0.877   2.287  0.00  0.00    -0.440 OA
ATOM     11  C   LIG    1       -2.097  -0.768  -1.122  0.00  0.00    +0.560 C 
ATOM     12  O   LIG    1       -1.863  -0.386  -2.248  0.00  0.00    -0.450 OA
ENDROOT
BRANCH   1  14
ATOM     13  C   LIG    1       -0.019   1.526   0.010  0.00  0.00    +0.030 C 
ATOM     14  C   LIG    1        0.002  -0.004   0.002  0.00  0.00    +0.300 C 
ENDBRANCH   1  14
BRANCH   7  15
ATOM     15  C   LIG    1       -7.356  -2.769  -1.351  0.00  0.00    +0.070 C 
BRANCH  15  16
ATOM     16  C   LIG    1       -8.713  -3.432  -1.105  0.00  0.00    +0.290 C 
BRANCH  16  17
ATOM     17  N   LIG    1       -9.392  -3.649  -2.390  0.00  0.00    -0.640 N 
ATOM     18  H   LIG    1      -10.287  -4.086  -2.228  0.00  0.00    +0.440 HD
ATOM     19  H   LIG    1       -8.825  -4.247  -2.972  0.00  0.00    +0.440 HD
ATOM     20  H   LIG    1       -9.529  -2.763  -2.852  0.00  0.00    +0.440 HD
ENDBRANCH  16  17
ENDBRANCH  15  16
ENDBRANCH   7  15
TORSDOF 4
ENDMDL
MODEL      440
REMARK  Name = ZINC000409433054
REMARK                            x       y       z     vdW  Elec       q    Type
REMARK                         _______ _______ _______ _____ _____    ______ ____
ROOT
ATOM      1  C   LIG    1        0.746  -1.888  -1.280  0.00  0.00    +0.190 C 
ATOM      2  C   LIG    1       -0.432  -2.436  -2.112  0.00  0.00    +0.250 C 
ATOM      3  N   LIG    1        0.096  -3.519  -2.955  0.00  0.00    -0.590 N 
ATOM      4  C   LIG    1        1.532  -3.684  -2.668  0.00  0.00    +0.240 C 
ATOM      5  C   LIG    1       -0.616  -4.240  -3.844  0.00  0.00    +0.530 C 
ATOM      6  O   LIG    1       -1.798  -4.016  -4.000  0.00  0.00    -0.520 OA
ATOM      7  C   LIG    1        1.988  -2.312  -2.107  0.00  0.00    +0.190 C 
ENDROOT
BRANCH   5   8
ATOM      8  C   LIG    1        0.057  -5.325  -4.645  0.00  0.00    -0.010 C 
ATOM      9  C   LIG    1        0.169  -6.667  -3.899  0.00  0.00    +0.340 C 
ATOM     10  N   LIG    1       -1.141  -6.999  -4.503  0.00  0.00    -0.540 N 
ATOM     11  H   LIG    1       -1.921  -6.724  -3.926  0.00  0.00    +0.440 HD
ATOM     12  H   LIG    1       -1.202  -7.959  -4.807  0.00  0.00    +0.430 HD
ATOM     13  C   LIG    1       -0.888  -6.056  -5.615  0.00  0.00    +0.350 C 
ENDBRANCH   5   8
BRANCH   7  14
ATOM     14  O   LIG    1        2.238  -1.384  -3.164  0.00  0.00    -0.530 OA
ATOM     15  H   LIG    1        2.941  -1.657  -3.769  0.00  0.00    +0.380 HD
ENDBRANCH   7  14
BRANCH   1  16
ATOM     16  O   LIG    1        0.671  -0.465  -1.174  0.00  0.00    -0.350 OA
BRANCH  16  18
ATOM     17  C   LIG    1       -0.019   1.526   0.010  0.00  0.00    +0.070 C 
ATOM     18  C   LIG    1        0.002  -0.004   0.002  0.00  0.00    +0.150 C 
ENDBRANCH  16  18
ENDBRANCH   1  16
TORSDOF 4
ENDMDL
MODEL      441
REMARK  Name = ZINC000409432980
REMARK                            x       y       z     vdW  Elec       q    Type
REMARK                         _______ _______ _______ _____ _____    ______ ____
ROOT
ATOM      1  C   LIG    1        0.733  -1.998   1.184  0.00  0.00    +0.510 C 
ATOM      2  N   LIG    1        1.335  -2.669   2.185  0.00  0.00    -0.600 N 
ATOM      3  C   LIG    1        2.004  -2.058   3.349  0.00  0.00    +0.250 C 
ATOM      4  C   LIG    1        1.962  -3.149   4.448  0.00  0.00    +0.180 C 
ATOM      5  C   LIG    1        2.179  -4.439   3.614  0.00  0.00    +0.260 C 
ATOM      6  C   LIG    1        1.429  -4.131   2.302  0.00  0.00    +0.300 C 
ATOM      7  O   LIG    1        0.207  -2.606   0.276  0.00  0.00    -0.520 OA
ENDROOT
BRANCH   5   8
ATOM      8  N   LIG    1        1.590  -5.598   4.290  0.00  0.00    -0.460 N 
ATOM      9  C   LIG    1        2.255  -6.718   4.711  0.00  0.00    +0.140 A 
ATOM     10  C   LIG    1        1.338  -7.526   5.278  0.00  0.00    +0.160 A 
ATOM     11  N   LIG    1        0.146  -6.915   5.204  0.00  0.00    -0.480 NA
ATOM     12  C   LIG    1        0.290  -5.758   4.618  0.00  0.00    +0.370 A 
ENDBRANCH   5   8
BRANCH   4  13
ATOM     13  O   LIG    1        3.018  -2.965   5.393  0.00  0.00    -0.540 OA
ATOM     14  H   LIG    1        2.978  -2.124   5.869  0.00  0.00    +0.390 HD
ENDBRANCH   4  13
BRANCH   1  15
ATOM     15  C   LIG    1        0.713  -0.491   1.192  0.00  0.00    +0.290 C 
BRANCH  15  17
ATOM     16  C   LIG    1       -0.018   1.465   0.010  0.00  0.00    +0.340 C 
ATOM     17  N   LIG    1        0.002  -0.004   0.002  0.00  0.00    -0.500 N 
ATOM     18  H   LIG    1        0.474  -0.330  -0.828  0.00  0.00    +0.440 HD
ATOM     19  H   LIG    1       -0.945  -0.353   0.009  0.00  0.00    +0.440 HD
ENDBRANCH  15  17
ENDBRANCH   1  15
TORSDOF 4
ENDMDL
MODEL      442
REMARK  Name = ZINC000409432981
REMARK                            x       y       z     vdW  Elec       q    Type
REMARK                         _______ _______ _______ _____ _____    ______ ____
ROOT
ATOM      1  C   LIG    1        0.733  -1.998   1.184  0.00  0.00    +0.520 C 
ATOM      2  N   LIG    1        1.335  -2.669   2.185  0.00  0.00    -0.600 N 
ATOM      3  C   LIG    1        2.002  -2.060   3.345  0.00  0.00    +0.240 C 
ATOM      4  C   LIG    1        2.517  -3.211   4.235  0.00  0.00    +0.180 C 
ATOM      5  C   LIG    1        1.618  -4.404   3.814  0.00  0.00    +0.260 C 
ATOM      6  C   LIG    1        1.429  -4.135   2.302  0.00  0.00    +0.310 C 
ATOM      7  O   LIG    1        0.207  -2.606   0.276  0.00  0.00    -0.520 OA
ENDROOT
BRANCH   5   8
ATOM      8  N   LIG    1        2.298  -5.681   4.043  0.00  0.00    -0.460 N 
ATOM      9  C   LIG    1        1.868  -6.697   4.854  0.00  0.00    +0.140 A 
ATOM     10  C   LIG    1        2.787  -7.677   4.771  0.00  0.00    +0.160 A 
ATOM     11  N   LIG    1        3.753  -7.271   3.933  0.00  0.00    -0.480 NA
ATOM     12  C   LIG    1        3.464  -6.078   3.489  0.00  0.00    +0.370 A 
ENDBRANCH   5   8
BRANCH   4  13
ATOM     13  O   LIG    1        2.337  -2.901   5.618  0.00  0.00    -0.540 OA
ATOM     14  H   LIG    1        2.819  -2.116   5.911  0.00  0.00    +0.390 HD
ENDBRANCH   4  13
BRANCH   1  15
ATOM     15  C   LIG    1        0.713  -0.491   1.192  0.00  0.00    +0.290 C 
BRANCH  15  17
ATOM     16  C   LIG    1       -0.018   1.465   0.010  0.00  0.00    +0.340 C 
ATOM     17  N   LIG    1        0.002  -0.004   0.002  0.00  0.00    -0.500 N 
ATOM     18  H   LIG    1        0.474  -0.330  -0.828  0.00  0.00    +0.440 HD
ATOM     19  H   LIG    1       -0.945  -0.353   0.009  0.00  0.00    +0.440 HD
ENDBRANCH  15  17
ENDBRANCH   1  15
TORSDOF 4
ENDMDL
MODEL      443
REMARK  Name = ZINC000409432979
REMARK                            x       y       z     vdW  Elec       q    Type
REMARK                         _______ _______ _______ _____ _____    ______ ____
ROOT
ATOM      1  C   LIG    1        0.733  -1.998   1.184  0.00  0.00    +0.510 C 
ATOM      2  N   LIG    1        1.335  -2.669   2.185  0.00  0.00    -0.590 N 
ATOM      3  C   LIG    1        2.004  -2.058   3.349  0.00  0.00    +0.250 C 
ATOM      4  C   LIG    1        1.962  -3.149   4.448  0.00  0.00    +0.180 C 
ATOM      5  C   LIG    1        2.179  -4.439   3.614  0.00  0.00    +0.280 C 
ATOM      6  C   LIG    1        1.429  -4.131   2.302  0.00  0.00    +0.300 C 
ATOM      7  O   LIG    1        0.207  -2.606   0.276  0.00  0.00    -0.520 OA
ENDROOT
BRANCH   5   8
ATOM      8  N   LIG    1        1.590  -5.598   4.290  0.00  0.00    -0.460 N 
ATOM      9  C   LIG    1        2.255  -6.718   4.711  0.00  0.00    +0.120 A 
ATOM     10  C   LIG    1        1.338  -7.526   5.278  0.00  0.00    +0.150 A 
ATOM     11  N   LIG    1        0.146  -6.915   5.204  0.00  0.00    -0.490 NA
ATOM     12  C   LIG    1        0.290  -5.758   4.618  0.00  0.00    +0.410 A 
ENDBRANCH   5   8
BRANCH   4  13
ATOM     13  O   LIG    1        0.692  -3.168   5.102  0.00  0.00    -0.540 OA
ATOM     14  H   LIG    1        0.470  -2.344   5.555  0.00  0.00    +0.390 HD
ENDBRANCH   4  13
BRANCH   1  15
ATOM     15  C   LIG    1        0.713  -0.491   1.192  0.00  0.00    +0.290 C 
BRANCH  15  17
ATOM     16  C   LIG    1       -0.018   1.465   0.010  0.00  0.00    +0.340 C 
ATOM     17  N   LIG    1        0.002  -0.004   0.002  0.00  0.00    -0.500 N 
ATOM     18  H   LIG    1        0.474  -0.330  -0.828  0.00  0.00    +0.440 HD
ATOM     19  H   LIG    1       -0.945  -0.353   0.009  0.00  0.00    +0.440 HD
ENDBRANCH  15  17
ENDBRANCH   1  15
TORSDOF 4
ENDMDL
MODEL      444
REMARK  Name = ZINC000409432978
REMARK                            x       y       z     vdW  Elec       q    Type
REMARK                         _______ _______ _______ _____ _____    ______ ____
ROOT
ATOM      1  C   LIG    1        0.710  -1.985  -1.215  0.00  0.00    +0.510 C 
ATOM      2  N   LIG    1        1.293  -2.645  -2.235  0.00  0.00    -0.600 N 
ATOM      3  C   LIG    1        1.379  -4.110  -2.372  0.00  0.00    +0.320 C 
ATOM      4  C   LIG    1        1.539  -4.357  -3.893  0.00  0.00    +0.270 C 
ATOM      5  C   LIG    1        2.441  -3.165  -4.309  0.00  0.00    +0.190 C 
ATOM      6  C   LIG    1        1.943  -2.024  -3.398  0.00  0.00    +0.230 C 
ATOM      7  O   LIG    1        0.202  -2.603  -0.304  0.00  0.00    -0.520 OA
ENDROOT
BRANCH   4   8
ATOM      8  N   LIG    1        0.243  -4.299  -4.574  0.00  0.00    -0.440 N 
ATOM      9  C   LIG    1       -0.332  -5.299  -5.311  0.00  0.00    +0.140 A 
ATOM     10  C   LIG    1       -1.514  -4.826  -5.753  0.00  0.00    +0.150 A 
ATOM     11  N   LIG    1       -1.655  -3.572  -5.298  0.00  0.00    -0.490 NA
ATOM     12  C   LIG    1       -0.609  -3.252  -4.587  0.00  0.00    +0.360 A 
ENDBRANCH   4   8
BRANCH   5  13
ATOM     13  O   LIG    1        2.243  -2.837  -5.686  0.00  0.00    -0.540 OA
ATOM     14  H   LIG    1        2.783  -2.098  -5.996  0.00  0.00    +0.390 HD
ENDBRANCH   5  13
BRANCH   1  15
ATOM     15  C   LIG    1        0.690  -0.478  -1.207  0.00  0.00    +0.290 C 
BRANCH  15  17
ATOM     16  C   LIG    1       -0.018   1.465   0.010  0.00  0.00    +0.340 C 
ATOM     17  N   LIG    1        0.002  -0.004   0.002  0.00  0.00    -0.500 N 
ATOM     18  H   LIG    1       -0.945  -0.353   0.009  0.00  0.00    +0.440 HD
ATOM     19  H   LIG    1        0.490  -0.338   0.820  0.00  0.00    +0.440 HD
ENDBRANCH  15  17
ENDBRANCH   1  15
TORSDOF 4
ENDMDL
MODEL      445
REMARK  Name = ZINC000409433066
REMARK                            x       y       z     vdW  Elec       q    Type
REMARK                         _______ _______ _______ _____ _____    ______ ____
ROOT
ATOM      1  C   LIG    1        0.746  -1.888  -1.280  0.00  0.00    +0.170 C 
ATOM      2  C   LIG    1        2.086  -2.417  -0.712  0.00  0.00    +0.270 C 
ATOM      3  N   LIG    1        2.307  -3.702  -1.401  0.00  0.00    -0.600 N 
ATOM      4  C   LIG    1        1.572  -3.686  -2.675  0.00  0.00    +0.230 C 
ATOM      5  C   LIG    1        3.057  -4.722  -0.940  0.00  0.00    +0.530 C 
ATOM      6  O   LIG    1        3.621  -4.625   0.129  0.00  0.00    -0.520 OA
ATOM      7  C   LIG    1        0.838  -2.331  -2.764  0.00  0.00    +0.190 C 
ENDROOT
BRANCH   5   8
ATOM      8  C   LIG    1        3.196  -5.983  -1.753  0.00  0.00    -0.010 C 
ATOM      9  C   LIG    1        4.278  -5.901  -2.845  0.00  0.00    +0.340 C 
ATOM     10  N   LIG    1        5.209  -6.428  -1.823  0.00  0.00    -0.540 N 
ATOM     11  H   LIG    1        5.665  -5.701  -1.293  0.00  0.00    +0.440 HD
ATOM     12  H   LIG    1        5.860  -7.104  -2.194  0.00  0.00    +0.430 HD
ATOM     13  C   LIG    1        4.084  -7.052  -1.092  0.00  0.00    +0.350 C 
ENDBRANCH   5   8
BRANCH   7  14
ATOM     14  O   LIG    1       -0.464  -2.498  -3.329  0.00  0.00    -0.550 OA
ATOM     15  H   LIG    1       -0.460  -2.846  -4.231  0.00  0.00    +0.390 HD
ENDBRANCH   7  14
BRANCH   1  16
ATOM     16  O   LIG    1        0.671  -0.465  -1.174  0.00  0.00    -0.370 OA
BRANCH  16  18
ATOM     17  C   LIG    1       -0.019   1.526   0.010  0.00  0.00    +0.060 C 
ATOM     18  C   LIG    1        0.002  -0.004   0.002  0.00  0.00    +0.170 C 
ENDBRANCH  16  18
ENDBRANCH   1  16
TORSDOF 4
ENDMDL
MODEL      446
REMARK  Name = ZINC000409433059
REMARK                            x       y       z     vdW  Elec       q    Type
REMARK                         _______ _______ _______ _____ _____    ______ ____
ROOT
ATOM      1  C   LIG    1       -0.096   1.370  -0.166  0.00  0.00    +0.320 C 
ATOM      2  N   LIG    1       -0.124  -0.094  -0.105  0.00  0.00    -0.580 N 
ATOM      3  C   LIG    1       -1.259  -0.796   0.050  0.00  0.00    +0.530 C 
ATOM      4  C   LIG    1       -0.914  -2.259  -0.014  0.00  0.00    +0.010 C 
ATOM      5  C   LIG    1       -1.680  -3.127   0.917  0.00  0.00    +0.090 C 
ATOM      6  C   LIG    1       -1.005  -3.412   2.243  0.00  0.00    +0.310 C 
ATOM      7  N   LIG    1        0.417  -3.653   2.054  0.00  0.00    -0.600 N 
ATOM      8  C   LIG    1        1.248  -2.775   1.257  0.00  0.00    +0.320 C 
ATOM      9  C   LIG    1        0.988  -4.744   2.650  0.00  0.00    +0.750 C 
ATOM     10  C   LIG    1        0.598  -2.311  -0.005  0.00  0.00    +0.020 C 
ATOM     11  O   LIG    1       -2.367  -0.332   0.213  0.00  0.00    -0.450 OA
ATOM     12  C   LIG    1        0.981  -0.847  -0.205  0.00  0.00    +0.530 C 
ATOM     13  O   LIG    1        2.098  -0.435  -0.436  0.00  0.00    -0.460 OA
ENDROOT
BRANCH   9  14
ATOM     14  N   LIG    1        2.230  -4.669   3.127  0.00  0.00    -0.780 N 
ATOM     15  H   LIG    1        2.700  -3.821   3.124  0.00  0.00    +0.440 HD
ATOM     16  H   LIG    1        2.663  -5.463   3.477  0.00  0.00    +0.440 HD
ENDBRANCH   9  14
BRANCH   9  17
ATOM     17  N   LIG    1        0.303  -5.882   2.752  0.00  0.00    -0.780 N 
ATOM     18  H   LIG    1        0.672  -6.627   3.252  0.00  0.00    +0.440 HD
ATOM     19  H   LIG    1       -0.565  -5.965   2.326  0.00  0.00    +0.440 HD
ENDBRANCH   9  17
TORSDOF 2
ENDMDL
MODEL      447
REMARK  Name = ZINC000409433599
REMARK                            x       y       z     vdW  Elec       q    Type
REMARK                         _______ _______ _______ _____ _____    ______ ____
ROOT
ATOM      1  C   LIG    1       -0.018   1.461   0.010  0.00  0.00    +0.320 C 
ATOM      2  N   LIG    1        0.002  -0.004   0.002  0.00  0.00    -0.600 N 
ATOM      3  C   LIG    1       -1.125  -0.767   0.003  0.00  0.00    +0.550 C 
ATOM      4  C   LIG    1       -0.677  -2.158   0.313  0.00  0.00    +0.000 C 
ATOM      5  C   LIG    1       -1.398  -3.342  -0.283  0.00  0.00    +0.250 C 
ATOM      6  N   LIG    1       -0.672  -4.549   0.170  0.00  0.00    -0.550 NA
ATOM      7  C   LIG    1        0.745  -4.572  -0.193  0.00  0.00    +0.190 C 
ATOM      8  C   LIG    1        1.487  -3.302   0.275  0.00  0.00    +0.090 C 
ATOM      9  C   LIG    1        0.741  -2.136  -0.335  0.00  0.00    -0.020 C 
ATOM     10  O   LIG    1       -2.260  -0.394  -0.205  0.00  0.00    -0.460 OA
ATOM     11  C   LIG    1        1.150  -0.736  -0.013  0.00  0.00    +0.540 C 
ATOM     12  O   LIG    1        2.274  -0.333   0.194  0.00  0.00    -0.460 OA
ENDROOT
BRANCH   6  13
ATOM     13  C   LIG    1       -1.350  -5.772  -0.281  0.00  0.00    +0.190 C 
BRANCH  13  14
ATOM     14  C   LIG    1       -0.722  -6.986   0.406  0.00  0.00    +0.270 C 
BRANCH  14  15
ATOM     15  N   LIG    1       -1.401  -8.209  -0.044  0.00  0.00    -0.640 N 
ATOM     16  H   LIG    1       -0.987  -9.009   0.409  0.00  0.00    +0.440 HD
ATOM     17  H   LIG    1       -1.301  -8.299  -1.044  0.00  0.00    +0.440 HD
ATOM     18  H   LIG    1       -2.380  -8.157   0.193  0.00  0.00    +0.440 HD
ENDBRANCH  14  15
ENDBRANCH  13  14
ENDBRANCH   6  13
TORSDOF 3
ENDMDL
MODEL      448
REMARK  Name = ZINC000409433058
REMARK                            x       y       z     vdW  Elec       q    Type
REMARK                         _______ _______ _______ _____ _____    ______ ____
ROOT
ATOM      1  C   LIG    1        0.165   1.463  -0.313  0.00  0.00    +0.330 C 
ATOM      2  N   LIG    1        0.138   0.001  -0.230  0.00  0.00    -0.590 N 
ATOM      3  C   LIG    1       -1.008  -0.717  -0.087  0.00  0.00    +0.540 C 
ATOM      4  C   LIG    1       -0.640  -2.142  -0.359  0.00  0.00    -0.010 C 
ATOM      5  C   LIG    1       -1.360  -3.245   0.387  0.00  0.00    +0.100 C 
ATOM      6  C   LIG    1       -0.732  -4.571  -0.093  0.00  0.00    +0.300 C 
ATOM      7  N   LIG    1        0.730  -4.526   0.004  0.00  0.00    -0.610 N 
ATOM      8  C   LIG    1        1.495  -3.351  -0.473  0.00  0.00    +0.360 C 
ATOM      9  C   LIG    1        1.400  -5.589   0.544  0.00  0.00    +0.750 C 
ATOM     10  C   LIG    1        0.837  -2.142   0.141  0.00  0.00    -0.020 C 
ATOM     11  O   LIG    1       -2.105  -0.290   0.201  0.00  0.00    -0.450 OA
ATOM     12  C   LIG    1        1.256  -0.771  -0.295  0.00  0.00    +0.550 C 
ATOM     13  O   LIG    1        2.369  -0.418  -0.621  0.00  0.00    -0.450 OA
ENDROOT
BRANCH   9  14
ATOM     14  N   LIG    1        2.489  -5.384   1.283  0.00  0.00    -0.790 N 
ATOM     15  H   LIG    1        2.762  -4.480   1.504  0.00  0.00    +0.440 HD
ATOM     16  H   LIG    1        3.009  -6.139   1.600  0.00  0.00    +0.440 HD
ENDBRANCH   9  14
BRANCH   9  17
ATOM     17  N   LIG    1        0.963  -6.829   0.331  0.00  0.00    -0.780 N 
ATOM     18  H   LIG    1        1.392  -7.577   0.775  0.00  0.00    +0.440 HD
ATOM     19  H   LIG    1        0.217  -6.984  -0.269  0.00  0.00    +0.440 HD
ENDBRANCH   9  17
TORSDOF 2
ENDMDL
MODEL      449
REMARK  Name = ZINC000409433062
REMARK                            x       y       z     vdW  Elec       q    Type
REMARK                         _______ _______ _______ _____ _____    ______ ____
ROOT
ATOM      1  C   LIG    1        0.746  -1.888  -1.280  0.00  0.00    +0.170 C 
ATOM      2  C   LIG    1        2.086  -2.417  -0.712  0.00  0.00    +0.260 C 
ATOM      3  N   LIG    1        2.307  -3.702  -1.401  0.00  0.00    -0.600 N 
ATOM      4  C   LIG    1        1.572  -3.686  -2.675  0.00  0.00    +0.230 C 
ATOM      5  C   LIG    1        3.057  -4.722  -0.940  0.00  0.00    +0.530 C 
ATOM      6  O   LIG    1        3.621  -4.625   0.129  0.00  0.00    -0.520 OA
ATOM      7  C   LIG    1        0.838  -2.331  -2.764  0.00  0.00    +0.190 C 
ENDROOT
BRANCH   5   8
ATOM      8  C   LIG    1        3.196  -5.983  -1.753  0.00  0.00    -0.010 C 
ATOM      9  C   LIG    1        4.278  -5.901  -2.845  0.00  0.00    +0.340 C 
ATOM     10  N   LIG    1        5.209  -6.428  -1.823  0.00  0.00    -0.540 N 
ATOM     11  H   LIG    1        5.665  -5.701  -1.293  0.00  0.00    +0.440 HD
ATOM     12  H   LIG    1        5.860  -7.104  -2.194  0.00  0.00    +0.430 HD
ATOM     13  C   LIG    1        4.084  -7.052  -1.092  0.00  0.00    +0.350 C 
ENDBRANCH   5   8
BRANCH   7  14
ATOM     14  O   LIG    1        1.599  -1.393  -3.528  0.00  0.00    -0.540 OA
ATOM     15  H   LIG    1        1.750  -1.663  -4.444  0.00  0.00    +0.380 HD
ENDBRANCH   7  14
BRANCH   1  16
ATOM     16  O   LIG    1        0.671  -0.465  -1.174  0.00  0.00    -0.350 OA
BRANCH  16  18
ATOM     17  C   LIG    1       -0.019   1.526   0.010  0.00  0.00    +0.070 C 
ATOM     18  C   LIG    1        0.002  -0.004   0.002  0.00  0.00    +0.150 C 
ENDBRANCH  16  18
ENDBRANCH   1  16
TORSDOF 4
ENDMDL
MODEL      450
REMARK  Name = ZINC000409433057
REMARK                            x       y       z     vdW  Elec       q    Type
REMARK                         _______ _______ _______ _____ _____    ______ ____
ROOT
ATOM      1  C   LIG    1       -0.554   1.433  -0.312  0.00  0.00    +0.330 C 
ATOM      2  N   LIG    1       -0.386  -0.020  -0.231  0.00  0.00    -0.580 N 
ATOM      3  C   LIG    1       -1.421  -0.871  -0.185  0.00  0.00    +0.520 C 
ATOM      4  C   LIG    1       -0.884  -2.300  -0.200  0.00  0.00    +0.040 C 
ATOM      5  C   LIG    1       -1.332  -2.946  -1.491  0.00  0.00    +0.070 C 
ATOM      6  C   LIG    1       -0.399  -4.002  -2.035  0.00  0.00    +0.320 C 
ATOM      7  N   LIG    1        0.984  -3.551  -2.002  0.00  0.00    -0.610 N 
ATOM      8  C   LIG    1        1.551  -2.953  -0.807  0.00  0.00    +0.350 C 
ATOM      9  C   LIG    1        1.764  -3.693  -3.117  0.00  0.00    +0.750 C 
ATOM     10  C   LIG    1        0.604  -2.093  -0.029  0.00  0.00    +0.000 C 
ATOM     11  O   LIG    1       -2.591  -0.557  -0.140  0.00  0.00    -0.450 OA
ATOM     12  C   LIG    1        0.820  -0.614  -0.201  0.00  0.00    +0.530 C 
ATOM     13  O   LIG    1        1.892  -0.056  -0.303  0.00  0.00    -0.460 OA
ENDROOT
BRANCH   9  14
ATOM     14  N   LIG    1        3.057  -3.986  -2.992  0.00  0.00    -0.780 N 
ATOM     15  H   LIG    1        3.429  -4.177  -2.117  0.00  0.00    +0.440 HD
ATOM     16  H   LIG    1        3.627  -4.010  -3.777  0.00  0.00    +0.440 HD
ENDBRANCH   9  14
BRANCH   9  17
ATOM     17  N   LIG    1        1.230  -3.537  -4.327  0.00  0.00    -0.790 N 
ATOM     18  H   LIG    1        1.759  -3.724  -5.119  0.00  0.00    +0.440 HD
ATOM     19  H   LIG    1        0.312  -3.236  -4.418  0.00  0.00    +0.440 HD
ENDBRANCH   9  17
TORSDOF 2
ENDMDL
MODEL      451
REMARK  Name = ZINC000409433064
REMARK                            x       y       z     vdW  Elec       q    Type
REMARK                         _______ _______ _______ _____ _____    ______ ____
ROOT
ATOM      1  C   LIG    1        0.746  -1.888  -1.280  0.00  0.00    +0.170 C 
ATOM      2  C   LIG    1       -0.432  -2.436  -2.112  0.00  0.00    +0.260 C 
ATOM      3  N   LIG    1        0.096  -3.519  -2.955  0.00  0.00    -0.600 N 
ATOM      4  C   LIG    1        1.532  -3.684  -2.668  0.00  0.00    +0.240 C 
ATOM      5  C   LIG    1       -0.616  -4.240  -3.844  0.00  0.00    +0.530 C 
ATOM      6  O   LIG    1       -1.798  -4.016  -4.000  0.00  0.00    -0.520 OA
ATOM      7  C   LIG    1        1.988  -2.312  -2.107  0.00  0.00    +0.190 C 
ENDROOT
BRANCH   5   8
ATOM      8  C   LIG    1        0.057  -5.325  -4.645  0.00  0.00    -0.010 C 
ATOM      9  C   LIG    1        0.169  -6.667  -3.899  0.00  0.00    +0.340 C 
ATOM     10  N   LIG    1       -1.141  -6.999  -4.503  0.00  0.00    -0.540 N 
ATOM     11  H   LIG    1       -1.921  -6.724  -3.926  0.00  0.00    +0.440 HD
ATOM     12  H   LIG    1       -1.202  -7.959  -4.807  0.00  0.00    +0.430 HD
ATOM     13  C   LIG    1       -0.888  -6.056  -5.615  0.00  0.00    +0.350 C 
ENDBRANCH   5   8
BRANCH   7  14
ATOM     14  O   LIG    1        3.140  -2.457  -1.274  0.00  0.00    -0.540 OA
ATOM     15  H   LIG    1        3.914  -2.813  -1.732  0.00  0.00    +0.390 HD
ENDBRANCH   7  14
BRANCH   1  16
ATOM     16  O   LIG    1        0.671  -0.465  -1.174  0.00  0.00    -0.370 OA
BRANCH  16  18
ATOM     17  C   LIG    1       -0.019   1.526   0.010  0.00  0.00    +0.060 C 
ATOM     18  C   LIG    1        0.002  -0.004   0.002  0.00  0.00    +0.170 C 
ENDBRANCH  16  18
ENDBRANCH   1  16
TORSDOF 4
ENDMDL
MODEL      452
REMARK  Name = ZINC000409433598
REMARK                            x       y       z     vdW  Elec       q    Type
REMARK                         _______ _______ _______ _____ _____    ______ ____
ROOT
ATOM      1  C   LIG    1       -0.018   1.461   0.010  0.00  0.00    +0.320 C 
ATOM      2  N   LIG    1        0.002  -0.004   0.002  0.00  0.00    -0.580 N 
ATOM      3  C   LIG    1        0.007  -0.726  -1.130  0.00  0.00    +0.530 C 
ATOM      4  C   LIG    1        0.099  -2.184  -0.759  0.00  0.00    +0.010 C 
ATOM      5  C   LIG    1       -0.806  -3.064  -1.566  0.00  0.00    +0.090 C 
ATOM      6  C   LIG    1       -2.151  -3.311  -0.890  0.00  0.00    +0.180 C 
ATOM      7  N   LIG    1       -1.879  -3.835   0.460  0.00  0.00    -0.510 NA
ATOM      8  C   LIG    1       -1.323  -2.773   1.295  0.00  0.00    +0.200 C 
ATOM      9  C   LIG    1       -0.042  -2.213   0.749  0.00  0.00    +0.030 C 
ATOM     10  O   LIG    1       -0.052  -0.282  -2.257  0.00  0.00    -0.460 OA
ATOM     11  C   LIG    1        0.023  -0.737   1.124  0.00  0.00    +0.520 C 
ATOM     12  O   LIG    1        0.094  -0.298   2.252  0.00  0.00    -0.470 OA
ENDROOT
BRANCH   7  13
ATOM     13  C   LIG    1       -3.097  -4.394   1.063  0.00  0.00    +0.250 C 
BRANCH  13  14
ATOM     14  C   LIG    1       -4.108  -3.272   1.304  0.00  0.00    +0.200 C 
BRANCH  14  15
ATOM     15  N   LIG    1       -5.326  -3.832   1.907  0.00  0.00    -0.630 N 
ATOM     16  H   LIG    1       -5.993  -3.091   2.066  0.00  0.00    +0.440 HD
ATOM     17  H   LIG    1       -5.095  -4.271   2.785  0.00  0.00    +0.440 HD
ATOM     18  H   LIG    1       -5.726  -4.516   1.282  0.00  0.00    +0.440 HD
ENDBRANCH  14  15
ENDBRANCH  13  14
ENDBRANCH   7  13
TORSDOF 3
ENDMDL
MODEL      453
REMARK  Name = ZINC000409433574
REMARK                            x       y       z     vdW  Elec       q    Type
REMARK                         _______ _______ _______ _____ _____    ______ ____
ROOT
ATOM      1  C   LIG    1        0.442   1.404   0.416  0.00  0.00    +0.310 C 
ATOM      2  N   LIG    1        0.246  -0.034   0.217  0.00  0.00    -1.000 NA
ATOM      3  C   LIG    1        0.078  -0.608  -1.129  0.00  0.00    +0.290 C 
ATOM      4  C   LIG    1       -1.227  -1.402  -1.179  0.00  0.00    +0.030 C 
ATOM      5  C   LIG    1       -1.166  -2.604  -0.236  0.00  0.00    +0.270 C 
ATOM      6  N   LIG    1       -1.058  -2.126   1.153  0.00  0.00    -1.000 NA
ATOM      7  S   LIG    1        0.210  -1.093   1.505  0.00  0.00    +2.780 S 
ATOM      8  O   LIG    1       -0.179  -0.337   2.643  0.00  0.00    -0.960 OA
ATOM      9  O   LIG    1        1.400  -1.867   1.445  0.00  0.00    -0.950 OA
ENDROOT
BRANCH   6  10
ATOM     10  C   LIG    1       -2.016  -2.540   2.180  0.00  0.00    +0.270 C 
ATOM     11  C   LIG    1       -3.423  -2.839   1.631  0.00  0.00    +0.320 C 
ATOM     12  N   LIG    1       -2.955  -4.234   1.470  0.00  0.00    -0.540 N 
ATOM     13  H   LIG    1       -2.546  -4.410   0.564  0.00  0.00    +0.430 HD
ATOM     14  H   LIG    1       -3.657  -4.915   1.717  0.00  0.00    +0.430 HD
ATOM     15  C   LIG    1       -1.942  -4.037   2.529  0.00  0.00    +0.310 C 
ENDBRANCH   6  10
TORSDOF 1
ENDMDL
MODEL      454
REMARK  Name = ZINC000409433060
REMARK                            x       y       z     vdW  Elec       q    Type
REMARK                         _______ _______ _______ _____ _____    ______ ____
ROOT
ATOM      1  C   LIG    1       -0.018   1.461   0.010  0.00  0.00    +0.330 C 
ATOM      2  N   LIG    1        0.002  -0.004   0.002  0.00  0.00    -0.590 N 
ATOM      3  C   LIG    1        0.007  -0.744  -1.139  0.00  0.00    +0.550 C 
ATOM      4  C   LIG    1       -0.287  -2.151  -0.722  0.00  0.00    -0.020 C 
ATOM      5  C   LIG    1        0.347  -3.293  -1.488  0.00  0.00    +0.370 C 
ATOM      6  N   LIG    1        0.018  -4.518  -0.724  0.00  0.00    -0.620 N 
ATOM      7  C   LIG    1        0.261  -4.601   0.719  0.00  0.00    +0.310 C 
ATOM      8  C   LIG    1       -0.231  -3.327   1.439  0.00  0.00    +0.100 C 
ATOM      9  C   LIG    1       -0.523  -5.591  -1.376  0.00  0.00    +0.750 C 
ATOM     10  C   LIG    1        0.349  -2.150   0.702  0.00  0.00    +0.000 C 
ATOM     11  O   LIG    1        0.209  -0.345  -2.266  0.00  0.00    -0.450 OA
ATOM     12  C   LIG    1        0.023  -0.756   1.135  0.00  0.00    +0.540 C 
ATOM     13  O   LIG    1       -0.168  -0.371   2.268  0.00  0.00    -0.450 OA
ENDROOT
BRANCH   9  14
ATOM     14  N   LIG    1       -1.363  -5.399  -2.392  0.00  0.00    -0.790 N 
ATOM     15  H   LIG    1       -1.746  -6.161  -2.855  0.00  0.00    +0.440 HD
ATOM     16  H   LIG    1       -1.591  -4.498  -2.669  0.00  0.00    +0.440 HD
ENDBRANCH   9  14
BRANCH   9  17
ATOM     17  N   LIG    1       -0.210  -6.829  -0.996  0.00  0.00    -0.780 N 
ATOM     18  H   LIG    1       -0.593  -7.590  -1.459  0.00  0.00    +0.440 HD
ATOM     19  H   LIG    1        0.402  -6.968  -0.256  0.00  0.00    +0.440 HD
ENDBRANCH   9  17
TORSDOF 2
ENDMDL
MODEL      455
REMARK  Name = ZINC000409433597
REMARK                            x       y       z     vdW  Elec       q    Type
REMARK                         _______ _______ _______ _____ _____    ______ ____
ROOT
ATOM      1  C   LIG    1       -0.018   1.461   0.010  0.00  0.00    +0.320 C 
ATOM      2  N   LIG    1        0.002  -0.004   0.002  0.00  0.00    -0.580 N 
ATOM      3  C   LIG    1        0.007  -0.725  -1.128  0.00  0.00    +0.530 C 
ATOM      4  C   LIG    1        0.105  -2.202  -0.769  0.00  0.00    +0.020 C 
ATOM      5  C   LIG    1        1.420  -2.729  -1.313  0.00  0.00    +0.070 C 
ATOM      6  C   LIG    1        2.021  -3.816  -0.430  0.00  0.00    +0.190 C 
ATOM      7  N   LIG    1        2.206  -3.255   0.919  0.00  0.00    -0.510 NA
ATOM      8  C   LIG    1        0.897  -3.060   1.544  0.00  0.00    +0.210 C 
ATOM      9  C   LIG    1       -0.033  -2.194   0.739  0.00  0.00    +0.000 C 
ATOM     10  O   LIG    1       -0.057  -0.274  -2.252  0.00  0.00    -0.460 OA
ATOM     11  C   LIG    1        0.023  -0.738   1.126  0.00  0.00    +0.540 C 
ATOM     12  O   LIG    1        0.085  -0.305   2.257  0.00  0.00    -0.470 OA
ENDROOT
BRANCH   7  13
ATOM     13  C   LIG    1        3.056  -4.128   1.740  0.00  0.00    +0.240 C 
BRANCH  13  14
ATOM     14  C   LIG    1        2.333  -5.453   1.993  0.00  0.00    +0.210 C 
BRANCH  14  15
ATOM     15  N   LIG    1        3.183  -6.326   2.813  0.00  0.00    -0.630 N 
ATOM     16  H   LIG    1        2.706  -7.199   2.980  0.00  0.00    +0.440 HD
ATOM     17  H   LIG    1        3.376  -5.875   3.695  0.00  0.00    +0.440 HD
ATOM     18  H   LIG    1        4.050  -6.503   2.329  0.00  0.00    +0.440 HD
ENDBRANCH  14  15
ENDBRANCH  13  14
ENDBRANCH   7  13
TORSDOF 3
ENDMDL
MODEL      456
REMARK  Name = ZINC000409433596
REMARK                            x       y       z     vdW  Elec       q    Type
REMARK                         _______ _______ _______ _____ _____    ______ ____
ROOT
ATOM      1  C   LIG    1       -0.018   1.461   0.010  0.00  0.00    +0.320 C 
ATOM      2  N   LIG    1        0.002  -0.004   0.002  0.00  0.00    -0.600 N 
ATOM      3  C   LIG    1        0.007  -0.745  -1.140  0.00  0.00    +0.540 C 
ATOM      4  C   LIG    1        0.350  -2.139  -0.723  0.00  0.00    -0.020 C 
ATOM      5  C   LIG    1       -0.242  -3.316  -1.467  0.00  0.00    +0.090 C 
ATOM      6  C   LIG    1        0.238  -4.576  -0.717  0.00  0.00    +0.190 C 
ATOM      7  N   LIG    1       -0.131  -4.552   0.698  0.00  0.00    -0.550 NA
ATOM      8  C   LIG    1        0.303  -3.336   1.421  0.00  0.00    +0.250 C 
ATOM      9  C   LIG    1       -0.284  -2.155   0.702  0.00  0.00    +0.000 C 
ATOM     10  O   LIG    1       -0.220  -0.355  -2.265  0.00  0.00    -0.460 OA
ATOM     11  C   LIG    1        0.023  -0.758   1.136  0.00  0.00    +0.550 C 
ATOM     12  O   LIG    1        0.229  -0.372   2.267  0.00  0.00    -0.460 OA
ENDROOT
BRANCH   7  13
ATOM     13  C   LIG    1        0.332  -5.766   1.383  0.00  0.00    +0.190 C 
BRANCH  13  14
ATOM     14  C   LIG    1       -0.417  -6.980   0.832  0.00  0.00    +0.260 C 
BRANCH  14  15
ATOM     15  N   LIG    1        0.046  -8.194   1.518  0.00  0.00    -0.640 N 
ATOM     16  H   LIG    1       -0.448  -8.995   1.154  0.00  0.00    +0.440 HD
ATOM     17  H   LIG    1       -0.132  -8.110   2.507  0.00  0.00    +0.440 HD
ATOM     18  H   LIG    1        1.036  -8.311   1.362  0.00  0.00    +0.440 HD
ENDBRANCH  14  15
ENDBRANCH  13  14
ENDBRANCH   7  13
TORSDOF 3
ENDMDL
MODEL      457
REMARK  Name = ZINC000409434346
REMARK                            x       y       z     vdW  Elec       q    Type
REMARK                         _______ _______ _______ _____ _____    ______ ____
ROOT
ATOM      1  C   LIG    1       -1.432  -1.925   0.005  0.00  0.00    +0.190 C 
ATOM      2  C   LIG    1       -1.550  -2.471   1.444  0.00  0.00    +0.250 C 
ATOM      3  N   LIG    1       -2.517  -3.578   1.412  0.00  0.00    -0.590 N 
ATOM      4  C   LIG    1       -2.982  -3.760   0.025  0.00  0.00    +0.240 C 
ATOM      5  C   LIG    1       -2.913  -4.306   2.475  0.00  0.00    +0.510 C 
ATOM      6  O   LIG    1       -2.463  -4.066   3.575  0.00  0.00    -0.530 OA
ATOM      7  C   LIG    1       -2.758  -2.385  -0.656  0.00  0.00    +0.190 C 
ENDROOT
BRANCH   7   8
ATOM      8  O   LIG    1       -3.821  -1.482  -0.347  0.00  0.00    -0.530 OA
ATOM      9  H   LIG    1       -4.690  -1.777  -0.653  0.00  0.00    +0.380 HD
ENDBRANCH   7   8
BRANCH   1  10
ATOM     10  O   LIG    1       -1.339  -0.499   0.012  0.00  0.00    -0.350 OA
BRANCH  10  12
ATOM     11  C   LIG    1       -0.019   1.526   0.010  0.00  0.00    +0.060 C 
ATOM     12  C   LIG    1        0.002  -0.004   0.002  0.00  0.00    +0.160 C 
ENDBRANCH  10  12
ENDBRANCH   1  10
BRANCH   5  13
ATOM     13  C   LIG    1       -3.915  -5.417   2.296  0.00  0.00    +0.290 C 
BRANCH  13  14
ATOM     14  N   LIG    1       -4.179  -6.052   3.594  0.00  0.00    -0.500 N 
ATOM     15  C   LIG    1       -5.156  -7.135   3.420  0.00  0.00    +0.340 C 
ATOM     16  H   LIG    1       -4.549  -5.366   4.235  0.00  0.00    +0.440 HD
ATOM     17  H   LIG    1       -3.320  -6.430   3.965  0.00  0.00    +0.440 HD
ENDBRANCH  13  14
ENDBRANCH   5  13
TORSDOF 5
ENDMDL
MODEL      458
REMARK  Name = ZINC000409434345
REMARK                            x       y       z     vdW  Elec       q    Type
REMARK                         _______ _______ _______ _____ _____    ______ ____
ROOT
ATOM      1  C   LIG    1       -1.432  -1.925   0.005  0.00  0.00    +0.180 C 
ATOM      2  C   LIG    1       -1.597  -2.463  -1.438  0.00  0.00    +0.270 C 
ATOM      3  N   LIG    1       -2.272  -3.765  -1.280  0.00  0.00    -0.590 N 
ATOM      4  C   LIG    1       -3.008  -3.763  -0.006  0.00  0.00    +0.230 C 
ATOM      5  C   LIG    1       -2.222  -4.787  -2.156  0.00  0.00    +0.510 C 
ATOM      6  O   LIG    1       -1.580  -4.677  -3.180  0.00  0.00    -0.530 OA
ATOM      7  C   LIG    1       -2.752  -2.398   0.669  0.00  0.00    +0.190 C 
ENDROOT
BRANCH   7   8
ATOM      8  O   LIG    1       -3.817  -1.488   0.389  0.00  0.00    -0.530 OA
ATOM      9  H   LIG    1       -4.679  -1.778   0.717  0.00  0.00    +0.380 HD
ENDBRANCH   7   8
BRANCH   1  10
ATOM     10  O   LIG    1       -1.339  -0.499   0.012  0.00  0.00    -0.350 OA
BRANCH  10  12
ATOM     11  C   LIG    1       -0.019   1.526   0.010  0.00  0.00    +0.070 C 
ATOM     12  C   LIG    1        0.002  -0.004   0.002  0.00  0.00    +0.150 C 
ENDBRANCH  10  12
ENDBRANCH   1  10
BRANCH   5  13
ATOM     13  C   LIG    1       -2.964  -6.066  -1.865  0.00  0.00    +0.290 C 
BRANCH  13  14
ATOM     14  N   LIG    1       -2.752  -7.016  -2.966  0.00  0.00    -0.500 N 
ATOM     15  C   LIG    1       -3.475  -8.263  -2.682  0.00  0.00    +0.340 C 
ATOM     16  H   LIG    1       -1.766  -7.212  -3.056  0.00  0.00    +0.440 HD
ATOM     17  H   LIG    1       -3.096  -6.616  -3.826  0.00  0.00    +0.440 HD
ENDBRANCH  13  14
ENDBRANCH   5  13
TORSDOF 5
ENDMDL
MODEL      459
REMARK  Name = ZINC000409434344
REMARK                            x       y       z     vdW  Elec       q    Type
REMARK                         _______ _______ _______ _____ _____    ______ ____
ROOT
ATOM      1  C   LIG    1       -1.432  -1.925   0.005  0.00  0.00    +0.170 C 
ATOM      2  C   LIG    1       -1.597  -2.463  -1.438  0.00  0.00    +0.280 C 
ATOM      3  N   LIG    1       -2.272  -3.765  -1.280  0.00  0.00    -0.590 N 
ATOM      4  C   LIG    1       -3.008  -3.763  -0.006  0.00  0.00    +0.240 C 
ATOM      5  C   LIG    1       -2.222  -4.787  -2.156  0.00  0.00    +0.510 C 
ATOM      6  O   LIG    1       -1.580  -4.677  -3.180  0.00  0.00    -0.530 OA
ATOM      7  C   LIG    1       -2.752  -2.398   0.669  0.00  0.00    +0.200 C 
ENDROOT
BRANCH   7   8
ATOM      8  O   LIG    1       -2.586  -2.556   2.080  0.00  0.00    -0.550 OA
ATOM      9  H   LIG    1       -3.361  -2.922   2.528  0.00  0.00    +0.390 HD
ENDBRANCH   7   8
BRANCH   1  10
ATOM     10  O   LIG    1       -1.339  -0.499   0.012  0.00  0.00    -0.360 OA
BRANCH  10  12
ATOM     11  C   LIG    1       -0.019   1.526   0.010  0.00  0.00    +0.070 C 
ATOM     12  C   LIG    1        0.002  -0.004   0.002  0.00  0.00    +0.170 C 
ENDBRANCH  10  12
ENDBRANCH   1  10
BRANCH   5  13
ATOM     13  C   LIG    1       -2.964  -6.066  -1.865  0.00  0.00    +0.290 C 
BRANCH  13  14
ATOM     14  N   LIG    1       -2.752  -7.016  -2.966  0.00  0.00    -0.500 N 
ATOM     15  C   LIG    1       -3.475  -8.263  -2.682  0.00  0.00    +0.340 C 
ATOM     16  H   LIG    1       -1.766  -7.212  -3.056  0.00  0.00    +0.440 HD
ATOM     17  H   LIG    1       -3.096  -6.616  -3.826  0.00  0.00    +0.440 HD
ENDBRANCH  13  14
ENDBRANCH   5  13
TORSDOF 5
ENDMDL
MODEL      460
REMARK  Name = ZINC000409434347
REMARK                            x       y       z     vdW  Elec       q    Type
REMARK                         _______ _______ _______ _____ _____    ______ ____
ROOT
ATOM      1  C   LIG    1       -1.432  -1.925   0.005  0.00  0.00    +0.180 C 
ATOM      2  C   LIG    1       -1.550  -2.471   1.444  0.00  0.00    +0.280 C 
ATOM      3  N   LIG    1       -2.517  -3.578   1.412  0.00  0.00    -0.590 N 
ATOM      4  C   LIG    1       -2.982  -3.760   0.025  0.00  0.00    +0.240 C 
ATOM      5  C   LIG    1       -2.913  -4.306   2.475  0.00  0.00    +0.510 C 
ATOM      6  O   LIG    1       -2.463  -4.066   3.575  0.00  0.00    -0.520 OA
ATOM      7  C   LIG    1       -2.758  -2.385  -0.656  0.00  0.00    +0.190 C 
ENDROOT
BRANCH   7   8
ATOM      8  O   LIG    1       -2.609  -2.531  -2.070  0.00  0.00    -0.540 OA
ATOM      9  H   LIG    1       -3.383  -2.908  -2.510  0.00  0.00    +0.390 HD
ENDBRANCH   7   8
BRANCH   1  10
ATOM     10  O   LIG    1       -1.339  -0.499   0.012  0.00  0.00    -0.370 OA
BRANCH  10  12
ATOM     11  C   LIG    1       -0.019   1.526   0.010  0.00  0.00    +0.060 C 
ATOM     12  C   LIG    1        0.002  -0.004   0.002  0.00  0.00    +0.160 C 
ENDBRANCH  10  12
ENDBRANCH   1  10
BRANCH   5  13
ATOM     13  C   LIG    1       -3.915  -5.417   2.296  0.00  0.00    +0.290 C 
BRANCH  13  14
ATOM     14  N   LIG    1       -4.179  -6.052   3.594  0.00  0.00    -0.500 N 
ATOM     15  C   LIG    1       -5.156  -7.135   3.420  0.00  0.00    +0.340 C 
ATOM     16  H   LIG    1       -4.549  -5.366   4.235  0.00  0.00    +0.440 HD
ATOM     17  H   LIG    1       -3.320  -6.430   3.965  0.00  0.00    +0.440 HD
ENDBRANCH  13  14
ENDBRANCH   5  13
TORSDOF 5
ENDMDL
MODEL      461
REMARK  Name = ZINC000409433265
REMARK                            x       y       z     vdW  Elec       q    Type
REMARK                         _______ _______ _______ _____ _____    ______ ____
ROOT
ATOM      1  O   LIG    1        0.002  -0.004   0.002  0.00  0.00    -0.950 OA
ATOM      2  S   LIG    1       -0.017   1.417   0.010  0.00  0.00    +2.770 S 
ATOM      3  N   LIG    1       -0.541   1.893   1.523  0.00  0.00    -0.970 NA
ATOM      4  C   LIG    1        0.706   2.120   2.279  0.00  0.00    +0.290 C 
ATOM      5  C   LIG    1        1.776   2.598   1.293  0.00  0.00    +0.250 C 
ATOM      6  O   LIG    1       -0.718   2.203  -0.945  0.00  0.00    -0.950 OA
ATOM      7  N   LIG    1        1.572   1.930  -0.003  0.00  0.00    -1.010 NA
ENDROOT
BRANCH   7   8
ATOM      8  C   LIG    1        2.554   1.752  -1.075  0.00  0.00    +0.310 C 
ATOM      9  C   LIG    1        3.504   2.950  -1.250  0.00  0.00    +0.320 C 
ATOM     10  N   LIG    1        4.392   2.260  -0.288  0.00  0.00    -0.540 N 
ATOM     11  H   LIG    1        4.213   2.520   0.670  0.00  0.00    +0.430 HD
ATOM     12  H   LIG    1        5.368   2.330  -0.534  0.00  0.00    +0.430 HD
ATOM     13  C   LIG    1        3.799   0.953  -0.649  0.00  0.00    +0.310 C 
ENDBRANCH   7   8
BRANCH   3  14
ATOM     14  C   LIG    1       -1.920   2.049   1.992  0.00  0.00    +0.250 C 
ATOM     15  C   LIG    1       -2.134   2.304   3.485  0.00  0.00    +0.040 C 
ATOM     16  C   LIG    1       -2.349   3.435   2.478  0.00  0.00    +0.020 C 
ENDBRANCH   3  14
TORSDOF 2
ENDMDL
MODEL      462
REMARK  Name = ZINC000409433431
REMARK                            x       y       z     vdW  Elec       q    Type
REMARK                         _______ _______ _______ _____ _____    ______ ____
ROOT
ATOM      1  C   LIG    1       -1.356  -2.019   0.004  0.00  0.00    +0.510 C 
ATOM      2  N   LIG    1       -2.514  -2.709   0.011  0.00  0.00    -0.590 N 
ATOM      3  C   LIG    1       -3.865  -2.119   0.021  0.00  0.00    +0.250 C 
ATOM      4  C   LIG    1       -4.779  -3.213  -0.587  0.00  0.00    +0.180 C 
ATOM      5  C   LIG    1       -4.146  -4.505  -0.007  0.00  0.00    +0.310 C 
ATOM      6  C   LIG    1       -2.638  -4.174   0.005  0.00  0.00    +0.300 C 
ATOM      7  O   LIG    1       -0.297  -2.611  -0.009  0.00  0.00    -0.520 OA
ENDROOT
BRANCH   5   8
ATOM      8  N   LIG    1       -4.418  -5.651  -0.879  0.00  0.00    -0.370 N 
ATOM      9  C   LIG    1       -3.695  -6.017  -1.958  0.00  0.00    +0.240 A 
ATOM     10  C   LIG    1       -4.272  -7.121  -2.486  0.00  0.00    -0.120 A 
ATOM     11  C   LIG    1       -5.386  -7.441  -1.703  0.00  0.00    +0.250 A 
ATOM     12  N   LIG    1       -5.471  -6.564  -0.735  0.00  0.00    -0.290 NA
ENDBRANCH   5   8
BRANCH   4  13
ATOM     13  O   LIG    1       -4.710  -3.203  -2.014  0.00  0.00    -0.540 OA
ATOM     14  H   LIG    1       -5.005  -2.374  -2.416  0.00  0.00    +0.390 HD
ENDBRANCH   4  13
BRANCH   1  15
ATOM     15  C   LIG    1       -1.376  -0.512   0.012  0.00  0.00    +0.290 C 
BRANCH  15  17
ATOM     16  C   LIG    1       -0.018   1.465   0.010  0.00  0.00    +0.340 C 
ATOM     17  N   LIG    1        0.002  -0.004   0.002  0.00  0.00    -0.500 N 
ATOM     18  H   LIG    1        0.490  -0.338   0.820  0.00  0.00    +0.440 HD
ATOM     19  H   LIG    1        0.474  -0.330  -0.828  0.00  0.00    +0.440 HD
ENDBRANCH  15  17
ENDBRANCH   1  15
TORSDOF 4
ENDMDL
MODEL      463
REMARK  Name = ZINC000409433430
REMARK                            x       y       z     vdW  Elec       q    Type
REMARK                         _______ _______ _______ _____ _____    ______ ____
ROOT
ATOM      1  C   LIG    1       -1.356  -2.019   0.004  0.00  0.00    +0.510 C 
ATOM      2  N   LIG    1       -2.514  -2.709   0.011  0.00  0.00    -0.600 N 
ATOM      3  C   LIG    1       -2.639  -4.178   0.011  0.00  0.00    +0.320 C 
ATOM      4  C   LIG    1       -4.029  -4.458   0.633  0.00  0.00    +0.300 C 
ATOM      5  C   LIG    1       -4.870  -3.288   0.056  0.00  0.00    +0.180 C 
ATOM      6  C   LIG    1       -3.861  -2.121   0.028  0.00  0.00    +0.230 C 
ATOM      7  O   LIG    1       -0.297  -2.611  -0.009  0.00  0.00    -0.520 OA
ENDROOT
BRANCH   4   8
ATOM      8  N   LIG    1       -3.973  -4.393   2.096  0.00  0.00    -0.360 N 
ATOM      9  C   LIG    1       -3.186  -3.574   2.824  0.00  0.00    +0.200 A 
ATOM     10  C   LIG    1       -3.430  -3.822   4.132  0.00  0.00    -0.110 A 
ATOM     11  C   LIG    1       -4.400  -4.828   4.205  0.00  0.00    +0.240 A 
ATOM     12  N   LIG    1       -4.730  -5.166   2.985  0.00  0.00    -0.270 NA
ENDBRANCH   4   8
BRANCH   5  13
ATOM     13  O   LIG    1       -5.971  -2.985   0.915  0.00  0.00    -0.530 OA
ATOM     14  H   LIG    1       -6.528  -2.261   0.599  0.00  0.00    +0.390 HD
ENDBRANCH   5  13
BRANCH   1  15
ATOM     15  C   LIG    1       -1.376  -0.512   0.012  0.00  0.00    +0.290 C 
BRANCH  15  17
ATOM     16  C   LIG    1       -0.018   1.465   0.010  0.00  0.00    +0.340 C 
ATOM     17  N   LIG    1        0.002  -0.004   0.002  0.00  0.00    -0.500 N 
ATOM     18  H   LIG    1        0.490  -0.338   0.820  0.00  0.00    +0.440 HD
ATOM     19  H   LIG    1        0.474  -0.330  -0.828  0.00  0.00    +0.440 HD
ENDBRANCH  15  17
ENDBRANCH   1  15
TORSDOF 4
ENDMDL
MODEL      464
REMARK  Name = ZINC000409433432
REMARK                            x       y       z     vdW  Elec       q    Type
REMARK                         _______ _______ _______ _____ _____    ______ ____
ROOT
ATOM      1  C   LIG    1       -1.356  -2.019   0.004  0.00  0.00    +0.510 C 
ATOM      2  N   LIG    1       -2.514  -2.709   0.011  0.00  0.00    -0.590 N 
ATOM      3  C   LIG    1       -3.865  -2.119   0.021  0.00  0.00    +0.250 C 
ATOM      4  C   LIG    1       -4.779  -3.213  -0.587  0.00  0.00    +0.170 C 
ATOM      5  C   LIG    1       -4.146  -4.505  -0.007  0.00  0.00    +0.290 C 
ATOM      6  C   LIG    1       -2.638  -4.174   0.005  0.00  0.00    +0.300 C 
ATOM      7  O   LIG    1       -0.297  -2.611  -0.009  0.00  0.00    -0.520 OA
ENDROOT
BRANCH   5   8
ATOM      8  N   LIG    1       -4.418  -5.651  -0.879  0.00  0.00    -0.380 N 
ATOM      9  C   LIG    1       -3.695  -6.017  -1.958  0.00  0.00    +0.210 A 
ATOM     10  C   LIG    1       -4.272  -7.121  -2.486  0.00  0.00    -0.100 A 
ATOM     11  C   LIG    1       -5.386  -7.441  -1.703  0.00  0.00    +0.240 A 
ATOM     12  N   LIG    1       -5.471  -6.564  -0.735  0.00  0.00    -0.280 NA
ENDBRANCH   5   8
BRANCH   4  13
ATOM     13  O   LIG    1       -6.128  -3.058  -0.141  0.00  0.00    -0.530 OA
ATOM     14  H   LIG    1       -6.533  -2.219  -0.397  0.00  0.00    +0.390 HD
ENDBRANCH   4  13
BRANCH   1  15
ATOM     15  C   LIG    1       -1.376  -0.512   0.012  0.00  0.00    +0.290 C 
BRANCH  15  17
ATOM     16  C   LIG    1       -0.018   1.465   0.010  0.00  0.00    +0.340 C 
ATOM     17  N   LIG    1        0.002  -0.004   0.002  0.00  0.00    -0.500 N 
ATOM     18  H   LIG    1        0.490  -0.338   0.820  0.00  0.00    +0.440 HD
ATOM     19  H   LIG    1        0.474  -0.330  -0.828  0.00  0.00    +0.440 HD
ENDBRANCH  15  17
ENDBRANCH   1  15
TORSDOF 4
ENDMDL
MODEL      465
REMARK  Name = ZINC000409433433
REMARK                            x       y       z     vdW  Elec       q    Type
REMARK                         _______ _______ _______ _____ _____    ______ ____
ROOT
ATOM      1  C   LIG    1       -1.356  -2.019   0.004  0.00  0.00    +0.520 C 
ATOM      2  N   LIG    1       -2.514  -2.709   0.011  0.00  0.00    -0.590 N 
ATOM      3  C   LIG    1       -3.861  -2.121   0.021  0.00  0.00    +0.240 C 
ATOM      4  C   LIG    1       -4.870  -3.288  -0.001  0.00  0.00    +0.170 C 
ATOM      5  C   LIG    1       -4.038  -4.456  -0.593  0.00  0.00    +0.290 C 
ATOM      6  C   LIG    1       -2.639  -4.178   0.005  0.00  0.00    +0.310 C 
ATOM      7  O   LIG    1       -0.297  -2.611  -0.009  0.00  0.00    -0.520 OA
ENDROOT
BRANCH   5   8
ATOM      8  N   LIG    1       -4.556  -5.751  -0.144  0.00  0.00    -0.380 N 
ATOM      9  C   LIG    1       -4.248  -6.371   1.014  0.00  0.00    +0.210 A 
ATOM     10  C   LIG    1       -4.932  -7.538   1.052  0.00  0.00    -0.100 A 
ATOM     11  C   LIG    1       -5.684  -7.634  -0.123  0.00  0.00    +0.240 A 
ATOM     12  N   LIG    1       -5.465  -6.561  -0.838  0.00  0.00    -0.280 NA
ENDBRANCH   5   8
BRANCH   4  13
ATOM     13  O   LIG    1       -5.983  -2.978  -0.843  0.00  0.00    -0.540 OA
ATOM     14  H   LIG    1       -6.491  -2.207  -0.555  0.00  0.00    +0.390 HD
ENDBRANCH   4  13
BRANCH   1  15
ATOM     15  C   LIG    1       -1.376  -0.512   0.012  0.00  0.00    +0.290 C 
BRANCH  15  17
ATOM     16  C   LIG    1       -0.018   1.465   0.010  0.00  0.00    +0.340 C 
ATOM     17  N   LIG    1        0.002  -0.004   0.002  0.00  0.00    -0.500 N 
ATOM     18  H   LIG    1        0.490  -0.338   0.820  0.00  0.00    +0.440 HD
ATOM     19  H   LIG    1        0.474  -0.330  -0.828  0.00  0.00    +0.440 HD
ENDBRANCH  15  17
ENDBRANCH   1  15
TORSDOF 4
ENDMDL
MODEL      466
REMARK  Name = ZINC000409435441
REMARK                            x       y       z     vdW  Elec       q    Type
REMARK                         _______ _______ _______ _____ _____    ______ ____
ROOT
ATOM      1  C   LIG    1        0.836  -0.462   1.171  0.00  0.00    +0.520 C 
ATOM      2  N   LIG    1        2.100  -0.017   1.312  0.00  0.00    -0.590 N 
ATOM      3  C   LIG    1        2.754   0.997   0.465  0.00  0.00    +0.250 C 
ATOM      4  C   LIG    1        3.876   1.591   1.352  0.00  0.00    +0.180 C 
ATOM      5  C   LIG    1        4.359   0.336   2.126  0.00  0.00    +0.310 C 
ATOM      6  C   LIG    1        3.054  -0.459   2.340  0.00  0.00    +0.300 C 
ATOM      7  O   LIG    1        0.369  -1.230   1.985  0.00  0.00    -0.510 OA
ENDROOT
BRANCH   5   8
ATOM      8  N   LIG    1        4.952   0.716   3.411  0.00  0.00    -0.370 N 
ATOM      9  C   LIG    1        4.282   0.925   4.564  0.00  0.00    +0.240 A 
ATOM     10  C   LIG    1        5.187   1.256   5.513  0.00  0.00    -0.120 A 
ATOM     11  C   LIG    1        6.454   1.250   4.920  0.00  0.00    +0.250 A 
ATOM     12  N   LIG    1        6.315   0.920   3.662  0.00  0.00    -0.290 NA
ENDBRANCH   5   8
BRANCH   1  14
ATOM     13  C   LIG    1       -0.701   1.308   0.360  0.00  0.00    +0.120 C 
ATOM     14  C   LIG    1        0.002  -0.004   0.002  0.00  0.00    +0.170 C 
BRANCH  14  15
ATOM     15  N   LIG    1       -1.003  -1.028  -0.313  0.00  0.00    -0.620 N 
ATOM     16  H   LIG    1       -1.599  -1.173   0.488  0.00  0.00    +0.440 HD
ATOM     17  H   LIG    1       -0.539  -1.892  -0.549  0.00  0.00    +0.440 HD
ATOM     18  H   LIG    1       -1.561  -0.721  -1.096  0.00  0.00    +0.450 HD
ENDBRANCH  14  15
ENDBRANCH   1  14
BRANCH   4  19
ATOM     19  O   LIG    1        3.354   2.576   2.247  0.00  0.00    -0.540 OA
ATOM     20  H   LIG    1        2.952   3.336   1.804  0.00  0.00    +0.390 HD
ENDBRANCH   4  19
TORSDOF 4
ENDMDL
MODEL      467
REMARK  Name = ZINC000409435342
REMARK                            x       y       z     vdW  Elec       q    Type
REMARK                         _______ _______ _______ _____ _____    ______ ____
ROOT
ATOM      1  C   LIG    1       -2.113   0.957   1.227  0.00  0.00    +0.510 C 
ATOM      2  N   LIG    1       -2.938   1.266   2.247  0.00  0.00    -0.590 N 
ATOM      3  C   LIG    1       -2.591   2.105   3.409  0.00  0.00    +0.250 C 
ATOM      4  C   LIG    1       -3.945   2.656   3.918  0.00  0.00    +0.180 C 
ATOM      5  C   LIG    1       -4.882   1.441   3.689  0.00  0.00    +0.310 C 
ATOM      6  C   LIG    1       -4.334   0.827   2.384  0.00  0.00    +0.300 C 
ATOM      7  O   LIG    1       -2.509   0.259   0.317  0.00  0.00    -0.520 OA
ENDROOT
BRANCH   5   8
ATOM      8  N   LIG    1       -6.269   1.881   3.512  0.00  0.00    -0.370 N 
ATOM      9  C   LIG    1       -6.832   2.284   2.354  0.00  0.00    +0.240 A 
ATOM     10  C   LIG    1       -8.121   2.606   2.613  0.00  0.00    -0.120 A 
ATOM     11  C   LIG    1       -8.352   2.393   3.976  0.00  0.00    +0.250 A 
ATOM     12  N   LIG    1       -7.244   1.953   4.515  0.00  0.00    -0.290 NA
ENDBRANCH   5   8
BRANCH   4  13
ATOM     13  O   LIG    1       -4.365   3.781   3.144  0.00  0.00    -0.540 OA
ATOM     14  H   LIG    1       -3.757   4.532   3.179  0.00  0.00    +0.390 HD
ENDBRANCH   4  13
BRANCH   1  15
ATOM     15  C   LIG    1       -0.699   1.479   1.216  0.00  0.00    +0.300 C 
BRANCH  15  16
ATOM     16  N   LIG    1       -0.012   1.005   0.008  0.00  0.00    -0.620 N 
ATOM     17  H   LIG    1       -0.500   1.339  -0.810  0.00  0.00    +0.440 HD
ATOM     18  H   LIG    1        0.935   1.354   0.000  0.00  0.00    +0.450 HD
ATOM     19  H   LIG    1        0.002  -0.004   0.002  0.00  0.00    +0.440 HD
ENDBRANCH  15  16
ENDBRANCH   1  15
TORSDOF 4
ENDMDL
MODEL      468
REMARK  Name = ZINC000409435344
REMARK                            x       y       z     vdW  Elec       q    Type
REMARK                         _______ _______ _______ _____ _____    ______ ____
ROOT
ATOM      1  C   LIG    1       -2.113   0.957   1.227  0.00  0.00    +0.510 C 
ATOM      2  N   LIG    1       -2.938   1.266   2.247  0.00  0.00    -0.590 N 
ATOM      3  C   LIG    1       -2.591   2.105   3.409  0.00  0.00    +0.250 C 
ATOM      4  C   LIG    1       -3.945   2.656   3.918  0.00  0.00    +0.170 C 
ATOM      5  C   LIG    1       -4.882   1.441   3.689  0.00  0.00    +0.290 C 
ATOM      6  C   LIG    1       -4.334   0.827   2.384  0.00  0.00    +0.300 C 
ATOM      7  O   LIG    1       -2.509   0.259   0.317  0.00  0.00    -0.520 OA
ENDROOT
BRANCH   5   8
ATOM      8  N   LIG    1       -6.269   1.881   3.512  0.00  0.00    -0.380 N 
ATOM      9  C   LIG    1       -6.832   2.284   2.354  0.00  0.00    +0.210 A 
ATOM     10  C   LIG    1       -8.121   2.606   2.613  0.00  0.00    -0.100 A 
ATOM     11  C   LIG    1       -8.352   2.393   3.976  0.00  0.00    +0.240 A 
ATOM     12  N   LIG    1       -7.244   1.953   4.515  0.00  0.00    -0.280 NA
ENDBRANCH   5   8
BRANCH   4  13
ATOM     13  O   LIG    1       -3.872   2.992   5.306  0.00  0.00    -0.530 OA
ATOM     14  H   LIG    1       -3.226   3.682   5.510  0.00  0.00    +0.390 HD
ENDBRANCH   4  13
BRANCH   1  15
ATOM     15  C   LIG    1       -0.699   1.479   1.216  0.00  0.00    +0.310 C 
BRANCH  15  16
ATOM     16  N   LIG    1       -0.012   1.005   0.008  0.00  0.00    -0.620 N 
ATOM     17  H   LIG    1       -0.500   1.339  -0.810  0.00  0.00    +0.440 HD
ATOM     18  H   LIG    1        0.935   1.354   0.000  0.00  0.00    +0.450 HD
ATOM     19  H   LIG    1        0.002  -0.004   0.002  0.00  0.00    +0.440 HD
ENDBRANCH  15  16
ENDBRANCH   1  15
TORSDOF 4
ENDMDL
MODEL      469
REMARK  Name = ZINC000409435442
REMARK                            x       y       z     vdW  Elec       q    Type
REMARK                         _______ _______ _______ _____ _____    ______ ____
ROOT
ATOM      1  C   LIG    1        0.609  -0.451  -1.303  0.00  0.00    +0.510 C 
ATOM      2  N   LIG    1        0.088  -0.024  -2.470  0.00  0.00    -0.600 N 
ATOM      3  C   LIG    1        0.510  -0.465  -3.812  0.00  0.00    +0.320 C 
ATOM      4  C   LIG    1       -0.721  -0.210  -4.718  0.00  0.00    +0.300 C 
ATOM      5  C   LIG    1       -1.274   1.113  -4.126  0.00  0.00    +0.180 C 
ATOM      6  C   LIG    1       -0.999   0.955  -2.616  0.00  0.00    +0.230 C 
ATOM      7  O   LIG    1        1.569  -1.193  -1.302  0.00  0.00    -0.510 OA
ENDROOT
BRANCH   4   8
ATOM      8  N   LIG    1       -1.699  -1.293  -4.592  0.00  0.00    -0.360 N 
ATOM      9  C   LIG    1       -1.963  -1.998  -3.472  0.00  0.00    +0.190 A 
ATOM     10  C   LIG    1       -2.925  -2.902  -3.771  0.00  0.00    -0.110 A 
ATOM     11  C   LIG    1       -3.261  -2.743  -5.120  0.00  0.00    +0.240 A 
ATOM     12  N   LIG    1       -2.531  -1.775  -5.611  0.00  0.00    -0.270 NA
ENDBRANCH   4   8
BRANCH   1  14
ATOM     13  C   LIG    1        0.621   1.325   0.427  0.00  0.00    +0.120 C 
ATOM     14  C   LIG    1       -0.000  -0.007   0.002  0.00  0.00    +0.170 C 
BRANCH  14  15
ATOM     15  N   LIG    1        0.260  -1.020   1.034  0.00  0.00    -0.620 N 
ATOM     16  H   LIG    1        1.255  -1.135   1.149  0.00  0.00    +0.440 HD
ATOM     17  H   LIG    1       -0.150  -1.898   0.753  0.00  0.00    +0.440 HD
ATOM     18  H   LIG    1       -0.148  -0.723   1.907  0.00  0.00    +0.450 HD
ENDBRANCH  14  15
ENDBRANCH   1  14
BRANCH   5  19
ATOM     19  O   LIG    1       -2.677   1.230  -4.375  0.00  0.00    -0.530 OA
ATOM     20  H   LIG    1       -3.072   2.041  -4.025  0.00  0.00    +0.390 HD
ENDBRANCH   5  19
TORSDOF 4
ENDMDL
MODEL      470
REMARK  Name = ZINC000409435439
REMARK                            x       y       z     vdW  Elec       q    Type
REMARK                         _______ _______ _______ _____ _____    ______ ____
ROOT
ATOM      1  C   LIG    1        0.836  -0.462   1.171  0.00  0.00    +0.520 C 
ATOM      2  N   LIG    1        2.100  -0.017   1.312  0.00  0.00    -0.590 N 
ATOM      3  C   LIG    1        2.754   0.997   0.465  0.00  0.00    +0.250 C 
ATOM      4  C   LIG    1        3.876   1.591   1.352  0.00  0.00    +0.180 C 
ATOM      5  C   LIG    1        4.359   0.336   2.126  0.00  0.00    +0.290 C 
ATOM      6  C   LIG    1        3.054  -0.459   2.340  0.00  0.00    +0.300 C 
ATOM      7  O   LIG    1        0.369  -1.230   1.985  0.00  0.00    -0.510 OA
ENDROOT
BRANCH   5   8
ATOM      8  N   LIG    1        4.952   0.716   3.411  0.00  0.00    -0.380 N 
ATOM      9  C   LIG    1        4.282   0.925   4.564  0.00  0.00    +0.210 A 
ATOM     10  C   LIG    1        5.187   1.256   5.513  0.00  0.00    -0.100 A 
ATOM     11  C   LIG    1        6.454   1.250   4.920  0.00  0.00    +0.240 A 
ATOM     12  N   LIG    1        6.315   0.920   3.662  0.00  0.00    -0.280 NA
ENDBRANCH   5   8
BRANCH   1  14
ATOM     13  C   LIG    1       -0.701   1.308   0.360  0.00  0.00    +0.120 C 
ATOM     14  C   LIG    1        0.002  -0.004   0.002  0.00  0.00    +0.170 C 
BRANCH  14  15
ATOM     15  N   LIG    1       -1.003  -1.027  -0.313  0.00  0.00    -0.620 N 
ATOM     16  H   LIG    1       -1.599  -1.173   0.488  0.00  0.00    +0.440 HD
ATOM     17  H   LIG    1       -0.540  -1.892  -0.549  0.00  0.00    +0.440 HD
ATOM     18  H   LIG    1       -1.561  -0.721  -1.096  0.00  0.00    +0.450 HD
ENDBRANCH  14  15
ENDBRANCH   1  14
BRANCH   4  19
ATOM     19  O   LIG    1        4.927   2.137   0.552  0.00  0.00    -0.530 OA
ATOM     20  H   LIG    1        4.647   2.863  -0.022  0.00  0.00    +0.390 HD
ENDBRANCH   4  19
TORSDOF 4
ENDMDL
MODEL      471
REMARK  Name = ZINC000409435341
REMARK                            x       y       z     vdW  Elec       q    Type
REMARK                         _______ _______ _______ _____ _____    ______ ____
ROOT
ATOM      1  C   LIG    1       -2.113   0.957   1.227  0.00  0.00    +0.510 C 
ATOM      2  N   LIG    1       -2.938   1.266   2.247  0.00  0.00    -0.590 N 
ATOM      3  C   LIG    1       -2.591   2.103   3.405  0.00  0.00    +0.240 C 
ATOM      4  C   LIG    1       -3.850   2.200   4.293  0.00  0.00    +0.170 C 
ATOM      5  C   LIG    1       -5.000   1.880   3.301  0.00  0.00    +0.290 C 
ATOM      6  C   LIG    1       -4.338   0.825   2.384  0.00  0.00    +0.310 C 
ATOM      7  O   LIG    1       -2.509   0.259   0.317  0.00  0.00    -0.520 OA
ENDROOT
BRANCH   5   8
ATOM      8  N   LIG    1       -6.157   1.319   4.003  0.00  0.00    -0.380 N 
ATOM      9  C   LIG    1       -6.335   0.021   4.329  0.00  0.00    +0.210 A 
ATOM     10  C   LIG    1       -7.524  -0.085   4.965  0.00  0.00    -0.100 A 
ATOM     11  C   LIG    1       -8.093   1.192   5.029  0.00  0.00    +0.240 A 
ATOM     12  N   LIG    1       -7.272   2.035   4.458  0.00  0.00    -0.280 NA
ENDBRANCH   5   8
BRANCH   4  13
ATOM     13  O   LIG    1       -3.991   3.518   4.827  0.00  0.00    -0.540 OA
ATOM     14  H   LIG    1       -3.257   3.793   5.394  0.00  0.00    +0.390 HD
ENDBRANCH   4  13
BRANCH   1  15
ATOM     15  C   LIG    1       -0.699   1.479   1.216  0.00  0.00    +0.320 C 
BRANCH  15  16
ATOM     16  N   LIG    1       -0.012   1.005   0.008  0.00  0.00    -0.620 N 
ATOM     17  H   LIG    1       -0.500   1.339  -0.810  0.00  0.00    +0.440 HD
ATOM     18  H   LIG    1        0.935   1.354   0.000  0.00  0.00    +0.450 HD
ATOM     19  H   LIG    1        0.002  -0.004   0.002  0.00  0.00    +0.440 HD
ENDBRANCH  15  16
ENDBRANCH   1  15
TORSDOF 4
ENDMDL
MODEL      472
REMARK  Name = ZINC000409435343
REMARK                            x       y       z     vdW  Elec       q    Type
REMARK                         _______ _______ _______ _____ _____    ______ ____
ROOT
ATOM      1  C   LIG    1       -0.720   2.985   1.224  0.00  0.00    +0.510 C 
ATOM      2  N   LIG    1       -1.303   3.646   2.244  0.00  0.00    -0.600 N 
ATOM      3  C   LIG    1       -1.399   5.111   2.376  0.00  0.00    +0.320 C 
ATOM      4  C   LIG    1       -2.623   5.347   3.296  0.00  0.00    +0.300 C 
ATOM      5  C   LIG    1       -2.494   4.165   4.294  0.00  0.00    +0.180 C 
ATOM      6  C   LIG    1       -1.953   3.024   3.407  0.00  0.00    +0.230 C 
ATOM      7  O   LIG    1       -0.211   3.604   0.313  0.00  0.00    -0.520 OA
ENDROOT
BRANCH   4   8
ATOM      8  N   LIG    1       -3.874   5.262   2.538  0.00  0.00    -0.360 N 
ATOM      9  C   LIG    1       -4.111   4.452   1.486  0.00  0.00    +0.190 A 
ATOM     10  C   LIG    1       -5.379   4.675   1.071  0.00  0.00    -0.110 A 
ATOM     11  C   LIG    1       -5.937   5.655   1.899  0.00  0.00    +0.240 A 
ATOM     12  N   LIG    1       -5.037   6.003   2.783  0.00  0.00    -0.270 NA
ENDBRANCH   4   8
BRANCH   5  13
ATOM     13  O   LIG    1       -3.771   3.822   4.838  0.00  0.00    -0.530 OA
ATOM     14  H   LIG    1       -3.745   3.089   5.467  0.00  0.00    +0.390 HD
ENDBRANCH   5  13
BRANCH   1  15
ATOM     15  C   LIG    1       -0.699   1.479   1.216  0.00  0.00    +0.310 C 
BRANCH  15  16
ATOM     16  N   LIG    1       -0.012   1.005   0.008  0.00  0.00    -0.620 N 
ATOM     17  H   LIG    1       -0.500   1.339  -0.810  0.00  0.00    +0.440 HD
ATOM     18  H   LIG    1        0.935   1.354   0.000  0.00  0.00    +0.440 HD
ATOM     19  H   LIG    1        0.002  -0.004   0.002  0.00  0.00    +0.450 HD
ENDBRANCH  15  16
ENDBRANCH   1  15
TORSDOF 4
ENDMDL
MODEL      473
REMARK  Name = ZINC000409435440
REMARK                            x       y       z     vdW  Elec       q    Type
REMARK                         _______ _______ _______ _____ _____    ______ ____
ROOT
ATOM      1  C   LIG    1        0.836  -0.462   1.171  0.00  0.00    +0.520 C 
ATOM      2  N   LIG    1        2.100  -0.017   1.312  0.00  0.00    -0.590 N 
ATOM      3  C   LIG    1        2.752   0.994   0.467  0.00  0.00    +0.240 C 
ATOM      4  C   LIG    1        4.179   1.200   1.018  0.00  0.00    +0.180 C 
ATOM      5  C   LIG    1        4.060   0.709   2.485  0.00  0.00    +0.290 C 
ATOM      6  C   LIG    1        3.057  -0.460   2.343  0.00  0.00    +0.310 C 
ATOM      7  O   LIG    1        0.368  -1.230   1.985  0.00  0.00    -0.510 OA
ENDROOT
BRANCH   5   8
ATOM      8  N   LIG    1        5.353   0.237   2.987  0.00  0.00    -0.370 N 
ATOM      9  C   LIG    1        5.868  -0.998   2.817  0.00  0.00    +0.210 A 
ATOM     10  C   LIG    1        7.074  -1.030   3.430  0.00  0.00    -0.100 A 
ATOM     11  C   LIG    1        7.303   0.229   3.994  0.00  0.00    +0.240 A 
ATOM     12  N   LIG    1        6.275   0.991   3.724  0.00  0.00    -0.280 NA
ENDBRANCH   5   8
BRANCH   1  14
ATOM     13  C   LIG    1       -0.696   1.311   0.357  0.00  0.00    +0.120 C 
ATOM     14  C   LIG    1        0.002  -0.004   0.002  0.00  0.00    +0.170 C 
BRANCH  14  15
ATOM     15  N   LIG    1       -1.007  -1.025  -0.309  0.00  0.00    -0.620 N 
ATOM     16  H   LIG    1       -1.602  -1.166   0.493  0.00  0.00    +0.440 HD
ATOM     17  H   LIG    1       -0.547  -1.892  -0.543  0.00  0.00    +0.440 HD
ATOM     18  H   LIG    1       -1.565  -0.718  -1.092  0.00  0.00    +0.450 HD
ENDBRANCH  14  15
ENDBRANCH   1  14
BRANCH   4  19
ATOM     19  O   LIG    1        4.544   2.581   0.972  0.00  0.00    -0.540 OA
ATOM     20  H   LIG    1        4.558   2.954   0.080  0.00  0.00    +0.390 HD
ENDBRANCH   4  19
TORSDOF 4
ENDMDL
MODEL      474
REMARK  Name = ZINC000409434991
REMARK                            x       y       z     vdW  Elec       q    Type
REMARK                         _______ _______ _______ _____ _____    ______ ____
ROOT
ATOM      1  O   LIG    1        0.002  -0.004   0.002  0.00  0.00    -0.520 OA
ATOM      2  C   LIG    1       -0.014   1.209   0.009  0.00  0.00    +0.530 C 
ATOM      3  N   LIG    1       -1.191   1.867   0.018  0.00  0.00    -0.600 N 
ATOM      4  C   LIG    1       -1.355   3.328   0.020  0.00  0.00    +0.250 C 
ATOM      5  C   LIG    1       -2.871   3.618   0.003  0.00  0.00    +0.170 C 
ATOM      6  C   LIG    1       -3.469   2.310  -0.579  0.00  0.00    +0.290 C 
ATOM      7  C   LIG    1       -2.525   1.240   0.021  0.00  0.00    +0.300 C 
ENDROOT
BRANCH   2   8
ATOM      8  C   LIG    1        1.280   1.980   0.001  0.00  0.00    -0.010 C 
ATOM      9  C   LIG    1        1.742   2.431   1.398  0.00  0.00    +0.340 C 
ATOM     10  N   LIG    1        2.477   1.149   1.461  0.00  0.00    -0.540 N 
ATOM     11  H   LIG    1        1.932   0.402   1.865  0.00  0.00    +0.440 HD
ATOM     12  H   LIG    1        3.388   1.238   1.886  0.00  0.00    +0.430 HD
ATOM     13  C   LIG    1        2.534   1.086  -0.016  0.00  0.00    +0.350 C 
ENDBRANCH   2   8
BRANCH   6  14
ATOM     14  N   LIG    1       -4.847   2.114  -0.122  0.00  0.00    -0.370 N 
ATOM     15  C   LIG    1       -5.224   1.543   1.041  0.00  0.00    +0.210 A 
ATOM     16  C   LIG    1       -6.577   1.552   1.085  0.00  0.00    -0.110 A 
ATOM     17  C   LIG    1       -7.042   2.149  -0.091  0.00  0.00    +0.240 A 
ATOM     18  N   LIG    1       -6.005   2.492  -0.813  0.00  0.00    -0.280 NA
ENDBRANCH   6  14
BRANCH   5  19
ATOM     19  O   LIG    1       -3.163   4.732  -0.843  0.00  0.00    -0.540 OA
ATOM     20  H   LIG    1       -2.747   5.559  -0.562  0.00  0.00    +0.390 HD
ENDBRANCH   5  19
TORSDOF 3
ENDMDL
MODEL      475
REMARK  Name = ZINC000409434992
REMARK                            x       y       z     vdW  Elec       q    Type
REMARK                         _______ _______ _______ _____ _____    ______ ____
ROOT
ATOM      1  O   LIG    1        0.002  -0.004   0.002  0.00  0.00    -0.520 OA
ATOM      2  C   LIG    1       -0.014   1.209   0.009  0.00  0.00    +0.530 C 
ATOM      3  N   LIG    1       -1.191   1.867   0.018  0.00  0.00    -0.600 N 
ATOM      4  C   LIG    1       -1.356   3.332   0.020  0.00  0.00    +0.260 C 
ATOM      5  C   LIG    1       -2.762   3.573  -0.582  0.00  0.00    +0.170 C 
ATOM      6  C   LIG    1       -3.562   2.382   0.007  0.00  0.00    +0.290 C 
ATOM      7  C   LIG    1       -2.522   1.242   0.021  0.00  0.00    +0.300 C 
ENDROOT
BRANCH   2   8
ATOM      8  C   LIG    1        1.280   1.980   0.001  0.00  0.00    -0.010 C 
ATOM      9  C   LIG    1        1.742   2.431   1.398  0.00  0.00    +0.340 C 
ATOM     10  N   LIG    1        2.477   1.149   1.461  0.00  0.00    -0.540 N 
ATOM     11  H   LIG    1        1.932   0.402   1.865  0.00  0.00    +0.440 HD
ATOM     12  H   LIG    1        3.388   1.238   1.886  0.00  0.00    +0.430 HD
ATOM     13  C   LIG    1        2.534   1.086  -0.016  0.00  0.00    +0.350 C 
ENDBRANCH   2   8
BRANCH   6  14
ATOM     14  N   LIG    1       -4.695   2.040  -0.857  0.00  0.00    -0.380 N 
ATOM     15  C   LIG    1       -4.655   1.225  -1.932  0.00  0.00    +0.210 A 
ATOM     16  C   LIG    1       -5.902   1.170  -2.454  0.00  0.00    -0.110 A 
ATOM     17  C   LIG    1       -6.733   1.979  -1.671  0.00  0.00    +0.240 A 
ATOM     18  N   LIG    1       -6.011   2.496  -0.710  0.00  0.00    -0.280 NA
ENDBRANCH   6  14
BRANCH   5  19
ATOM     19  O   LIG    1       -3.301   4.821  -0.141  0.00  0.00    -0.540 OA
ATOM     20  H   LIG    1       -2.777   5.590  -0.404  0.00  0.00    +0.390 HD
ENDBRANCH   5  19
TORSDOF 3
ENDMDL
MODEL      476
REMARK  Name = ZINC000409435323
REMARK                            x       y       z     vdW  Elec       q    Type
REMARK                         _______ _______ _______ _____ _____    ______ ____
ROOT
ATOM      1  O   LIG    1        0.002  -0.004   0.002  0.00  0.00    -0.520 OA
ATOM      2  C   LIG    1       -0.014   1.209   0.009  0.00  0.00    +0.530 C 
ATOM      3  N   LIG    1       -1.191   1.867   0.018  0.00  0.00    -0.600 N 
ATOM      4  C   LIG    1       -2.525   1.240   0.027  0.00  0.00    +0.310 C 
ATOM      5  C   LIG    1       -3.460   2.308   0.648  0.00  0.00    +0.270 C 
ATOM      6  C   LIG    1       -2.870   3.618   0.060  0.00  0.00    +0.190 C 
ATOM      7  C   LIG    1       -1.355   3.328   0.027  0.00  0.00    +0.230 C 
ENDROOT
BRANCH   2   8
ATOM      8  C   LIG    1        1.280   1.980   0.001  0.00  0.00    -0.010 C 
ATOM      9  C   LIG    1        1.742   2.431   1.398  0.00  0.00    +0.330 C 
ATOM     10  N   LIG    1        2.477   1.149   1.461  0.00  0.00    -0.540 N 
ATOM     11  H   LIG    1        1.932   0.402   1.865  0.00  0.00    +0.450 HD
ATOM     12  H   LIG    1        3.388   1.238   1.886  0.00  0.00    +0.430 HD
ATOM     13  C   LIG    1        2.534   1.086  -0.016  0.00  0.00    +0.350 C 
ENDBRANCH   2   8
BRANCH   5  14
ATOM     14  N   LIG    1       -3.369   2.300   2.110  0.00  0.00    -0.440 N 
ATOM     15  C   LIG    1       -4.398   2.084   2.986  0.00  0.00    +0.140 A 
ATOM     16  C   LIG    1       -3.877   2.162   4.226  0.00  0.00    +0.150 A 
ATOM     17  N   LIG    1       -2.565   2.418   4.109  0.00  0.00    -0.490 NA
ATOM     18  C   LIG    1       -2.253   2.497   2.844  0.00  0.00    +0.360 A 
ENDBRANCH   5  14
BRANCH   6  19
ATOM     19  O   LIG    1       -3.154   4.728   0.915  0.00  0.00    -0.540 OA
ATOM     20  H   LIG    1       -2.807   5.571   0.593  0.00  0.00    +0.390 HD
ENDBRANCH   6  19
TORSDOF 3
ENDMDL
MODEL      477
REMARK  Name = ZINC000409434993
REMARK                            x       y       z     vdW  Elec       q    Type
REMARK                         _______ _______ _______ _____ _____    ______ ____
ROOT
ATOM      1  O   LIG    1        0.002  -0.004   0.002  0.00  0.00    -0.520 OA
ATOM      2  C   LIG    1       -0.014   1.209   0.009  0.00  0.00    +0.530 C 
ATOM      3  N   LIG    1       -1.191   1.867   0.018  0.00  0.00    -0.600 N 
ATOM      4  C   LIG    1       -1.356   3.332   0.020  0.00  0.00    +0.260 C 
ATOM      5  C   LIG    1       -2.762   3.573  -0.582  0.00  0.00    +0.180 C 
ATOM      6  C   LIG    1       -3.562   2.382   0.007  0.00  0.00    +0.300 C 
ATOM      7  C   LIG    1       -2.522   1.242   0.021  0.00  0.00    +0.280 C 
ENDROOT
BRANCH   2   8
ATOM      8  C   LIG    1        1.280   1.980   0.001  0.00  0.00    -0.010 C 
ATOM      9  C   LIG    1        1.742   2.431   1.398  0.00  0.00    +0.340 C 
ATOM     10  N   LIG    1        2.477   1.149   1.461  0.00  0.00    -0.540 N 
ATOM     11  H   LIG    1        1.932   0.402   1.865  0.00  0.00    +0.440 HD
ATOM     12  H   LIG    1        3.388   1.238   1.886  0.00  0.00    +0.430 HD
ATOM     13  C   LIG    1        2.534   1.086  -0.016  0.00  0.00    +0.350 C 
ENDBRANCH   2   8
BRANCH   6  14
ATOM     14  N   LIG    1       -4.695   2.040  -0.857  0.00  0.00    -0.370 N 
ATOM     15  C   LIG    1       -4.655   1.225  -1.932  0.00  0.00    +0.240 A 
ATOM     16  C   LIG    1       -5.902   1.170  -2.454  0.00  0.00    -0.120 A 
ATOM     17  C   LIG    1       -6.733   1.979  -1.671  0.00  0.00    +0.250 A 
ATOM     18  N   LIG    1       -6.011   2.496  -0.710  0.00  0.00    -0.290 NA
ENDBRANCH   6  14
BRANCH   5  19
ATOM     19  O   LIG    1       -2.726   3.511  -2.010  0.00  0.00    -0.540 OA
ATOM     20  H   LIG    1       -2.157   4.178  -2.418  0.00  0.00    +0.390 HD
ENDBRANCH   5  19
TORSDOF 3
ENDMDL
MODEL      478
REMARK  Name = ZINC000409434994
REMARK                            x       y       z     vdW  Elec       q    Type
REMARK                         _______ _______ _______ _____ _____    ______ ____
ROOT
ATOM      1  O   LIG    1        0.002  -0.004   0.002  0.00  0.00    -0.520 OA
ATOM      2  C   LIG    1       -0.014   1.209   0.009  0.00  0.00    +0.530 C 
ATOM      3  N   LIG    1       -1.191   1.867   0.018  0.00  0.00    -0.600 N 
ATOM      4  C   LIG    1       -2.525   1.240   0.027  0.00  0.00    +0.310 C 
ATOM      5  C   LIG    1       -3.460   2.308   0.648  0.00  0.00    +0.290 C 
ATOM      6  C   LIG    1       -2.870   3.618   0.060  0.00  0.00    +0.180 C 
ATOM      7  C   LIG    1       -1.355   3.328   0.027  0.00  0.00    +0.230 C 
ENDROOT
BRANCH   2   8
ATOM      8  C   LIG    1        1.280   1.980   0.001  0.00  0.00    -0.010 C 
ATOM      9  C   LIG    1        1.742   2.431   1.398  0.00  0.00    +0.340 C 
ATOM     10  N   LIG    1        2.477   1.149   1.461  0.00  0.00    -0.540 N 
ATOM     11  H   LIG    1        1.932   0.402   1.865  0.00  0.00    +0.440 HD
ATOM     12  H   LIG    1        3.388   1.238   1.886  0.00  0.00    +0.430 HD
ATOM     13  C   LIG    1        2.534   1.086  -0.016  0.00  0.00    +0.350 C 
ENDBRANCH   2   8
BRANCH   5  14
ATOM     14  N   LIG    1       -3.369   2.300   2.110  0.00  0.00    -0.350 N 
ATOM     15  C   LIG    1       -2.263   2.032   2.835  0.00  0.00    +0.190 A 
ATOM     16  C   LIG    1       -2.594   2.127   4.143  0.00  0.00    -0.110 A 
ATOM     17  C   LIG    1       -3.949   2.464   4.221  0.00  0.00    +0.240 A 
ATOM     18  N   LIG    1       -4.413   2.574   3.002  0.00  0.00    -0.270 NA
ENDBRANCH   5  14
BRANCH   6  19
ATOM     19  O   LIG    1       -3.154   4.728   0.915  0.00  0.00    -0.530 OA
ATOM     20  H   LIG    1       -2.807   5.571   0.593  0.00  0.00    +0.390 HD
ENDBRANCH   6  19
TORSDOF 3
ENDMDL
MODEL      479
REMARK  Name = ZINC000409435321
REMARK                            x       y       z     vdW  Elec       q    Type
REMARK                         _______ _______ _______ _____ _____    ______ ____
ROOT
ATOM      1  O   LIG    1        0.002  -0.004   0.002  0.00  0.00    -0.520 OA
ATOM      2  C   LIG    1       -0.014   1.209   0.009  0.00  0.00    +0.530 C 
ATOM      3  N   LIG    1       -1.191   1.867   0.018  0.00  0.00    -0.600 N 
ATOM      4  C   LIG    1       -1.356   3.332   0.020  0.00  0.00    +0.260 C 
ATOM      5  C   LIG    1       -2.762   3.573  -0.582  0.00  0.00    +0.170 C 
ATOM      6  C   LIG    1       -3.562   2.382   0.007  0.00  0.00    +0.260 C 
ATOM      7  C   LIG    1       -2.522   1.242   0.021  0.00  0.00    +0.300 C 
ENDROOT
BRANCH   2   8
ATOM      8  C   LIG    1        1.280   1.980   0.001  0.00  0.00    -0.010 C 
ATOM      9  C   LIG    1        1.742   2.431   1.398  0.00  0.00    +0.340 C 
ATOM     10  N   LIG    1        2.477   1.149   1.461  0.00  0.00    -0.540 N 
ATOM     11  H   LIG    1        1.932   0.402   1.865  0.00  0.00    +0.440 HD
ATOM     12  H   LIG    1        3.388   1.238   1.886  0.00  0.00    +0.430 HD
ATOM     13  C   LIG    1        2.534   1.086  -0.016  0.00  0.00    +0.350 C 
ENDBRANCH   2   8
BRANCH   6  14
ATOM     14  N   LIG    1       -4.695   2.040  -0.857  0.00  0.00    -0.460 N 
ATOM     15  C   LIG    1       -6.018   2.062  -0.509  0.00  0.00    +0.140 A 
ATOM     16  C   LIG    1       -6.714   1.679  -1.597  0.00  0.00    +0.160 A 
ATOM     17  N   LIG    1       -5.839   1.431  -2.583  0.00  0.00    -0.480 NA
ATOM     18  C   LIG    1       -4.628   1.649  -2.148  0.00  0.00    +0.380 A 
ENDBRANCH   6  14
BRANCH   5  19
ATOM     19  O   LIG    1       -3.301   4.821  -0.141  0.00  0.00    -0.540 OA
ATOM     20  H   LIG    1       -2.777   5.590  -0.404  0.00  0.00    +0.390 HD
ENDBRANCH   5  19
TORSDOF 3
ENDMDL
MODEL      480
REMARK  Name = ZINC000409435320
REMARK                            x       y       z     vdW  Elec       q    Type
REMARK                         _______ _______ _______ _____ _____    ______ ____
ROOT
ATOM      1  O   LIG    1        0.002  -0.004   0.002  0.00  0.00    -0.520 OA
ATOM      2  C   LIG    1       -0.014   1.209   0.009  0.00  0.00    +0.530 C 
ATOM      3  N   LIG    1       -1.191   1.867   0.018  0.00  0.00    -0.600 N 
ATOM      4  C   LIG    1       -1.355   3.328   0.020  0.00  0.00    +0.250 C 
ATOM      5  C   LIG    1       -2.871   3.618   0.003  0.00  0.00    +0.180 C 
ATOM      6  C   LIG    1       -3.469   2.310  -0.579  0.00  0.00    +0.260 C 
ATOM      7  C   LIG    1       -2.525   1.240   0.021  0.00  0.00    +0.300 C 
ENDROOT
BRANCH   2   8
ATOM      8  C   LIG    1        1.280   1.980   0.001  0.00  0.00    -0.010 C 
ATOM      9  C   LIG    1        1.742   2.431   1.398  0.00  0.00    +0.340 C 
ATOM     10  N   LIG    1        2.477   1.149   1.461  0.00  0.00    -0.540 N 
ATOM     11  H   LIG    1        1.932   0.402   1.865  0.00  0.00    +0.440 HD
ATOM     12  H   LIG    1        3.388   1.238   1.886  0.00  0.00    +0.430 HD
ATOM     13  C   LIG    1        2.534   1.086  -0.016  0.00  0.00    +0.350 C 
ENDBRANCH   2   8
BRANCH   6  14
ATOM     14  N   LIG    1       -4.847   2.114  -0.122  0.00  0.00    -0.460 N 
ATOM     15  C   LIG    1       -5.959   2.014  -0.914  0.00  0.00    +0.140 A 
ATOM     16  C   LIG    1       -7.010   1.840  -0.091  0.00  0.00    +0.160 A 
ATOM     17  N   LIG    1       -6.552   1.834   1.170  0.00  0.00    -0.480 NA
ATOM     18  C   LIG    1       -5.257   1.992   1.159  0.00  0.00    +0.370 A 
ENDBRANCH   6  14
BRANCH   5  19
ATOM     19  O   LIG    1       -3.163   4.732  -0.843  0.00  0.00    -0.540 OA
ATOM     20  H   LIG    1       -2.747   5.559  -0.562  0.00  0.00    +0.390 HD
ENDBRANCH   5  19
TORSDOF 3
ENDMDL
MODEL      481
REMARK  Name = ZINC000409435322
REMARK                            x       y       z     vdW  Elec       q    Type
REMARK                         _______ _______ _______ _____ _____    ______ ____
ROOT
ATOM      1  O   LIG    1        0.002  -0.004   0.002  0.00  0.00    -0.520 OA
ATOM      2  C   LIG    1       -0.014   1.209   0.009  0.00  0.00    +0.530 C 
ATOM      3  N   LIG    1       -1.191   1.867   0.018  0.00  0.00    -0.600 N 
ATOM      4  C   LIG    1       -1.356   3.332   0.020  0.00  0.00    +0.260 C 
ATOM      5  C   LIG    1       -2.762   3.573  -0.582  0.00  0.00    +0.180 C 
ATOM      6  C   LIG    1       -3.562   2.382   0.007  0.00  0.00    +0.270 C 
ATOM      7  C   LIG    1       -2.522   1.242   0.021  0.00  0.00    +0.280 C 
ENDROOT
BRANCH   2   8
ATOM      8  C   LIG    1        1.280   1.980   0.001  0.00  0.00    -0.010 C 
ATOM      9  C   LIG    1        1.742   2.431   1.398  0.00  0.00    +0.340 C 
ATOM     10  N   LIG    1        2.477   1.149   1.461  0.00  0.00    -0.540 N 
ATOM     11  H   LIG    1        1.932   0.402   1.865  0.00  0.00    +0.440 HD
ATOM     12  H   LIG    1        3.388   1.238   1.886  0.00  0.00    +0.430 HD
ATOM     13  C   LIG    1        2.534   1.086  -0.016  0.00  0.00    +0.350 C 
ENDBRANCH   2   8
BRANCH   6  14
ATOM     14  N   LIG    1       -4.695   2.040  -0.857  0.00  0.00    -0.460 N 
ATOM     15  C   LIG    1       -6.018   2.062  -0.509  0.00  0.00    +0.110 A 
ATOM     16  C   LIG    1       -6.714   1.679  -1.597  0.00  0.00    +0.150 A 
ATOM     17  N   LIG    1       -5.839   1.431  -2.583  0.00  0.00    -0.500 NA
ATOM     18  C   LIG    1       -4.628   1.649  -2.148  0.00  0.00    +0.420 A 
ENDBRANCH   6  14
BRANCH   5  19
ATOM     19  O   LIG    1       -2.726   3.511  -2.010  0.00  0.00    -0.540 OA
ATOM     20  H   LIG    1       -2.157   4.178  -2.418  0.00  0.00    +0.390 HD
ENDBRANCH   5  19
TORSDOF 3
ENDMDL
MODEL      482
REMARK  Name = ZINC000000897171
REMARK                            x       y       z     vdW  Elec       q    Type
REMARK                         _______ _______ _______ _____ _____    ______ ____
ROOT
ATOM      1  N   LIG    1       -2.143  -0.050  -1.126  0.00  0.00    -0.370 N 
ATOM      2  C   LIG    1       -2.157   1.418  -1.118  0.00  0.00    +0.290 C 
ATOM      3  C   LIG    1       -2.849   1.918   0.152  0.00  0.00    +0.160 C 
ATOM      4  C   LIG    1       -4.287   1.393   0.183  0.00  0.00    +0.110 C 
ATOM      5  C   LIG    1       -4.264  -0.136   0.100  0.00  0.00    +0.210 C 
ATOM      6  C   LIG    1       -3.520  -0.559  -1.167  0.00  0.00    +0.190 C 
ATOM      7  H   LIG    1       -1.641  -0.377  -1.938  0.00  0.00    +0.430 HD
ENDROOT
BRANCH   5   8
ATOM      8  O   LIG    1       -5.603  -0.632   0.057  0.00  0.00    -0.540 OA
ATOM      9  H   LIG    1       -6.135  -0.397   0.829  0.00  0.00    +0.410 HD
ENDBRANCH   5   8
BRANCH   4  10
ATOM     10  O   LIG    1       -4.916   1.797   1.401  0.00  0.00    -0.550 OA
ATOM     11  H   LIG    1       -4.960   2.755   1.522  0.00  0.00    +0.400 HD
ENDBRANCH   4  10
BRANCH   3  12
ATOM     12  O   LIG    1       -2.862   3.347   0.156  0.00  0.00    -0.540 OA
ATOM     13  H   LIG    1       -3.286   3.734   0.934  0.00  0.00    +0.400 HD
ENDBRANCH   3  12
BRANCH   1  14
ATOM     14  C   LIG    1       -1.478  -0.539   0.089  0.00  0.00    +0.270 C 
BRANCH  14  15
ATOM     15  C   LIG    1       -0.024  -0.063   0.101  0.00  0.00    +0.220 C 
BRANCH  15  16
ATOM     16  O   LIG    1        0.012   1.352   0.295  0.00  0.00    -0.570 OA
ATOM     17  H   LIG    1        0.905   1.724   0.314  0.00  0.00    +0.400 HD
ENDBRANCH  15  16
ENDBRANCH  14  15
ENDBRANCH   1  14
BRANCH   6  18
ATOM     18  C   LIG    1       -3.493  -2.086  -1.256  0.00  0.00    +0.250 C 
BRANCH  18  19
ATOM     19  O   LIG    1       -2.991  -2.626  -0.031  0.00  0.00    -0.570 OA
ATOM     20  H   LIG    1       -2.946  -3.591  -0.016  0.00  0.00    +0.410 HD
ENDBRANCH  18  19
ENDBRANCH   6  18
TORSDOF 8
ENDMDL
MODEL      483
REMARK  Name = ZINC000409435781
REMARK                            x       y       z     vdW  Elec       q    Type
REMARK                         _______ _______ _______ _____ _____    ______ ____
ROOT
ATOM      1  C   LIG    1       -1.295  -0.603   0.011  0.00  0.00    +0.180 C 
ATOM      2  C   LIG    1       -1.737  -0.948   1.455  0.00  0.00    +0.270 C 
ATOM      3  N   LIG    1       -2.710  -2.045   1.300  0.00  0.00    -0.590 N 
ATOM      4  C   LIG    1       -2.446  -2.733   0.028  0.00  0.00    +0.230 C 
ATOM      5  C   LIG    1       -3.681  -2.364   2.179  0.00  0.00    +0.520 C 
ATOM      6  O   LIG    1       -3.808  -1.724   3.201  0.00  0.00    -0.520 OA
ATOM      7  C   LIG    1       -1.265  -2.006  -0.650  0.00  0.00    +0.200 C 
ENDROOT
BRANCH   5   8
ATOM      8  C   LIG    1       -4.609  -3.516   1.891  0.00  0.00    +0.180 C 
ATOM      9  C   LIG    1       -3.815  -4.844   1.822  0.00  0.00    +0.100 C 
ATOM     10  C   LIG    1       -4.916  -5.885   2.157  0.00  0.00    +0.090 C 
ATOM     11  C   LIG    1       -5.789  -5.146   3.194  0.00  0.00    +0.270 C 
ATOM     12  N   LIG    1       -5.563  -3.700   3.005  0.00  0.00    -0.500 N 
ATOM     13  H   LIG    1       -6.436  -3.245   2.785  0.00  0.00    +0.440 HD
ATOM     14  H   LIG    1       -5.177  -3.304   3.849  0.00  0.00    +0.440 HD
ENDBRANCH   5   8
BRANCH   1  16
ATOM     15  C   LIG    1       -0.017   1.425   0.010  0.00  0.00    +0.220 C 
ATOM     16  O   LIG    1        0.002  -0.004   0.002  0.00  0.00    -0.350 OA
ENDBRANCH   1  16
BRANCH   7  17
ATOM     17  O   LIG    1       -0.033  -2.673  -0.370  0.00  0.00    -0.530 OA
ATOM     18  H   LIG    1        0.005  -3.583  -0.697  0.00  0.00    +0.380 HD
ENDBRANCH   7  17
TORSDOF 3
ENDMDL
MODEL      484
REMARK  Name = ZINC000409435782
REMARK                            x       y       z     vdW  Elec       q    Type
REMARK                         _______ _______ _______ _____ _____    ______ ____
ROOT
ATOM      1  C   LIG    1       -1.295  -0.603   0.011  0.00  0.00    +0.180 C 
ATOM      2  C   LIG    1       -1.737  -0.948   1.455  0.00  0.00    +0.270 C 
ATOM      3  N   LIG    1       -2.710  -2.045   1.300  0.00  0.00    -0.590 N 
ATOM      4  C   LIG    1       -2.446  -2.733   0.028  0.00  0.00    +0.230 C 
ATOM      5  C   LIG    1       -3.681  -2.364   2.179  0.00  0.00    +0.520 C 
ATOM      6  O   LIG    1       -3.808  -1.724   3.201  0.00  0.00    -0.520 OA
ATOM      7  C   LIG    1       -1.265  -2.006  -0.650  0.00  0.00    +0.200 C 
ENDROOT
BRANCH   5   8
ATOM      8  C   LIG    1       -4.609  -3.516   1.891  0.00  0.00    +0.180 C 
ATOM      9  C   LIG    1       -5.407  -3.237   0.599  0.00  0.00    +0.080 C 
ATOM     10  C   LIG    1       -6.814  -3.800   0.930  0.00  0.00    +0.090 C 
ATOM     11  C   LIG    1       -6.943  -3.457   2.435  0.00  0.00    +0.270 C 
ATOM     12  N   LIG    1       -5.584  -3.661   2.987  0.00  0.00    -0.500 N 
ATOM     13  H   LIG    1       -5.398  -2.969   3.697  0.00  0.00    +0.440 HD
ATOM     14  H   LIG    1       -5.515  -4.585   3.387  0.00  0.00    +0.440 HD
ENDBRANCH   5   8
BRANCH   1  16
ATOM     15  C   LIG    1       -0.017   1.425   0.010  0.00  0.00    +0.220 C 
ATOM     16  O   LIG    1        0.002  -0.004   0.002  0.00  0.00    -0.350 OA
ENDBRANCH   1  16
BRANCH   7  17
ATOM     17  O   LIG    1       -0.033  -2.673  -0.370  0.00  0.00    -0.530 OA
ATOM     18  H   LIG    1        0.005  -3.583  -0.697  0.00  0.00    +0.380 HD
ENDBRANCH   7  17
TORSDOF 3
ENDMDL
MODEL      485
REMARK  Name = ZINC000387198268
REMARK                            x       y       z     vdW  Elec       q    Type
REMARK                         _______ _______ _______ _____ _____    ______ ____
ROOT
ATOM      1  C   LIG    1       -1.412  -0.526   0.013  0.00  0.00    +0.520 C 
ATOM      2  N   LIG    1       -2.236  -0.217   1.033  0.00  0.00    -0.610 N 
ATOM      3  C   LIG    1       -1.893   0.636   2.218  0.00  0.00    +0.360 C 
ATOM      4  C   LIG    1       -2.870   0.172   3.223  0.00  0.00    -0.060 C 
ATOM      5  C   LIG    1       -3.395   0.572   4.508  0.00  0.00    +0.580 C 
ATOM      6  N   LIG    1       -4.608  -0.065   4.601  0.00  0.00    -0.710 N 
ATOM      7  H   LIG    1       -5.112  -0.144   5.426  0.00  0.00    +0.430 HD
ATOM      8  C   LIG    1       -5.029  -0.574   3.405  0.00  0.00    +0.550 C 
ATOM      9  O   LIG    1       -5.893  -1.405   3.225  0.00  0.00    -0.440 OA
ATOM     10  O   LIG    1       -2.880   1.307   5.323  0.00  0.00    -0.440 OA
ATOM     11  C   LIG    1       -4.199   0.136   2.365  0.00  0.00    +0.010 C 
ATOM     12  C   LIG    1       -3.652  -0.657   1.180  0.00  0.00    +0.340 C 
ATOM     13  O   LIG    1       -1.808  -1.223  -0.897  0.00  0.00    -0.520 OA
ENDROOT
BRANCH   1  15
ATOM     14  C   LIG    1       -0.019   1.526   0.010  0.00  0.00    +0.110 C 
ATOM     15  C   LIG    1        0.002  -0.004   0.002  0.00  0.00    +0.180 C 
BRANCH  15  16
ATOM     16  N   LIG    1        0.690  -0.478  -1.207  0.00  0.00    -0.620 N 
ATOM     17  H   LIG    1        0.202  -0.144  -2.024  0.00  0.00    +0.440 HD
ATOM     18  H   LIG    1        0.703  -1.487  -1.212  0.00  0.00    +0.440 HD
ATOM     19  H   LIG    1        1.636  -0.129  -1.214  0.00  0.00    +0.440 HD
ENDBRANCH  15  16
ENDBRANCH   1  15
TORSDOF 2
ENDMDL
MODEL      486
REMARK  Name = ZINC000387198271
REMARK                            x       y       z     vdW  Elec       q    Type
REMARK                         _______ _______ _______ _____ _____    ______ ____
ROOT
ATOM      1  C   LIG    1        0.707  -0.490  -1.238  0.00  0.00    +0.530 C 
ATOM      2  N   LIG    1        1.991  -0.146  -1.462  0.00  0.00    -0.600 N 
ATOM      3  C   LIG    1        2.870   0.689  -0.610  0.00  0.00    +0.310 C 
ATOM      4  C   LIG    1        4.247  -0.003  -0.671  0.00  0.00    +0.010 C 
ATOM      5  C   LIG    1        5.319   1.042  -0.887  0.00  0.00    +0.540 C 
ATOM      6  N   LIG    1        5.838   0.899  -2.112  0.00  0.00    -0.680 N 
ATOM      7  H   LIG    1        6.543   1.471  -2.454  0.00  0.00    +0.430 HD
ATOM      8  C   LIG    1        5.304  -0.097  -2.829  0.00  0.00    +0.530 C 
ATOM      9  O   LIG    1        5.626  -0.399  -3.958  0.00  0.00    -0.450 OA
ATOM     10  O   LIG    1        5.657   1.877  -0.077  0.00  0.00    -0.460 OA
ATOM     11  C   LIG    1        4.230  -0.803  -2.001  0.00  0.00    +0.020 C 
ATOM     12  C   LIG    1        2.846  -0.522  -2.611  0.00  0.00    +0.330 C 
ATOM     13  O   LIG    1        0.120  -1.191  -2.034  0.00  0.00    -0.520 OA
ENDROOT
BRANCH   1  15
ATOM     14  C   LIG    1       -0.019   1.526   0.010  0.00  0.00    +0.110 C 
ATOM     15  C   LIG    1        0.002  -0.004   0.002  0.00  0.00    +0.180 C 
BRANCH  15  16
ATOM     16  N   LIG    1       -1.376  -0.512   0.012  0.00  0.00    -0.620 N 
ATOM     17  H   LIG    1       -1.848  -0.187   0.843  0.00  0.00    +0.450 HD
ATOM     18  H   LIG    1       -1.362  -1.521   0.007  0.00  0.00    +0.440 HD
ATOM     19  H   LIG    1       -1.864  -0.178  -0.805  0.00  0.00    +0.440 HD
ENDBRANCH  15  16
ENDBRANCH   1  15
TORSDOF 2
ENDMDL
MODEL      487
REMARK  Name = ZINC000387198278
REMARK                            x       y       z     vdW  Elec       q    Type
REMARK                         _______ _______ _______ _____ _____    ______ ____
ROOT
ATOM      1  C   LIG    1       -1.420  -0.486   0.130  0.00  0.00    +0.520 C 
ATOM      2  N   LIG    1       -2.181  -0.075   1.163  0.00  0.00    -0.610 N 
ATOM      3  C   LIG    1       -1.796   0.939   2.195  0.00  0.00    +0.350 C 
ATOM      4  C   LIG    1       -3.014   1.116   3.002  0.00  0.00    -0.060 C 
ATOM      5  C   LIG    1       -3.403   1.581   4.315  0.00  0.00    +0.580 C 
ATOM      6  N   LIG    1       -4.654   1.051   4.512  0.00  0.00    -0.710 N 
ATOM      7  H   LIG    1       -5.252   1.335   5.220  0.00  0.00    +0.430 HD
ATOM      8  C   LIG    1       -4.965   0.079   3.604  0.00  0.00    +0.550 C 
ATOM      9  O   LIG    1       -6.065  -0.362   3.351  0.00  0.00    -0.440 OA
ATOM     10  O   LIG    1       -2.766   2.281   5.072  0.00  0.00    -0.440 OA
ATOM     11  C   LIG    1       -3.644  -0.335   3.003  0.00  0.00    +0.010 C 
ATOM     12  C   LIG    1       -3.564  -0.543   1.483  0.00  0.00    +0.340 C 
ATOM     13  O   LIG    1       -1.880  -1.245  -0.697  0.00  0.00    -0.510 OA
ENDROOT
BRANCH   1  15
ATOM     14  C   LIG    1        0.023   1.327  -0.753  0.00  0.00    +0.120 C 
ATOM     15  C   LIG    1        0.002  -0.004   0.002  0.00  0.00    +0.170 C 
BRANCH  15  16
ATOM     16  N   LIG    1        0.792  -0.998  -0.737  0.00  0.00    -0.620 N 
ATOM     17  H   LIG    1        0.396  -1.127  -1.656  0.00  0.00    +0.440 HD
ATOM     18  H   LIG    1        0.778  -1.876  -0.239  0.00  0.00    +0.440 HD
ATOM     19  H   LIG    1        1.744  -0.675  -0.822  0.00  0.00    +0.450 HD
ENDBRANCH  15  16
ENDBRANCH   1  15
TORSDOF 2
ENDMDL
MODEL      488
REMARK  Name = ZINC000036730058
REMARK                            x       y       z     vdW  Elec       q    Type
REMARK                         _______ _______ _______ _____ _____    ______ ____
ROOT
ATOM      1  C   LIG    1        0.884  -1.875  -1.056  0.00  0.00    +0.170 C 
ATOM      2  C   LIG    1       -0.541  -2.433  -1.081  0.00  0.00    +0.360 C 
ATOM      3  O   LIG    1       -1.184  -2.042  -2.295  0.00  0.00    -0.380 OA
ATOM      4  C   LIG    1       -0.545  -2.528  -3.477  0.00  0.00    +0.160 C 
ATOM      5  C   LIG    1        0.880  -1.974  -3.549  0.00  0.00    +0.140 C 
ATOM      6  C   LIG    1        1.645  -2.383  -2.285  0.00  0.00    +0.220 C 
ENDROOT
BRANCH   1   7
ATOM      7  N   LIG    1        0.837  -0.407  -1.080  0.00  0.00    -0.360 N 
ATOM      8  H   LIG    1        1.568  -0.057  -1.681  0.00  0.00    +0.430 HD
BRANCH   7  10
ATOM      9  C   LIG    1       -0.497   1.560  -1.669  0.00  0.00    +0.060 C 
ATOM     10  C   LIG    1       -0.469   0.032  -1.591  0.00  0.00    +0.260 C 
ENDBRANCH   7  10
BRANCH   7  11
ATOM     11  C   LIG    1        1.030   0.111   0.281  0.00  0.00    +0.240 C 
ATOM     12  C   LIG    1        2.447  -0.217   0.755  0.00  0.00    +0.070 C 
ENDBRANCH   7  11
ENDBRANCH   1   7
BRANCH   5  13
ATOM     13  O   LIG    1        0.834  -0.548  -3.640  0.00  0.00    -0.560 OA
ATOM     14  H   LIG    1        0.309  -0.218  -4.381  0.00  0.00    +0.400 HD
ENDBRANCH   5  13
BRANCH   2  15
ATOM     15  O   LIG    1       -1.274  -1.919   0.034  0.00  0.00    -0.540 OA
ATOM     16  H   LIG    1       -2.188  -2.232   0.082  0.00  0.00    +0.420 HD
ENDBRANCH   2  15
BRANCH   6  17
ATOM     17  O   LIG    1        2.954  -1.810  -2.311  0.00  0.00    -0.550 OA
ATOM     18  H   LIG    1        3.462  -2.025  -3.105  0.00  0.00    +0.410 HD
ENDBRANCH   6  17
BRANCH   4  19
ATOM     19  C   LIG    1       -1.332  -2.073  -4.707  0.00  0.00    +0.220 C 
BRANCH  19  20
ATOM     20  O   LIG    1       -2.624  -2.683  -4.699  0.00  0.00    -0.560 OA
ATOM     21  H   LIG    1       -3.180  -2.439  -5.452  0.00  0.00    +0.400 HD
ENDBRANCH  19  20
ENDBRANCH   4  19
TORSDOF 8
ENDMDL
MODEL      489
REMARK  Name = ZINC000016188555
REMARK                            x       y       z     vdW  Elec       q    Type
REMARK                         _______ _______ _______ _____ _____    ______ ____
ROOT
ATOM      1  C   LIG    1       -0.042   1.483  -0.030  0.00  0.00    +0.320 C 
ATOM      2  N   LIG    1       -0.107   0.016  -0.062  0.00  0.00    -0.390 N 
ATOM      3  H   LIG    1       -1.072  -0.278  -0.084  0.00  0.00    +0.440 HD
ENDROOT
BRANCH   2   4
ATOM      4  C   LIG    1        0.544  -0.529   1.137  0.00  0.00    +0.270 C 
BRANCH   4   5
ATOM      5  C   LIG    1       -0.247  -0.116   2.379  0.00  0.00    +0.200 C 
BRANCH   5   6
ATOM      6  O   LIG    1       -1.541  -0.722   2.343  0.00  0.00    -0.390 OA
BRANCH   6   7
ATOM      7  C   LIG    1       -2.366  -0.398   3.465  0.00  0.00    +0.200 C 
BRANCH   7   8
ATOM      8  C   LIG    1       -3.719  -1.097   3.321  0.00  0.00    +0.200 C 
BRANCH   8   9
ATOM      9  O   LIG    1       -3.533  -2.513   3.384  0.00  0.00    -0.570 OA
ATOM     10  H   LIG    1       -4.351  -3.021   3.300  0.00  0.00    +0.390 HD
ENDBRANCH   8   9
ENDBRANCH   7   8
ENDBRANCH   6   7
ENDBRANCH   5   6
ENDBRANCH   4   5
ENDBRANCH   2   4
BRANCH   2  11
ATOM     11  C   LIG    1        0.582  -0.479  -1.261  0.00  0.00    +0.280 C 
BRANCH  11  12
ATOM     12  C   LIG    1        0.378  -1.991  -1.380  0.00  0.00    +0.200 C 
BRANCH  12  13
ATOM     13  O   LIG    1       -1.008  -2.269  -1.591  0.00  0.00    -0.390 OA
BRANCH  13  14
ATOM     14  C   LIG    1       -1.309  -3.660  -1.716  0.00  0.00    +0.210 C 
BRANCH  14  15
ATOM     15  C   LIG    1       -2.813  -3.838  -1.938  0.00  0.00    +0.210 C 
BRANCH  15  16
ATOM     16  O   LIG    1       -3.182  -3.258  -3.190  0.00  0.00    -0.570 OA
ATOM     17  H   LIG    1       -4.123  -3.334  -3.397  0.00  0.00    +0.390 HD
ENDBRANCH  15  16
ENDBRANCH  14  15
ENDBRANCH  13  14
ENDBRANCH  12  13
ENDBRANCH  11  12
ENDBRANCH   2  11
TORSDOF 12
ENDMDL
MODEL      490
REMARK  Name = ZINC000082595857
REMARK                            x       y       z     vdW  Elec       q    Type
REMARK                         _______ _______ _______ _____ _____    ______ ____
ROOT
ATOM      1  N   LIG    1        1.272  -4.165  -2.169  0.00  0.00    -0.730 N 
ATOM      2  H   LIG    1        0.847  -4.592  -1.409  0.00  0.00    +0.400 HD
ATOM      3  C   LIG    1        1.828  -4.916  -3.140  0.00  0.00    +0.510 C 
ATOM      4  O   LIG    1        2.359  -4.382  -4.090  0.00  0.00    -0.510 OA
ENDROOT
BRANCH   1   5
ATOM      5  C   LIG    1        1.309  -2.703  -2.261  0.00  0.00    +0.260 C 
BRANCH   5   6
ATOM      6  C   LIG    1        0.613  -2.097  -1.041  0.00  0.00    +0.030 C 
BRANCH   6   7
ATOM      7  C   LIG    1        0.652  -0.570  -1.138  0.00  0.00    +0.160 C 
BRANCH   7   9
ATOM      8  C   LIG    1       -0.017   1.425   0.010  0.00  0.00    +0.200 C 
ATOM      9  O   LIG    1        0.002  -0.004   0.002  0.00  0.00    -0.390 OA
ENDBRANCH   7   9
ENDBRANCH   6   7
ENDBRANCH   5   6
ENDBRANCH   1   5
BRANCH   3  10
ATOM     10  C   LIG    1        1.790  -6.419  -3.044  0.00  0.00    +0.200 C 
BRANCH  10  11
ATOM     11  N   LIG    1        2.458  -7.001  -4.216  0.00  0.00    -0.430 NA
ATOM     12  C   LIG    1        3.876  -7.287  -3.929  0.00  0.00    +0.210 C 
ATOM     13  C   LIG    1        3.707  -8.608  -4.693  0.00  0.00    +0.170 C 
ATOM     14  C   LIG    1        2.236  -8.458  -4.282  0.00  0.00    +0.220 C 
BRANCH  13  15
ATOM     15  N   LIG    1        4.391  -9.752  -4.075  0.00  0.00    -0.630 N 
ATOM     16  H   LIG    1        5.380  -9.564  -4.023  0.00  0.00    +0.440 HD
ATOM     17  H   LIG    1        4.234 -10.578  -4.632  0.00  0.00    +0.440 HD
ATOM     18  H   LIG    1        4.027  -9.899  -3.145  0.00  0.00    +0.430 HD
ENDBRANCH  13  15
ENDBRANCH  10  11
ENDBRANCH   3  10
TORSDOF 7
ENDMDL
MODEL      491
REMARK  Name = ZINC000082655977
REMARK                            x       y       z     vdW  Elec       q    Type
REMARK                         _______ _______ _______ _____ _____    ______ ____
ROOT
ATOM      1  O   LIG    1        0.002  -0.004   0.002  0.00  0.00    -0.970 OA
ATOM      2  S   LIG    1       -0.017   1.417   0.010  0.00  0.00    +2.770 S 
ATOM      3  N   LIG    1       -0.541   1.893   1.523  0.00  0.00    -1.110 NA
ATOM      4  H   LIG    1       -1.454   1.997   1.833  0.00  0.00    +0.450 HD
ATOM      5  C   LIG    1        0.706   2.120   2.279  0.00  0.00    +0.280 C 
ATOM      6  C   LIG    1        1.776   2.598   1.293  0.00  0.00    +0.260 C 
ATOM      7  O   LIG    1       -0.718   2.203  -0.945  0.00  0.00    -0.970 OA
ATOM      8  N   LIG    1        1.572   1.930  -0.003  0.00  0.00    -1.000 NA
ENDROOT
BRANCH   8   9
ATOM      9  C   LIG    1        2.554   1.752  -1.075  0.00  0.00    +0.290 C 
ATOM     10  C   LIG    1        3.045   3.122  -1.552  0.00  0.00    +0.060 C 
ATOM     11  C   LIG    1        4.127   2.928  -2.616  0.00  0.00    +0.280 C 
ATOM     12  N   LIG    1        5.251   2.175  -2.044  0.00  0.00    -0.510 N 
ATOM     13  C   LIG    1        4.803   0.834  -1.650  0.00  0.00    +0.280 C 
ATOM     14  H   LIG    1        5.602   2.662  -1.233  0.00  0.00    +0.430 HD
ATOM     15  H   LIG    1        5.985   2.095  -2.731  0.00  0.00    +0.440 HD
ATOM     16  C   LIG    1        3.746   0.948  -0.549  0.00  0.00    +0.050 C 
ENDBRANCH   8   9
TORSDOF 1
ENDMDL
MODEL      492
REMARK  Name = ZINC000083636245
REMARK                            x       y       z     vdW  Elec       q    Type
REMARK                         _______ _______ _______ _____ _____    ______ ____
ROOT
ATOM      1  C   LIG    1       -1.205  -0.245   5.220  0.00  0.00    +0.510 C 
ATOM      2  N   LIG    1       -1.216  -1.269   6.095  0.00  0.00    -0.720 N 
ATOM      3  H   LIG    1       -1.396  -2.170   5.785  0.00  0.00    +0.400 HD
ATOM      4  O   LIG    1       -0.980   0.882   5.607  0.00  0.00    -0.520 OA
ENDROOT
BRANCH   1   5
ATOM      5  C   LIG    1       -1.473  -0.499   3.759  0.00  0.00    +0.200 C 
BRANCH   5   8
ATOM      6  C   LIG    1       -0.699   1.479   1.216  0.00  0.00    +0.170 C 
ATOM      7  C   LIG    1       -1.894   0.602   1.633  0.00  0.00    +0.220 C 
ATOM      8  N   LIG    1       -1.405   0.769   3.020  0.00  0.00    -0.440 NA
ATOM      9  C   LIG    1       -0.033   1.023   2.527  0.00  0.00    +0.210 C 
BRANCH   6  10
ATOM     10  N   LIG    1       -0.012   1.005   0.008  0.00  0.00    -0.630 N 
ATOM     11  H   LIG    1       -0.500   1.339  -0.810  0.00  0.00    +0.440 HD
ATOM     12  H   LIG    1        0.935   1.354   0.000  0.00  0.00    +0.440 HD
ATOM     13  H   LIG    1        0.002  -0.004   0.002  0.00  0.00    +0.430 HD
ENDBRANCH   6  10
ENDBRANCH   5   8
ENDBRANCH   1   5
BRANCH   2  14
ATOM     14  C   LIG    1       -0.955  -1.022   7.515  0.00  0.00    +0.260 C 
BRANCH  14  15
ATOM     15  C   LIG    1       -1.026  -2.342   8.285  0.00  0.00    +0.160 C 
ATOM     16  C   LIG    1       -0.873  -2.076   9.798  0.00  0.00    +0.020 C 
ATOM     17  C   LIG    1        0.010  -3.269  10.255  0.00  0.00    +0.010 C 
ATOM     18  C   LIG    1        0.907  -3.467   9.007  0.00  0.00    +0.200 C 
ATOM     19  O   LIG    1        0.051  -3.197   7.883  0.00  0.00    -0.380 OA
ENDBRANCH  14  15
ENDBRANCH   2  14
TORSDOF 5
ENDMDL
MODEL      493
REMARK  Name = ZINC000083636243
REMARK                            x       y       z     vdW  Elec       q    Type
REMARK                         _______ _______ _______ _____ _____    ______ ____
ROOT
ATOM      1  C   LIG    1       -1.205  -0.245   5.220  0.00  0.00    +0.510 C 
ATOM      2  N   LIG    1       -1.216  -1.269   6.095  0.00  0.00    -0.720 N 
ATOM      3  H   LIG    1       -1.396  -2.170   5.785  0.00  0.00    +0.410 HD
ATOM      4  O   LIG    1       -0.980   0.882   5.607  0.00  0.00    -0.520 OA
ENDROOT
BRANCH   1   5
ATOM      5  C   LIG    1       -1.473  -0.499   3.759  0.00  0.00    +0.200 C 
BRANCH   5   8
ATOM      6  C   LIG    1       -0.699   1.479   1.216  0.00  0.00    +0.170 C 
ATOM      7  C   LIG    1       -1.894   0.602   1.633  0.00  0.00    +0.220 C 
ATOM      8  N   LIG    1       -1.405   0.769   3.020  0.00  0.00    -0.440 NA
ATOM      9  C   LIG    1       -0.033   1.023   2.527  0.00  0.00    +0.210 C 
BRANCH   6  10
ATOM     10  N   LIG    1       -0.012   1.005   0.008  0.00  0.00    -0.630 N 
ATOM     11  H   LIG    1       -0.500   1.339  -0.810  0.00  0.00    +0.440 HD
ATOM     12  H   LIG    1        0.935   1.354   0.000  0.00  0.00    +0.440 HD
ATOM     13  H   LIG    1        0.002  -0.004   0.002  0.00  0.00    +0.430 HD
ENDBRANCH   6  10
ENDBRANCH   5   8
ENDBRANCH   1   5
BRANCH   2  14
ATOM     14  C   LIG    1       -0.955  -1.022   7.515  0.00  0.00    +0.280 C 
BRANCH  14  15
ATOM     15  C   LIG    1       -1.026  -2.342   8.285  0.00  0.00    +0.150 C 
ATOM     16  C   LIG    1       -0.787  -2.098   9.796  0.00  0.00    +0.030 C 
ATOM     17  C   LIG    1       -1.514  -3.325  10.411  0.00  0.00    +0.010 C 
ATOM     18  C   LIG    1       -2.694  -3.529   9.437  0.00  0.00    +0.190 C 
ATOM     19  O   LIG    1       -2.346  -2.901   8.197  0.00  0.00    -0.380 OA
ENDBRANCH  14  15
ENDBRANCH   2  14
TORSDOF 5
ENDMDL
MODEL      494
REMARK  Name = ZINC000085256277
REMARK                            x       y       z     vdW  Elec       q    Type
REMARK                         _______ _______ _______ _____ _____    ______ ____
ROOT
ATOM      1  S   LIG    1        0.043  -3.505  -1.711  0.00  0.00    +2.730 S 
ATOM      2  O   LIG    1       -0.512  -3.103  -2.956  0.00  0.00    -0.940 OA
ATOM      3  O   LIG    1       -0.484  -4.571  -0.934  0.00  0.00    -0.940 OA
ENDROOT
BRANCH   1   7
ATOM      4  C   LIG    1       -0.018   1.461   0.010  0.00  0.00    +0.370 C 
ATOM      5  N   LIG    1        0.002  -0.004   0.002  0.00  0.00    -0.350 N 
ATOM      6  C   LIG    1        0.008  -0.792  -1.094  0.00  0.00    +0.390 A 
ATOM      7  C   LIG    1        0.027  -2.079  -0.676  0.00  0.00    -0.830 A 
ATOM      8  C   LIG    1        0.034  -2.078   0.723  0.00  0.00    +0.330 A 
ATOM      9  N   LIG    1        0.025  -0.834   1.130  0.00  0.00    -0.280 NA
ENDBRANCH   1   7
BRANCH   1  10
ATOM     10  N   LIG    1        1.629  -3.880  -2.006  0.00  0.00    -1.110 NA
ATOM     11  H   LIG    1        1.982  -3.818  -2.906  0.00  0.00    +0.420 HD
BRANCH  10  12
ATOM     12  C   LIG    1        2.497  -4.304  -0.905  0.00  0.00    +0.260 C 
ATOM     13  C   LIG    1        3.057  -5.729  -1.071  0.00  0.00    +0.320 C 
ATOM     14  N   LIG    1        4.201  -5.092  -1.761  0.00  0.00    -0.540 N 
ATOM     15  H   LIG    1        4.064  -5.012  -2.758  0.00  0.00    +0.440 HD
ATOM     16  H   LIG    1        5.087  -5.512  -1.524  0.00  0.00    +0.430 HD
ATOM     17  C   LIG    1        3.953  -3.822  -1.043  0.00  0.00    +0.320 C 
ENDBRANCH  10  12
ENDBRANCH   1  10
TORSDOF 3
ENDMDL
MODEL      495
REMARK  Name = ZINC000085256535
REMARK                            x       y       z     vdW  Elec       q    Type
REMARK                         _______ _______ _______ _____ _____    ______ ____
ROOT
ATOM      1  O   LIG    1        0.002  -0.004   0.002  0.00  0.00    -0.950 OA
ATOM      2  S   LIG    1       -0.017   1.417   0.010  0.00  0.00    +2.780 S 
ATOM      3  O   LIG    1        1.162   2.210   0.003  0.00  0.00    -0.950 OA
ENDROOT
BRANCH   2   4
ATOM      4  N   LIG    1       -0.875   1.865   1.354  0.00  0.00    -1.000 NA
ATOM      5  C   LIG    1       -0.686   3.191   1.965  0.00  0.00    +0.270 C 
ATOM      6  C   LIG    1       -2.064   3.837   2.154  0.00  0.00    +0.210 C 
ATOM      7  O   LIG    1       -2.917   2.929   2.855  0.00  0.00    -0.370 OA
ATOM      8  C   LIG    1       -3.169   1.706   2.159  0.00  0.00    +0.210 C 
ATOM      9  C   LIG    1       -1.852   0.953   1.968  0.00  0.00    +0.270 C 
ENDBRANCH   2   4
BRANCH   2  10
ATOM     10  N   LIG    1       -0.900   1.880  -1.312  0.00  0.00    -1.120 NA
ATOM     11  H   LIG    1       -1.261   1.209  -1.914  0.00  0.00    +0.420 HD
BRANCH  10  12
ATOM     12  C   LIG    1       -1.137   3.302  -1.574  0.00  0.00    +0.260 C 
ATOM     13  C   LIG    1       -0.546   3.793  -2.908  0.00  0.00    +0.320 C 
ATOM     14  N   LIG    1       -1.855   3.440  -3.503  0.00  0.00    -0.540 N 
ATOM     15  H   LIG    1       -1.888   2.493  -3.848  0.00  0.00    +0.440 HD
ATOM     16  H   LIG    1       -2.171   4.113  -4.186  0.00  0.00    +0.430 HD
ATOM     17  C   LIG    1       -2.517   3.597  -2.189  0.00  0.00    +0.320 C 
ENDBRANCH  10  12
ENDBRANCH   2  10
TORSDOF 3
ENDMDL
MODEL      496
REMARK  Name = ZINC000085256422
REMARK                            x       y       z     vdW  Elec       q    Type
REMARK                         _______ _______ _______ _____ _____    ______ ____
ROOT
ATOM      1  S   LIG    1        0.058  -3.547   1.629  0.00  0.00    +2.740 S 
ATOM      2  O   LIG    1       -0.751  -3.276   2.765  0.00  0.00    -0.940 OA
ATOM      3  O   LIG    1        1.418  -3.946   1.721  0.00  0.00    -0.930 OA
ENDROOT
BRANCH   1   8
ATOM      4  C   LIG    1       -0.018   1.461   0.010  0.00  0.00    +0.350 C 
ATOM      5  N   LIG    1        0.002  -0.004   0.002  0.00  0.00    -0.450 N 
ATOM      6  C   LIG    1        0.009  -0.799  -1.089  0.00  0.00    +0.420 A 
ATOM      7  N   LIG    1        0.027  -2.045  -0.700  0.00  0.00    -0.440 NA
ATOM      8  C   LIG    1        0.033  -2.088   0.641  0.00  0.00    -0.570 A 
ATOM      9  C   LIG    1        0.024  -0.822   1.099  0.00  0.00    +0.280 A 
ENDBRANCH   1   8
BRANCH   1  10
ATOM     10  N   LIG    1       -0.721  -4.732   0.773  0.00  0.00    -1.100 NA
ATOM     11  H   LIG    1       -1.552  -5.104   1.106  0.00  0.00    +0.420 HD
BRANCH  10  12
ATOM     12  C   LIG    1       -0.153  -5.219  -0.486  0.00  0.00    +0.280 C 
ATOM     13  C   LIG    1        0.212  -6.715  -0.464  0.00  0.00    +0.310 C 
ATOM     14  N   LIG    1       -1.161  -6.955  -0.962  0.00  0.00    -0.540 N 
ATOM     15  H   LIG    1       -1.831  -7.090  -0.219  0.00  0.00    +0.440 HD
ATOM     16  H   LIG    1       -1.205  -7.681  -1.661  0.00  0.00    +0.430 HD
ATOM     17  C   LIG    1       -1.211  -5.593  -1.539  0.00  0.00    +0.330 C 
ENDBRANCH  10  12
ENDBRANCH   1  10
TORSDOF 3
ENDMDL
MODEL      497
REMARK  Name = ZINC000085256424
REMARK                            x       y       z     vdW  Elec       q    Type
REMARK                         _______ _______ _______ _____ _____    ______ ____
ROOT
ATOM      1  S   LIG    1       -0.093   5.812  -0.004  0.00  0.00    +2.730 S 
ATOM      2  O   LIG    1       -1.496   6.006  -0.122  0.00  0.00    -0.910 OA
ATOM      3  O   LIG    1        0.856   6.478  -0.825  0.00  0.00    -0.940 OA
ENDROOT
BRANCH   1   9
ATOM      4  O   LIG    1        0.809   0.225  -0.685  0.00  0.00    -0.500 OA
ATOM      5  C   LIG    1        0.609   1.415  -0.534  0.00  0.00    +0.700 A 
ATOM      6  N   LIG    1        1.404   2.305  -1.154  0.00  0.00    -0.620 N 
ATOM      7  H   LIG    1        2.130   1.991  -1.717  0.00  0.00    +0.450 HD
ATOM      8  C   LIG    1        1.199   3.649  -1.000  0.00  0.00    +0.540 A 
ATOM      9  C   LIG    1        0.189   4.085  -0.217  0.00  0.00    -0.880 A 
ATOM     10  C   LIG    1       -0.639   3.138   0.431  0.00  0.00    +0.590 A 
ATOM     11  O   LIG    1       -1.556   3.507   1.142  0.00  0.00    -0.490 OA
ATOM     12  N   LIG    1       -0.407   1.822   0.248  0.00  0.00    -0.650 N 
ATOM     13  H   LIG    1       -0.971   1.167   0.688  0.00  0.00    +0.440 HD
ENDBRANCH   1   9
BRANCH   1  14
ATOM     14  N   LIG    1        0.300   6.184   1.561  0.00  0.00    -1.100 NA
ATOM     15  H   LIG    1       -0.381   6.517   2.166  0.00  0.00    +0.430 HD
BRANCH  14  16
ATOM     16  C   LIG    1        1.676   6.009   2.032  0.00  0.00    +0.260 C 
ATOM     17  C   LIG    1        2.344   7.318   2.491  0.00  0.00    +0.320 C 
ATOM     18  N   LIG    1        1.818   6.999   3.836  0.00  0.00    -0.540 N 
ATOM     19  H   LIG    1        0.902   7.389   4.003  0.00  0.00    +0.440 HD
ATOM     20  H   LIG    1        2.471   7.212   4.575  0.00  0.00    +0.430 HD
ATOM     21  C   LIG    1        1.777   5.559   3.500  0.00  0.00    +0.320 C 
ENDBRANCH  14  16
ENDBRANCH   1  14
TORSDOF 3
ENDMDL
MODEL      498
REMARK  Name = ZINC000085256506
REMARK                            x       y       z     vdW  Elec       q    Type
REMARK                         _______ _______ _______ _____ _____    ______ ____
ROOT
ATOM      1  S   LIG    1        0.042  -3.437  -1.774  0.00  0.00    +2.740 S 
ATOM      2  O   LIG    1       -0.751  -4.439  -1.152  0.00  0.00    -0.940 OA
ATOM      3  O   LIG    1        1.398  -3.640  -2.148  0.00  0.00    -0.940 OA
ENDROOT
BRANCH   1   7
ATOM      4  C   LIG    1       -0.018   1.503   0.010  0.00  0.00    +0.190 C 
ATOM      5  C   LIG    1        0.002  -0.004   0.002  0.00  0.00    +0.230 A 
ATOM      6  N   LIG    1        0.008  -0.759  -1.063  0.00  0.00    -0.440 NA
ATOM      7  C   LIG    1        0.028  -2.047  -0.691  0.00  0.00    -0.570 A 
ATOM      8  C   LIG    1        0.034  -2.093   0.655  0.00  0.00    +0.280 A 
ATOM      9  N   LIG    1        0.023  -0.797   1.095  0.00  0.00    -0.450 N 
ATOM     10  C   LIG    1        0.025  -0.353   2.491  0.00  0.00    +0.350 C 
ENDBRANCH   1   7
BRANCH   1  11
ATOM     11  N   LIG    1       -0.762  -2.993  -3.152  0.00  0.00    -1.100 NA
ATOM     12  H   LIG    1       -1.595  -3.429  -3.390  0.00  0.00    +0.420 HD
BRANCH  11  13
ATOM     13  C   LIG    1       -0.214  -1.942  -4.013  0.00  0.00    +0.280 C 
ATOM     14  C   LIG    1        0.130  -2.422  -5.435  0.00  0.00    +0.310 C 
ATOM     15  N   LIG    1       -1.251  -2.030  -5.794  0.00  0.00    -0.540 N 
ATOM     16  H   LIG    1       -1.915  -2.782  -5.683  0.00  0.00    +0.440 HD
ATOM     17  H   LIG    1       -1.313  -1.589  -6.699  0.00  0.00    +0.430 HD
ATOM     18  C   LIG    1       -1.288  -1.061  -4.676  0.00  0.00    +0.330 C 
ENDBRANCH  11  13
ENDBRANCH   1  11
TORSDOF 3
ENDMDL
MODEL      499
REMARK  Name = ZINC000085474970
REMARK                            x       y       z     vdW  Elec       q    Type
REMARK                         _______ _______ _______ _____ _____    ______ ____
ROOT
ATOM      1  C   LIG    1       -0.699   1.479   1.216  0.00  0.00    +0.160 C 
ATOM      2  C   LIG    1       -0.662   3.021   1.291  0.00  0.00    +0.180 C 
ATOM      3  C   LIG    1        0.114   3.315   2.594  0.00  0.00    +0.150 C 
ATOM      4  O   LIG    1       -0.060   2.131   3.402  0.00  0.00    -0.320 OA
ATOM      5  C   LIG    1        0.056   1.020   2.483  0.00  0.00    +0.440 C 
ENDROOT
BRANCH   5   6
ATOM      6  N   LIG    1       -0.567  -0.178   3.051  0.00  0.00    -0.540 N 
ATOM      7  C   LIG    1       -1.863  -0.126   3.488  0.00  0.00    +0.330 A 
ATOM      8  C   LIG    1       -2.437  -1.231   4.011  0.00  0.00    -0.070 A 
ATOM      9  C   LIG    1       -1.682  -2.425   4.095  0.00  0.00    +0.540 A 
ATOM     10  N   LIG    1       -0.409  -2.436   3.654  0.00  0.00    -0.650 N 
ATOM     11  H   LIG    1        0.115  -3.250   3.708  0.00  0.00    +0.440 HD
ATOM     12  O   LIG    1       -2.179  -3.434   4.563  0.00  0.00    -0.480 OA
ATOM     13  C   LIG    1        0.138  -1.321   3.132  0.00  0.00    +0.710 A 
ATOM     14  O   LIG    1        1.287  -1.346   2.737  0.00  0.00    -0.540 OA
ENDBRANCH   5   6
BRANCH   1  15
ATOM     15  N   LIG    1       -0.012   1.005   0.008  0.00  0.00    -0.620 N 
ATOM     16  H   LIG    1       -0.500   1.339  -0.810  0.00  0.00    +0.450 HD
ATOM     17  H   LIG    1        0.935   1.354   0.000  0.00  0.00    +0.440 HD
ATOM     18  H   LIG    1        0.002  -0.004   0.002  0.00  0.00    +0.450 HD
ENDBRANCH   1  15
BRANCH   2  19
ATOM     19  O   LIG    1       -1.987   3.552   1.363  0.00  0.00    -0.540 OA
ATOM     20  H   LIG    1       -2.022   4.517   1.411  0.00  0.00    +0.410 HD
ENDBRANCH   2  19
BRANCH   3  21
ATOM     21  C   LIG    1       -0.477   4.537   3.301  0.00  0.00    +0.220 C 
BRANCH  21  22
ATOM     22  O   LIG    1        0.323   4.862   4.440  0.00  0.00    -0.560 OA
ATOM     23  H   LIG    1        0.007   5.628   4.937  0.00  0.00    +0.400 HD
ENDBRANCH  21  22
ENDBRANCH   3  21
TORSDOF 5
ENDMDL
MODEL      500
REMARK  Name = ZINC000022947453
REMARK                            x       y       z     vdW  Elec       q    Type
REMARK                         _______ _______ _______ _____ _____    ______ ____
ROOT
ATOM      1  C   LIG    1       -3.509  -6.390   0.493  0.00  0.00    +0.260 C 
ENDROOT
BRANCH   1   2
ATOM      2  N   LIG    1       -4.820  -7.041   0.625  0.00  0.00    -0.500 N 
ATOM      3  H   LIG    1       -5.382  -6.833  -0.186  0.00  0.00    +0.430 HD
ATOM      4  H   LIG    1       -5.284  -6.698   1.453  0.00  0.00    +0.430 HD
BRANCH   2   5
ATOM      5  C   LIG    1       -4.636  -8.495   0.734  0.00  0.00    +0.250 C 
BRANCH   5   6
ATOM      6  C   LIG    1       -6.000  -9.173   0.871  0.00  0.00    +0.210 C 
BRANCH   6   7
ATOM      7  O   LIG    1       -6.657  -8.687   2.043  0.00  0.00    -0.550 OA
ATOM      8  H   LIG    1       -6.173  -8.853   2.864  0.00  0.00    +0.390 HD
ENDBRANCH   6   7
BRANCH   6   9
ATOM      9  C   LIG    1       -5.808 -10.687   0.984  0.00  0.00    +0.160 C 
BRANCH   9  10
ATOM     10  O   LIG    1       -7.085 -11.329   0.996  0.00  0.00    -0.380 OA
ATOM     11  C   LIG    1       -7.018 -12.752   1.099  0.00  0.00    +0.230 C 
ENDBRANCH   9  10
ENDBRANCH   6   9
ENDBRANCH   5   6
ENDBRANCH   2   5
ENDBRANCH   1   2
BRANCH   1  12
ATOM     12  C   LIG    1       -3.701  -4.877   0.380  0.00  0.00    +0.180 C 
BRANCH  12  13
ATOM     13  N   LIG    1       -2.391  -4.225   0.248  0.00  0.00    -0.680 NA
ATOM     14  H   LIG    1       -1.879  -4.599  -0.537  0.00  0.00    +0.360 HD
BRANCH  13  15
ATOM     15  C   LIG    1       -2.536  -2.768   0.137  0.00  0.00    +0.170 C 
BRANCH  15  16
ATOM     16  C   LIG    1       -1.154  -2.126   0.002  0.00  0.00    +0.230 C 
BRANCH  16  17
ATOM     17  O   LIG    1       -0.554  -2.542  -1.227  0.00  0.00    -0.550 OA
ATOM     18  H   LIG    1       -1.061  -2.297  -2.014  0.00  0.00    +0.370 HD
ENDBRANCH  16  17
BRANCH  16  19
ATOM     19  C   LIG    1       -1.295  -0.603   0.011  0.00  0.00    +0.140 C 
BRANCH  19  21
ATOM     20  C   LIG    1       -0.017   1.425   0.010  0.00  0.00    +0.200 C 
ATOM     21  O   LIG    1        0.002  -0.004   0.002  0.00  0.00    -0.380 OA
ENDBRANCH  19  21
ENDBRANCH  16  19
ENDBRANCH  15  16
ENDBRANCH  13  15
ENDBRANCH  12  13
ENDBRANCH   1  12
TORSDOF 13
ENDMDL
MODEL      501
REMARK  Name = ZINC000037802569
REMARK                            x       y       z     vdW  Elec       q    Type
REMARK                         _______ _______ _______ _____ _____    ______ ____
ROOT
ATOM      1  C   LIG    1        0.821  -0.541   1.147  0.00  0.00    +0.500 C 
ATOM      2  N   LIG    1        0.420  -0.336   2.417  0.00  0.00    -0.580 N 
ATOM      3  C   LIG    1       -0.870   0.309   2.699  0.00  0.00    +0.280 C 
ATOM      4  C   LIG    1       -1.689  -0.612   3.611  0.00  0.00    +0.300 C 
ATOM      5  N   LIG    1       -0.844  -1.029   4.739  0.00  0.00    -1.010 NA
ATOM      6  C   LIG    1        0.446  -1.674   4.457  0.00  0.00    +0.300 C 
ATOM      7  C   LIG    1        1.263  -0.757   3.545  0.00  0.00    +0.300 C 
ATOM      8  O   LIG    1        1.841  -1.159   0.926  0.00  0.00    -0.520 OA
ENDROOT
BRANCH   5   9
ATOM      9  S   LIG    1       -1.337  -0.777   6.300  0.00  0.00    +2.610 S 
ATOM     10  O   LIG    1       -2.215   0.337   6.215  0.00  0.00    -0.950 OA
ATOM     11  O   LIG    1       -0.127  -0.701   7.042  0.00  0.00    -0.940 OA
ATOM     12  C   LIG    1       -2.255  -2.280   6.733  0.00  0.00    -0.280 C 
ENDBRANCH   5   9
BRANCH   1  14
ATOM     13  C   LIG    1        0.264   1.496  -0.152  0.00  0.00    +0.120 C 
ATOM     14  C   LIG    1        0.002  -0.004   0.002  0.00  0.00    +0.170 C 
BRANCH  14  15
ATOM     15  N   LIG    1        0.379  -0.696  -1.237  0.00  0.00    -0.620 N 
ATOM     16  H   LIG    1       -0.169  -0.336  -2.004  0.00  0.00    +0.440 HD
ATOM     17  H   LIG    1        0.207  -1.685  -1.136  0.00  0.00    +0.440 HD
ATOM     18  H   LIG    1        1.359  -0.543  -1.423  0.00  0.00    +0.440 HD
ENDBRANCH  14  15
ENDBRANCH   1  14
TORSDOF 3
ENDMDL
MODEL      502
REMARK  Name = ZINC000104251181
REMARK                            x       y       z     vdW  Elec       q    Type
REMARK                         _______ _______ _______ _____ _____    ______ ____
ROOT
ATOM      1  C   LIG    1       -1.449  -0.163   0.171  0.00  0.00    +0.190 C 
ATOM      2  C   LIG    1       -1.769  -1.624   0.499  0.00  0.00    +0.200 C 
ATOM      3  C   LIG    1       -3.288  -1.794   0.596  0.00  0.00    +0.140 C 
ATOM      4  C   LIG    1       -3.929  -1.340  -0.719  0.00  0.00    +0.150 C 
ATOM      5  O   LIG    1       -3.566   0.017  -0.980  0.00  0.00    -0.350 OA
ATOM      6  C   LIG    1       -2.160   0.229  -1.127  0.00  0.00    +0.380 C 
ENDROOT
BRANCH   1   8
ATOM      7  C   LIG    1        0.295   1.358  -0.464  0.00  0.00    +0.310 C 
ATOM      8  N   LIG    1        0.002  -0.004   0.002  0.00  0.00    -0.380 N 
ATOM      9  C   LIG    1        0.673  -0.236   1.288  0.00  0.00    +0.330 C 
ATOM     10  H   LIG    1        0.337  -0.671  -0.677  0.00  0.00    +0.430 HD
ENDBRANCH   1   8
BRANCH   3  11
ATOM     11  O   LIG    1       -3.790  -0.999   1.672  0.00  0.00    -0.550 OA
ATOM     12  H   LIG    1       -4.747  -1.058   1.792  0.00  0.00    +0.390 HD
ENDBRANCH   3  11
BRANCH   2  13
ATOM     13  O   LIG    1       -1.167  -1.977   1.746  0.00  0.00    -0.550 OA
ATOM     14  H   LIG    1       -1.329  -2.891   2.017  0.00  0.00    +0.400 HD
ENDBRANCH   2  13
BRANCH   6  15
ATOM     15  O   LIG    1       -1.667  -0.574  -2.201  0.00  0.00    -0.590 OA
ATOM     16  H   LIG    1       -2.075  -0.381  -3.056  0.00  0.00    +0.420 HD
ENDBRANCH   6  15
BRANCH   4  17
ATOM     17  C   LIG    1       -5.451  -1.450  -0.609  0.00  0.00    +0.210 C 
BRANCH  17  18
ATOM     18  O   LIG    1       -6.043  -1.138  -1.871  0.00  0.00    -0.560 OA
ATOM     19  H   LIG    1       -7.009  -1.188  -1.876  0.00  0.00    +0.390 HD
ENDBRANCH  17  18
ENDBRANCH   4  17
TORSDOF 6
ENDMDL
MODEL      503
REMARK  Name = ZINC000104251174
REMARK                            x       y       z     vdW  Elec       q    Type
REMARK                         _______ _______ _______ _____ _____    ______ ____
ROOT
ATOM      1  C   LIG    1       -1.294  -0.566   0.404  0.00  0.00    +0.180 C 
ATOM      2  C   LIG    1       -2.370  -0.137  -0.597  0.00  0.00    +0.340 C 
ATOM      3  O   LIG    1       -3.619  -0.731  -0.236  0.00  0.00    -0.360 OA
ATOM      4  C   LIG    1       -3.609  -2.160  -0.248  0.00  0.00    +0.150 C 
ATOM      5  C   LIG    1       -2.583  -2.670   0.767  0.00  0.00    +0.150 C 
ATOM      6  C   LIG    1       -1.206  -2.095   0.425  0.00  0.00    +0.200 C 
ENDROOT
BRANCH   1   8
ATOM      7  C   LIG    1        0.280  -0.365  -1.395  0.00  0.00    +0.310 C 
ATOM      8  N   LIG    1        0.002  -0.004   0.002  0.00  0.00    -0.370 N 
ATOM      9  C   LIG    1       -0.036   1.459   0.132  0.00  0.00    +0.330 C 
ATOM     10  H   LIG    1        0.728  -0.375   0.596  0.00  0.00    +0.440 HD
ENDBRANCH   1   8
BRANCH   5  11
ATOM     11  O   LIG    1       -2.962  -2.253   2.080  0.00  0.00    -0.540 OA
ATOM     12  H   LIG    1       -3.828  -2.578   2.362  0.00  0.00    +0.390 HD
ENDBRANCH   5  11
BRANCH   2  13
ATOM     13  O   LIG    1       -2.497   1.286  -0.580  0.00  0.00    -0.540 OA
ATOM     14  H   LIG    1       -3.163   1.629  -1.191  0.00  0.00    +0.410 HD
ENDBRANCH   2  13
BRANCH   6  15
ATOM     15  O   LIG    1       -0.256  -2.509   1.409  0.00  0.00    -0.550 OA
ATOM     16  H   LIG    1       -0.154  -3.468   1.478  0.00  0.00    +0.410 HD
ENDBRANCH   6  15
BRANCH   4  17
ATOM     17  C   LIG    1       -4.999  -2.683   0.124  0.00  0.00    +0.210 C 
BRANCH  17  18
ATOM     18  O   LIG    1       -5.936  -2.303  -0.885  0.00  0.00    -0.560 OA
ATOM     19  H   LIG    1       -6.840  -2.601  -0.715  0.00  0.00    +0.400 HD
ENDBRANCH  17  18
ENDBRANCH   4  17
TORSDOF 6
ENDMDL
MODEL      504
REMARK  Name = ZINC000104251178
REMARK                            x       y       z     vdW  Elec       q    Type
REMARK                         _______ _______ _______ _____ _____    ______ ____
ROOT
ATOM      1  C   LIG    1       -1.370  -0.513   0.133  0.00  0.00    +0.180 C 
ATOM      2  C   LIG    1       -2.183  -0.116  -1.102  0.00  0.00    +0.230 C 
ATOM      3  C   LIG    1       -1.569  -0.778  -2.339  0.00  0.00    +0.140 C 
ATOM      4  C   LIG    1       -1.532  -2.294  -2.132  0.00  0.00    +0.150 C 
ATOM      5  O   LIG    1       -0.786  -2.594  -0.950  0.00  0.00    -0.370 OA
ATOM      6  C   LIG    1       -1.340  -2.040   0.247  0.00  0.00    +0.380 C 
ENDROOT
BRANCH   1   8
ATOM      7  C   LIG    1       -0.026   1.462  -0.079  0.00  0.00    +0.330 C 
ATOM      8  N   LIG    1        0.002  -0.004   0.002  0.00  0.00    -0.370 N 
ATOM      9  C   LIG    1        0.791  -0.415   1.171  0.00  0.00    +0.310 C 
ATOM     10  H   LIG    1        0.422  -0.379  -0.835  0.00  0.00    +0.430 HD
ENDBRANCH   1   8
BRANCH   3  11
ATOM     11  O   LIG    1       -0.241  -0.288  -2.533  0.00  0.00    -0.570 OA
ATOM     12  H   LIG    1        0.209  -0.666  -3.301  0.00  0.00    +0.410 HD
ENDBRANCH   3  11
BRANCH   2  13
ATOM     13  O   LIG    1       -2.157   1.305  -1.255  0.00  0.00    -0.550 OA
ATOM     14  H   LIG    1       -2.654   1.627  -2.020  0.00  0.00    +0.400 HD
ENDBRANCH   2  13
BRANCH   6  15
ATOM     15  O   LIG    1       -2.670  -2.530   0.428  0.00  0.00    -0.560 OA
ATOM     16  H   LIG    1       -2.727  -3.493   0.506  0.00  0.00    +0.410 HD
ENDBRANCH   6  15
BRANCH   4  17
ATOM     17  C   LIG    1       -0.865  -2.958  -3.338  0.00  0.00    +0.210 C 
BRANCH  17  18
ATOM     18  O   LIG    1       -0.934  -4.379  -3.198  0.00  0.00    -0.560 OA
ATOM     19  H   LIG    1       -0.530  -4.866  -3.929  0.00  0.00    +0.390 HD
ENDBRANCH  17  18
ENDBRANCH   4  17
TORSDOF 6
ENDMDL
MODEL      505
REMARK  Name = ZINC000020181682
REMARK                            x       y       z     vdW  Elec       q    Type
REMARK                         _______ _______ _______ _____ _____    ______ ____
ROOT
ATOM      1  N   LIG    1        1.581  -1.046  -1.877  0.00  0.00    -1.010 NA
ATOM      2  C   LIG    1        2.282  -0.047  -2.698  0.00  0.00    +0.310 C 
ATOM      3  C   LIG    1        3.604   0.307  -2.010  0.00  0.00    +0.190 C 
ATOM      4  N   LIG    1        4.361  -0.924  -1.747  0.00  0.00    -0.530 NA
ATOM      5  C   LIG    1        3.641  -1.805  -0.818  0.00  0.00    +0.170 C 
ATOM      6  C   LIG    1        2.322  -2.243  -1.453  0.00  0.00    +0.310 C 
ENDROOT
BRANCH   1   7
ATOM      7  S   LIG    1       -0.000  -0.824  -1.437  0.00  0.00    +2.780 S 
ATOM      8  O   LIG    1       -0.566   0.055  -2.399  0.00  0.00    -0.960 OA
ATOM      9  O   LIG    1       -0.525  -2.116  -1.161  0.00  0.00    -0.960 OA
BRANCH   7  11
ATOM     10  C   LIG    1       -0.018   1.461   0.010  0.00  0.00    +0.290 C 
ATOM     11  N   LIG    1        0.002  -0.004   0.002  0.00  0.00    -1.020 NA
ATOM     12  C   LIG    1        0.024  -0.743   1.267  0.00  0.00    +0.290 C 
ENDBRANCH   7  11
ENDBRANCH   1   7
BRANCH   4  13
ATOM     13  C   LIG    1        5.707  -0.618  -1.245  0.00  0.00    +0.180 C 
BRANCH  13  14
ATOM     14  C   LIG    1        6.546  -1.897  -1.220  0.00  0.00    +0.270 C 
BRANCH  14  15
ATOM     15  N   LIG    1        7.892  -1.590  -0.718  0.00  0.00    -0.640 N 
ATOM     16  H   LIG    1        8.445  -2.434  -0.702  0.00  0.00    +0.440 HD
ATOM     17  H   LIG    1        7.825  -1.214   0.216  0.00  0.00    +0.430 HD
ATOM     18  H   LIG    1        8.331  -0.912  -1.323  0.00  0.00    +0.440 HD
ENDBRANCH  14  15
ENDBRANCH  13  14
ENDBRANCH   4  13
TORSDOF 5
ENDMDL
MODEL      506
REMARK  Name = ZINC000253921238
REMARK                            x       y       z     vdW  Elec       q    Type
REMARK                         _______ _______ _______ _____ _____    ______ ____
ROOT
ATOM      1  C   LIG    1        0.739  -2.027  -1.265  0.00  0.00    +0.170 C 
ENDROOT
BRANCH   1   2
ATOM      2  O   LIG    1        1.430  -2.501  -0.107  0.00  0.00    -0.510 OA
ATOM      3  H   LIG    1        2.348  -2.203  -0.049  0.00  0.00    +0.370 HD
ENDBRANCH   1   2
BRANCH   1   4
ATOM      4  C   LIG    1        0.718  -0.497  -1.257  0.00  0.00    +0.160 C 
BRANCH   4   6
ATOM      5  C   LIG    1       -0.019   1.526   0.010  0.00  0.00    +0.010 C 
ATOM      6  C   LIG    1        0.002  -0.004   0.002  0.00  0.00    +0.180 C 
BRANCH   6   7
ATOM      7  O   LIG    1        0.693  -0.477   1.160  0.00  0.00    -0.540 OA
ATOM      8  H   LIG    1        1.611  -0.180   1.219  0.00  0.00    +0.370 HD
ENDBRANCH   6   7
ENDBRANCH   4   6
BRANCH   4   9
ATOM      9  O   LIG    1        0.027  -0.024  -2.414  0.00  0.00    -0.540 OA
ATOM     10  H   LIG    1       -0.891  -0.322  -2.473  0.00  0.00    +0.380 HD
ENDBRANCH   4   9
ENDBRANCH   1   4
BRANCH   1  11
ATOM     11  C   LIG    1        1.455  -2.521  -2.524  0.00  0.00    +0.220 C 
BRANCH  11  12
ATOM     12  C   LIG    1        1.586  -4.044  -2.472  0.00  0.00    +0.180 C 
ATOM     13  N   LIG    1        2.340  -4.553  -3.652  0.00  0.00    -0.520 N 
ATOM     14  C   LIG    1        2.825  -5.914  -3.353  0.00  0.00    +0.290 C 
ATOM     15  C   LIG    1        3.511  -5.920  -1.968  0.00  0.00    +0.130 C 
ATOM     16  H   LIG    1        3.127  -3.949  -3.838  0.00  0.00    +0.440 HD
ATOM     17  H   LIG    1        1.733  -4.578  -4.458  0.00  0.00    +0.440 HD
ATOM     18  S   LIG    1        2.655  -4.562  -1.072  0.00  0.00    -0.100 S 
ENDBRANCH  11  12
BRANCH  11  19
ATOM     19  O   LIG    1        2.756  -1.933  -2.594  0.00  0.00    -0.540 OA
ATOM     20  H   LIG    1        3.324  -2.145  -1.840  0.00  0.00    +0.390 HD
ENDBRANCH  11  19
ENDBRANCH   1  11
TORSDOF 8
ENDMDL
MODEL      507
REMARK  Name = ZINC000253921235
REMARK                            x       y       z     vdW  Elec       q    Type
REMARK                         _______ _______ _______ _____ _____    ______ ____
ROOT
ATOM      1  C   LIG    1        0.739  -2.027  -1.265  0.00  0.00    +0.170 C 
ENDROOT
BRANCH   1   2
ATOM      2  O   LIG    1        1.430  -2.501  -0.107  0.00  0.00    -0.520 OA
ATOM      3  H   LIG    1        2.348  -2.203  -0.049  0.00  0.00    +0.370 HD
ENDBRANCH   1   2
BRANCH   1   4
ATOM      4  C   LIG    1        0.718  -0.497  -1.257  0.00  0.00    +0.160 C 
BRANCH   4   6
ATOM      5  C   LIG    1       -0.019   1.526   0.010  0.00  0.00    +0.010 C 
ATOM      6  C   LIG    1        0.002  -0.004   0.002  0.00  0.00    +0.180 C 
BRANCH   6   7
ATOM      7  O   LIG    1        0.693  -0.477   1.160  0.00  0.00    -0.540 OA
ATOM      8  H   LIG    1        1.611  -0.180   1.219  0.00  0.00    +0.370 HD
ENDBRANCH   6   7
ENDBRANCH   4   6
BRANCH   4   9
ATOM      9  O   LIG    1        0.027  -0.024  -2.414  0.00  0.00    -0.540 OA
ATOM     10  H   LIG    1       -0.891  -0.322  -2.473  0.00  0.00    +0.380 HD
ENDBRANCH   4   9
ENDBRANCH   1   4
BRANCH   1  11
ATOM     11  C   LIG    1        1.455  -2.521  -2.524  0.00  0.00    +0.220 C 
BRANCH  11  12
ATOM     12  C   LIG    1        1.586  -4.044  -2.472  0.00  0.00    +0.190 C 
ATOM     13  N   LIG    1        2.347  -4.538  -3.643  0.00  0.00    -0.510 N 
ATOM     14  C   LIG    1        1.882  -5.879  -4.045  0.00  0.00    +0.300 C 
ATOM     15  C   LIG    1        0.331  -5.828  -4.123  0.00  0.00    +0.180 C 
ATOM     16  H   LIG    1        3.327  -4.585  -3.406  0.00  0.00    +0.440 HD
ATOM     17  H   LIG    1        2.222  -3.898  -4.413  0.00  0.00    +0.440 HD
ATOM     18  S   LIG    1       -0.061  -4.833  -2.624  0.00  0.00    -0.140 S 
ENDBRANCH  11  12
BRANCH  11  19
ATOM     19  O   LIG    1        2.756  -1.933  -2.594  0.00  0.00    -0.540 OA
ATOM     20  H   LIG    1        3.324  -2.145  -1.840  0.00  0.00    +0.380 HD
ENDBRANCH  11  19
ENDBRANCH   1  11
TORSDOF 8
ENDMDL
MODEL      508
REMARK  Name = ZINC000110771204
REMARK                            x       y       z     vdW  Elec       q    Type
REMARK                         _______ _______ _______ _____ _____    ______ ____
ROOT
ATOM      1  C   LIG    1       -2.153   0.805   1.054  0.00  0.00    +0.000 C 
ATOM      2  C   LIG    1       -3.012   1.246   2.203  0.00  0.00    +0.020 C 
ATOM      3  C   LIG    1       -2.613   1.546   3.629  0.00  0.00    -0.320 C 
ATOM      4  S   LIG    1       -3.415   3.176   3.942  0.00  0.00    +2.370 S 
ATOM      5  C   LIG    1       -3.945   3.465   2.196  0.00  0.00    -0.270 C 
ATOM      6  O   LIG    1       -2.426   4.130   4.306  0.00  0.00    -0.920 OA
ATOM      7  O   LIG    1       -4.561   2.993   4.763  0.00  0.00    -0.910 OA
ATOM      8  C   LIG    1       -2.874   2.635   1.480  0.00  0.00    -0.030 C 
ATOM      9  C   LIG    1       -3.110   1.768   0.272  0.00  0.00    +0.090 C 
ENDROOT
BRANCH   1  10
ATOM     10  C   LIG    1       -0.699   1.278   1.130  0.00  0.00    +0.280 C 
BRANCH  10  11
ATOM     11  N   LIG    1        0.125   0.230   1.747  0.00  0.00    -0.640 N 
ATOM     12  H   LIG    1        0.009  -0.633   1.237  0.00  0.00    +0.440 HD
ATOM     13  H   LIG    1        1.095   0.507   1.723  0.00  0.00    +0.440 HD
ATOM     14  H   LIG    1       -0.163   0.096   2.704  0.00  0.00    +0.440 HD
ENDBRANCH  10  11
ENDBRANCH   1  10
BRANCH   9  15
ATOM     15  C   LIG    1       -2.534   2.327  -1.031  0.00  0.00    +0.190 C 
BRANCH  15  16
ATOM     16  O   LIG    1       -2.921   1.488  -2.121  0.00  0.00    -0.570 OA
ATOM     17  H   LIG    1       -2.590   1.783  -2.981  0.00  0.00    +0.390 HD
ENDBRANCH  15  16
ENDBRANCH   9  15
TORSDOF 4
ENDMDL
MODEL      509
REMARK  Name = ZINC000037825896
REMARK                            x       y       z     vdW  Elec       q    Type
REMARK                         _______ _______ _______ _____ _____    ______ ____
ROOT
ATOM      1  N   LIG    1       -2.607  -2.683  -0.010  0.00  0.00    -0.510 NA
ATOM      2  C   LIG    1       -3.478  -1.948   0.917  0.00  0.00    +0.190 C 
ATOM      3  C   LIG    1       -4.923  -2.427   0.743  0.00  0.00    +0.310 C 
ATOM      4  N   LIG    1       -4.952  -3.890   0.890  0.00  0.00    -0.590 N 
ATOM      5  C   LIG    1       -4.009  -4.688   0.091  0.00  0.00    +0.290 C 
ATOM      6  C   LIG    1       -5.819  -4.484   1.733  0.00  0.00    +0.500 C 
ATOM      7  O   LIG    1       -6.590  -3.810   2.384  0.00  0.00    -0.530 OA
ATOM      8  C   LIG    1       -2.600  -4.121   0.291  0.00  0.00    +0.190 C 
ENDROOT
BRANCH   1   9
ATOM      9  C   LIG    1       -1.244  -2.135   0.003  0.00  0.00    +0.320 C 
BRANCH   9  10
ATOM     10  C   LIG    1       -0.676  -2.234   1.395  0.00  0.00    +0.430 C 
ATOM     11  O   LIG    1       -1.296  -2.804   2.261  0.00  0.00    -0.520 OA
BRANCH  10  13
ATOM     12  C   LIG    1        1.004  -1.823   3.034  0.00  0.00    +0.260 C 
ATOM     13  O   LIG    1        0.519  -1.689   1.672  0.00  0.00    -0.350 OA
ENDBRANCH  10  13
ENDBRANCH   9  10
ENDBRANCH   1   9
BRANCH   6  14
ATOM     14  C   LIG    1       -5.832  -5.985   1.868  0.00  0.00    +0.290 C 
BRANCH  14  15
ATOM     15  N   LIG    1       -6.858  -6.381   2.841  0.00  0.00    -0.620 N 
ATOM     16  H   LIG    1       -6.651  -5.964   3.736  0.00  0.00    +0.440 HD
ATOM     17  H   LIG    1       -6.867  -7.386   2.931  0.00  0.00    +0.450 HD
ATOM     18  H   LIG    1       -7.762  -6.064   2.524  0.00  0.00    +0.440 HD
ENDBRANCH  14  15
ENDBRANCH   6  14
TORSDOF 5
ENDMDL
MODEL      510
REMARK  Name = ZINC000408728440
REMARK                            x       y       z     vdW  Elec       q    Type
REMARK                         _______ _______ _______ _____ _____    ______ ____
ROOT
ATOM      1  C   LIG    1        0.002  -0.004   0.002  0.00  0.00    +0.670 A 
ATOM      2  N   LIG    1       -1.138  -0.658   0.004  0.00  0.00    -0.590 NA
ATOM      3  C   LIG    1       -1.167  -1.996  -0.004  0.00  0.00    +0.340 A 
ATOM      4  C   LIG    1        0.031  -2.716  -0.014  0.00  0.00    -0.140 A 
ATOM      5  C   LIG    1        1.250  -2.001  -0.016  0.00  0.00    +0.600 A 
ATOM      6  O   LIG    1        2.319  -2.588  -0.025  0.00  0.00    -0.500 OA
ATOM      7  N   LIG    1       -0.288  -4.037  -0.019  0.00  0.00    -0.420 NA
ATOM      8  C   LIG    1       -1.591  -4.166  -0.013  0.00  0.00    +0.380 A 
ATOM      9  N   LIG    1       -2.175  -2.928  -0.004  0.00  0.00    -0.560 N 
ATOM     10  H   LIG    1       -3.127  -2.744   0.003  0.00  0.00    +0.430 HD
ATOM     11  N   LIG    1        1.202  -0.650  -0.013  0.00  0.00    -0.660 N 
ATOM     12  H   LIG    1        2.026  -0.138  -0.014  0.00  0.00    +0.430 HD
ENDROOT
BRANCH   8  13
ATOM     13  N   LIG    1       -2.272  -5.369  -0.016  0.00  0.00    -0.450 N 
ATOM     14  C   LIG    1       -3.188  -5.458   1.130  0.00  0.00    +0.220 C 
ATOM     15  C   LIG    1       -3.964  -6.775   1.058  0.00  0.00    +0.290 C 
ATOM     16  N   LIG    1       -3.021  -7.901   1.074  0.00  0.00    -0.510 N 
ATOM     17  C   LIG    1       -2.130  -7.811  -0.090  0.00  0.00    +0.290 C 
ATOM     18  H   LIG    1       -3.534  -8.769   1.038  0.00  0.00    +0.440 HD
ATOM     19  H   LIG    1       -2.473  -7.868   1.920  0.00  0.00    +0.430 HD
ATOM     20  C   LIG    1       -1.338  -6.503  -0.027  0.00  0.00    +0.260 C 
ENDBRANCH   8  13
BRANCH   1  21
ATOM     21  N   LIG    1       -0.017   1.369   0.010  0.00  0.00    -0.810 N 
ATOM     22  H   LIG    1       -0.863   1.843   0.016  0.00  0.00    +0.430 HD
ATOM     23  H   LIG    1        0.817   1.865   0.004  0.00  0.00    +0.420 HD
ENDBRANCH   1  21
TORSDOF 2
ENDMDL
