MODEL        1
REMARK  Name = ZINC000004760502
REMARK                            x       y       z     vdW  Elec       q    Type
REMARK                         _______ _______ _______ _____ _____    ______ ____
ROOT
ATOM      1  N   LIG    1        0.711  -0.489   1.189  0.00  0.00    -0.710 N 
ATOM      2  H   LIG    1        0.213  -0.731   1.986  0.00  0.00    +0.420 HD
ATOM      3  C   LIG    1        2.054  -0.600   1.174  0.00  0.00    +0.520 C 
ATOM      4  O   LIG    1        2.676  -0.297   0.177  0.00  0.00    -0.540 OA
ENDROOT
BRANCH   1   6
ATOM      5  C   LIG    1       -0.019   1.526   0.010  0.00  0.00    +0.060 C 
ATOM      6  C   LIG    1        0.002  -0.004   0.002  0.00  0.00    +0.240 C 
BRANCH   6   7
ATOM      7  C   LIG    1       -1.412  -0.526   0.013  0.00  0.00    +0.520 C 
ATOM      8  O   LIG    1       -1.790  -1.233   0.922  0.00  0.00    -0.540 OA
ATOM      9  N   LIG    1       -2.256  -0.206  -0.988  0.00  0.00    -0.850 N 
ATOM     10  H   LIG    1       -3.166  -0.542  -0.982  0.00  0.00    +0.410 HD
ATOM     11  H   LIG    1       -1.953   0.360  -1.716  0.00  0.00    +0.410 HD
ENDBRANCH   6   7
ENDBRANCH   1   6
BRANCH   3  12
ATOM     12  C   LIG    1        2.783  -1.099   2.395  0.00  0.00    +0.300 C 
BRANCH  12  13
ATOM     13  N   LIG    1        4.223  -1.127   2.126  0.00  0.00    -0.720 N 
ATOM     14  H   LIG    1        4.560  -0.847   1.261  0.00  0.00    +0.410 HD
ATOM     15  C   LIG    1        5.078  -1.542   3.081  0.00  0.00    +0.510 C 
ATOM     16  O   LIG    1        4.656  -1.893   4.163  0.00  0.00    -0.520 OA
BRANCH  15  17
ATOM     17  C   LIG    1        6.559  -1.571   2.805  0.00  0.00    +0.220 C 
BRANCH  17  18
ATOM     18  N   LIG    1        7.270  -2.058   3.995  0.00  0.00    -0.830 NA
ATOM     19  H   LIG    1        8.266  -2.087   3.835  0.00  0.00    +0.350 HD
ATOM     20  H   LIG    1        6.923  -2.962   4.279  0.00  0.00    +0.350 HD
ENDBRANCH  17  18
ENDBRANCH  15  17
ENDBRANCH  12  13
ENDBRANCH   3  12
TORSDOF 6
ENDMDL
MODEL        2
REMARK  Name = ZINC000064858426
REMARK                            x       y       z     vdW  Elec       q    Type
REMARK                         _______ _______ _______ _____ _____    ______ ____
ROOT
ATOM      1  C   LIG    1        0.739  -2.004  -1.265  0.00  0.00    +0.020 C 
ATOM      2  N   LIG    1        0.190  -2.647  -0.293  0.00  0.00    -0.340 NA
ATOM      3  C   LIG    1        0.207  -4.008  -0.231  0.00  0.00    -0.220 A 
ATOM      4  C   LIG    1        1.056  -4.737  -1.076  0.00  0.00    +0.470 A 
ATOM      5  N   LIG    1        1.875  -4.038  -1.943  0.00  0.00    -0.700 N 
ATOM      6  H   LIG    1        2.729  -4.397  -2.231  0.00  0.00    +0.420 HD
ATOM      7  N   LIG    1        1.065  -6.067  -1.025  0.00  0.00    -0.610 NA
ATOM      8  C   LIG    1        0.298  -6.717  -0.172  0.00  0.00    +0.680 A 
ATOM      9  N   LIG    1       -0.530  -6.064   0.689  0.00  0.00    -0.660 N 
ATOM     10  H   LIG    1       -1.078  -6.571   1.308  0.00  0.00    +0.420 HD
ATOM     11  C   LIG    1       -0.595  -4.715   0.686  0.00  0.00    +0.580 A 
ATOM     12  O   LIG    1       -1.331  -4.123   1.458  0.00  0.00    -0.510 OA
ATOM     13  C   LIG    1        1.395  -2.726  -2.414  0.00  0.00    +0.310 C 
ENDROOT
BRANCH   8  14
ATOM     14  N   LIG    1        0.335  -8.085  -0.151  0.00  0.00    -0.810 N 
ATOM     15  H   LIG    1       -0.224  -8.576   0.471  0.00  0.00    +0.420 HD
ATOM     16  H   LIG    1        0.921  -8.563  -0.758  0.00  0.00    +0.430 HD
ENDBRANCH   8  14
BRANCH   1  17
ATOM     17  C   LIG    1        0.718  -0.497  -1.257  0.00  0.00    +0.250 C 
BRANCH  17  19
ATOM     18  C   LIG    1       -0.019   1.526   0.010  0.00  0.00    +0.010 C 
ATOM     19  C   LIG    1        0.002  -0.004   0.002  0.00  0.00    +0.190 C 
BRANCH  19  20
ATOM     20  O   LIG    1        0.693  -0.477   1.160  0.00  0.00    -0.530 OA
ATOM     21  H   LIG    1        1.611  -0.180   1.219  0.00  0.00    +0.360 HD
ENDBRANCH  19  20
ENDBRANCH  17  19
BRANCH  17  22
ATOM     22  O   LIG    1        0.027  -0.024  -2.414  0.00  0.00    -0.550 OA
ATOM     23  H   LIG    1       -0.891  -0.322  -2.473  0.00  0.00    +0.380 HD
ENDBRANCH  17  22
ENDBRANCH   1  17
TORSDOF 5
ENDMDL
MODEL        3
REMARK  Name = ZINC000064858420
REMARK                            x       y       z     vdW  Elec       q    Type
REMARK                         _______ _______ _______ _____ _____    ______ ____
ROOT
ATOM      1  C   LIG    1        0.739  -2.004  -1.265  0.00  0.00    +0.020 C 
ATOM      2  N   LIG    1        0.190  -2.647  -0.293  0.00  0.00    -0.340 NA
ATOM      3  C   LIG    1        0.207  -4.008  -0.231  0.00  0.00    -0.220 A 
ATOM      4  C   LIG    1        1.056  -4.737  -1.076  0.00  0.00    +0.470 A 
ATOM      5  N   LIG    1        1.875  -4.038  -1.943  0.00  0.00    -0.700 N 
ATOM      6  H   LIG    1        2.729  -4.397  -2.231  0.00  0.00    +0.420 HD
ATOM      7  N   LIG    1        1.065  -6.067  -1.025  0.00  0.00    -0.610 NA
ATOM      8  C   LIG    1        0.298  -6.717  -0.172  0.00  0.00    +0.680 A 
ATOM      9  N   LIG    1       -0.530  -6.064   0.689  0.00  0.00    -0.660 N 
ATOM     10  H   LIG    1       -1.078  -6.571   1.308  0.00  0.00    +0.420 HD
ATOM     11  C   LIG    1       -0.595  -4.715   0.686  0.00  0.00    +0.580 A 
ATOM     12  O   LIG    1       -1.331  -4.123   1.458  0.00  0.00    -0.510 OA
ATOM     13  C   LIG    1        1.395  -2.726  -2.414  0.00  0.00    +0.310 C 
ENDROOT
BRANCH   8  14
ATOM     14  N   LIG    1        0.335  -8.085  -0.151  0.00  0.00    -0.810 N 
ATOM     15  H   LIG    1       -0.224  -8.576   0.471  0.00  0.00    +0.420 HD
ATOM     16  H   LIG    1        0.921  -8.563  -0.758  0.00  0.00    +0.430 HD
ENDBRANCH   8  14
BRANCH   1  17
ATOM     17  C   LIG    1        0.718  -0.497  -1.257  0.00  0.00    +0.250 C 
BRANCH  17  19
ATOM     18  C   LIG    1       -0.019   1.526   0.010  0.00  0.00    +0.010 C 
ATOM     19  C   LIG    1        0.002  -0.004   0.002  0.00  0.00    +0.190 C 
BRANCH  19  20
ATOM     20  O   LIG    1        0.693  -0.477   1.160  0.00  0.00    -0.530 OA
ATOM     21  H   LIG    1        1.611  -0.180   1.219  0.00  0.00    +0.360 HD
ENDBRANCH  19  20
ENDBRANCH  17  19
BRANCH  17  22
ATOM     22  O   LIG    1        0.027  -0.024  -2.414  0.00  0.00    -0.550 OA
ATOM     23  H   LIG    1       -0.891  -0.322  -2.473  0.00  0.00    +0.380 HD
ENDBRANCH  17  22
ENDBRANCH   1  17
TORSDOF 5
ENDMDL
MODEL        4
REMARK  Name = ZINC000257223453
REMARK                            x       y       z     vdW  Elec       q    Type
REMARK                         _______ _______ _______ _____ _____    ______ ____
ROOT
ATOM      1  C   LIG    1        0.020  -2.136  -1.177  0.00  0.00    +0.260 C 
ATOM      2  C   LIG    1        1.474  -2.672  -1.183  0.00  0.00    +0.260 C 
ATOM      3  N   LIG    1        1.379  -4.012  -1.791  0.00  0.00    -0.620 N 
ATOM      4  C   LIG    1        0.176  -4.064  -2.634  0.00  0.00    +0.240 C 
ATOM      5  C   LIG    1        2.252  -5.022  -1.604  0.00  0.00    +0.530 C 
ATOM      6  O   LIG    1        3.214  -4.867  -0.882  0.00  0.00    -0.510 OA
ATOM      7  C   LIG    1       -0.524  -2.693  -2.519  0.00  0.00    +0.170 C 
ENDROOT
BRANCH   1  10
ATOM      8  C   LIG    1       -0.018   1.503   0.010  0.00  0.00    +0.110 C 
ATOM      9  C   LIG    1        0.002  -0.004   0.002  0.00  0.00    +0.510 C 
ATOM     10  N   LIG    1        0.000  -0.672  -1.169  0.00  0.00    -0.720 N 
ATOM     11  H   LIG    1       -0.015  -0.182  -2.006  0.00  0.00    +0.400 HD
ATOM     12  O   LIG    1        0.020  -0.616   1.049  0.00  0.00    -0.540 OA
ENDBRANCH   1  10
BRANCH   7  13
ATOM     13  O   LIG    1       -1.943  -2.852  -2.469  0.00  0.00    -0.550 OA
ATOM     14  H   LIG    1       -2.321  -3.267  -3.256  0.00  0.00    +0.390 HD
ENDBRANCH   7  13
BRANCH   5  15
ATOM     15  C   LIG    1        2.031  -6.345  -2.291  0.00  0.00    +0.210 C 
BRANCH  15  16
ATOM     16  N   LIG    1        3.111  -7.272  -1.928  0.00  0.00    -0.530 NA
ATOM     17  C   LIG    1        4.401  -6.812  -2.461  0.00  0.00    +0.200 C 
ATOM     18  C   LIG    1        2.810  -8.636  -2.382  0.00  0.00    +0.200 C 
ENDBRANCH  15  16
ENDBRANCH   5  15
TORSDOF 4
ENDMDL
MODEL        5
REMARK  Name = ZINC000067897702
REMARK                            x       y       z     vdW  Elec       q    Type
REMARK                         _______ _______ _______ _____ _____    ______ ____
ROOT
ATOM      1  N   LIG    1        0.690  -0.478  -1.207  0.00  0.00    -0.510 NA
ATOM      2  C   LIG    1        2.047   0.092  -1.300  0.00  0.00    +0.190 C 
ATOM      3  C   LIG    1        2.147   0.808  -2.658  0.00  0.00    +0.190 C 
ATOM      4  C   LIG    1        1.023   0.165  -3.498  0.00  0.00    +0.160 C 
ATOM      5  O   LIG    1        1.472  -1.091  -4.012  0.00  0.00    -0.350 OA
ATOM      6  C   LIG    1        2.556  -0.989  -4.936  0.00  0.00    +0.280 C 
ATOM      7  C   LIG    1        3.672  -0.202  -4.304  0.00  0.00    +0.500 C 
ATOM      8  O   LIG    1        4.797  -0.308  -4.745  0.00  0.00    -0.530 OA
ATOM      9  N   LIG    1        3.456   0.611  -3.252  0.00  0.00    -0.580 N 
ATOM     10  C   LIG    1       -0.062  -0.105  -2.424  0.00  0.00    +0.220 C 
ENDROOT
BRANCH   1  12
ATOM     11  C   LIG    1       -0.019   1.526   0.010  0.00  0.00    +0.000 C 
ATOM     12  C   LIG    1        0.002  -0.004   0.002  0.00  0.00    +0.160 C 
ATOM     13  C   LIG    1       -1.433  -0.534   0.013  0.00  0.00    +0.040 C 
ENDBRANCH   1  12
BRANCH   9  14
ATOM     14  C   LIG    1        4.597   1.347  -2.702  0.00  0.00    +0.320 C 
BRANCH  14  15
ATOM     15  C   LIG    1        4.722   2.676  -3.401  0.00  0.00    +0.500 C 
ATOM     16  O   LIG    1        3.935   2.979  -4.273  0.00  0.00    -0.540 OA
ATOM     17  N   LIG    1        5.708   3.528  -3.058  0.00  0.00    -0.850 N 
ATOM     18  H   LIG    1        5.788   4.384  -3.507  0.00  0.00    +0.400 HD
ATOM     19  H   LIG    1        6.337   3.286  -2.360  0.00  0.00    +0.400 HD
ENDBRANCH  14  15
ENDBRANCH   9  14
TORSDOF 3
ENDMDL
MODEL        6
REMARK  Name = ZINC000644149506
REMARK                            x       y       z     vdW  Elec       q    Type
REMARK                         _______ _______ _______ _____ _____    ______ ____
ROOT
ATOM      1  O   UNK A  1        0.002  -0.004   0.002  0.00  0.00    -0.510 OA
ATOM      2  C   UNK A  1       -0.014   1.209   0.009  0.00  0.00    +0.530 C 
ATOM      3  N   UNK A  1        1.143   1.898   0.001  0.00  0.00    -0.710 N 
ATOM      4  H   UNK A  1        1.130   2.868   0.007  0.00  0.00    +0.410 HD
ENDROOT
BRANCH   2   5
ATOM      5  C   UNK A  1       -1.330   1.944   0.019  0.00  0.00    +0.240 C 
ATOM      6  N   UNK A  1       -2.371   1.052   0.509  0.00  0.00    -0.700 N 
ATOM      7  H   UNK A  1       -2.165   0.460   1.250  0.00  0.00    +0.420 HD
ATOM      8  C   GLY A  2       -3.600   1.014  -0.016  0.00  0.00    +0.520 C 
ATOM      9  CA  GLY A  2       -4.018   1.885  -1.162  0.00  0.00    +0.330 C 
ATOM     10  N   GLY A  2       -2.863   2.392  -1.891  0.00  0.00    -0.710 N 
ATOM     11  H   GLY A  2       -2.992   2.718  -2.795  0.00  0.00    +0.420 HD
ATOM     12  O   GLY A  2       -4.409   0.242   0.453  0.00  0.00    -0.520 OA
ATOM     13  C   UNK A  1       -1.634   2.425  -1.368  0.00  0.00    +0.520 C 
ATOM     14  O   UNK A  1       -0.727   2.863  -2.043  0.00  0.00    -0.510 OA
ENDBRANCH   2   5
BRANCH   3  15
ATOM     15  C   UNK A  1        2.422   1.183  -0.015  0.00  0.00    +0.410 C 
BRANCH  15  16
ATOM     16  C   UNK A  1        3.554   2.178  -0.020  0.00  0.00    +0.150 A 
ATOM     17  N   UNK A  1        4.061   2.767  -1.069  0.00  0.00    -0.260 NA
ATOM     18  N   UNK A  1        5.012   3.553  -0.706  0.00  0.00    -0.290 NA
ATOM     19  C   UNK A  1        5.155   3.501   0.590  0.00  0.00    +0.400 A 
ATOM     20  N   UNK A  1        4.230   2.631   1.063  0.00  0.00    -0.580 N 
ATOM     21  H   UNK A  1        4.086   2.379   1.988  0.00  0.00    +0.430 HD
ENDBRANCH  15  16
ENDBRANCH   3  15
TORSDOF 3
ENDMDL
MODEL        7
REMARK  Name = ZINC000644149507
REMARK                            x       y       z     vdW  Elec       q    Type
REMARK                         _______ _______ _______ _____ _____    ______ ____
ROOT
ATOM      1  O   UNK A  1        0.002  -0.004   0.002  0.00  0.00    -0.510 OA
ATOM      2  C   UNK A  1       -0.014   1.209   0.009  0.00  0.00    +0.510 C 
ATOM      3  N   UNK A  1        1.143   1.898   0.001  0.00  0.00    -0.710 N 
ATOM      4  H   UNK A  1        1.130   2.868   0.007  0.00  0.00    +0.410 HD
ENDROOT
BRANCH   2   5
ATOM      5  C   UNK A  1       -1.330   1.944   0.019  0.00  0.00    +0.260 C 
ATOM      6  N   UNK A  1       -2.376   1.058  -0.471  0.00  0.00    -0.700 N 
ATOM      7  H   UNK A  1       -2.458   0.921  -1.428  0.00  0.00    +0.420 HD
ATOM      8  C   GLY A  2       -3.228   0.424   0.340  0.00  0.00    +0.520 C 
ATOM      9  CA  GLY A  2       -3.186   0.569   1.832  0.00  0.00    +0.330 C 
ATOM     10  N   GLY A  2       -2.469   1.773   2.226  0.00  0.00    -0.710 N 
ATOM     11  H   GLY A  2       -2.613   2.129   3.117  0.00  0.00    +0.420 HD
ATOM     12  O   GLY A  2       -4.070  -0.298  -0.150  0.00  0.00    -0.520 OA
ATOM     13  C   UNK A  1       -1.621   2.409   1.414  0.00  0.00    +0.530 C 
ATOM     14  O   UNK A  1       -1.063   3.406   1.821  0.00  0.00    -0.520 OA
ENDBRANCH   2   5
BRANCH   3  15
ATOM     15  C   UNK A  1        2.422   1.183  -0.015  0.00  0.00    +0.410 C 
BRANCH  15  16
ATOM     16  C   UNK A  1        3.554   2.178  -0.020  0.00  0.00    +0.150 A 
ATOM     17  N   UNK A  1        4.061   2.767  -1.069  0.00  0.00    -0.270 NA
ATOM     18  N   UNK A  1        5.012   3.553  -0.706  0.00  0.00    -0.290 NA
ATOM     19  C   UNK A  1        5.155   3.501   0.590  0.00  0.00    +0.400 A 
ATOM     20  N   UNK A  1        4.230   2.631   1.063  0.00  0.00    -0.570 N 
ATOM     21  H   UNK A  1        4.086   2.379   1.988  0.00  0.00    +0.430 HD
ENDBRANCH  15  16
ENDBRANCH   3  15
TORSDOF 3
ENDMDL
MODEL        8
REMARK  Name = ZINC000090697793
REMARK                            x       y       z     vdW  Elec       q    Type
REMARK                         _______ _______ _______ _____ _____    ______ ____
ROOT
ATOM      1  C   LIG    1        0.002  -0.004   0.002  0.00  0.00    +0.130 C 
ATOM      2  C   LIG    1        0.672  -0.543   1.286  0.00  0.00    +0.180 C 
ATOM      3  C   LIG    1       -0.441  -1.367   1.972  0.00  0.00    +0.140 C 
ATOM      4  O   LIG    1       -1.675  -0.812   1.467  0.00  0.00    -0.350 OA
ATOM      5  C   LIG    1       -1.436  -0.565   0.061  0.00  0.00    +0.430 C 
ENDROOT
BRANCH   5   6
ATOM      6  N   LIG    1       -2.393   0.418  -0.454  0.00  0.00    -0.520 N 
ATOM      7  C   LIG    1       -2.523   1.628   0.170  0.00  0.00    +0.400 A 
ATOM      8  C   LIG    1       -3.404   2.534  -0.305  0.00  0.00    -0.140 A 
ATOM      9  C   LIG    1       -4.178   2.210  -1.445  0.00  0.00    +0.550 A 
ATOM     10  N   LIG    1       -4.020   1.006  -2.032  0.00  0.00    -0.660 N 
ATOM     11  H   LIG    1       -4.547   0.776  -2.813  0.00  0.00    +0.430 HD
ATOM     12  O   LIG    1       -4.979   3.011  -1.892  0.00  0.00    -0.510 OA
ATOM     13  C   LIG    1       -3.130   0.124  -1.540  0.00  0.00    +0.700 A 
ATOM     14  O   LIG    1       -2.998  -0.958  -2.080  0.00  0.00    -0.540 OA
ENDBRANCH   5   6
BRANCH   1  15
ATOM     15  N   LIG    1       -0.018   1.465   0.010  0.00  0.00    -0.820 NA
ATOM     16  H   LIG    1       -0.556   1.823  -0.764  0.00  0.00    +0.340 HD
ATOM     17  H   LIG    1        0.919   1.839   0.003  0.00  0.00    +0.360 HD
ENDBRANCH   1  15
BRANCH   2  18
ATOM     18  O   LIG    1        1.089   0.536   2.124  0.00  0.00    -0.530 OA
ATOM     19  H   LIG    1        1.516   0.254   2.945  0.00  0.00    +0.380 HD
ENDBRANCH   2  18
BRANCH   3  20
ATOM     20  C   LIG    1       -0.363  -1.205   3.491  0.00  0.00    +0.210 C 
BRANCH  20  21
ATOM     21  O   LIG    1       -1.323  -2.062   4.112  0.00  0.00    -0.570 OA
ATOM     22  H   LIG    1       -1.330  -2.012   5.077  0.00  0.00    +0.390 HD
ENDBRANCH  20  21
ENDBRANCH   3  20
TORSDOF 5
ENDMDL
MODEL        9
REMARK  Name = ZINC000003831134
REMARK                            x       y       z     vdW  Elec       q    Type
REMARK                         _______ _______ _______ _____ _____    ______ ____
ROOT
ATOM      1  N   LIG    1       -2.158  -0.009  -1.324  0.00  0.00    -0.500 NA
ATOM      2  C   LIG    1       -1.468  -0.570  -2.493  0.00  0.00    +0.150 C 
ATOM      3  C   LIG    1       -2.216  -0.172  -3.768  0.00  0.00    +0.160 C 
ATOM      4  C   LIG    1       -3.652  -0.698  -3.697  0.00  0.00    +0.140 C 
ATOM      5  C   LIG    1       -4.332  -0.136  -2.445  0.00  0.00    +0.200 C 
ATOM      6  C   LIG    1       -3.523  -0.536  -1.209  0.00  0.00    +0.160 C 
ENDROOT
BRANCH   5   7
ATOM      7  O   LIG    1       -4.395   1.288  -2.535  0.00  0.00    -0.510 OA
ATOM      8  H   LIG    1       -4.892   1.613  -3.299  0.00  0.00    +0.360 HD
ENDBRANCH   5   7
BRANCH   4   9
ATOM      9  O   LIG    1       -3.635  -2.125  -3.634  0.00  0.00    -0.560 OA
ATOM     10  H   LIG    1       -3.214  -2.548  -4.395  0.00  0.00    +0.390 HD
ENDBRANCH   4   9
BRANCH   3  11
ATOM     11  O   LIG    1       -1.556  -0.734  -4.904  0.00  0.00    -0.570 OA
ATOM     12  H   LIG    1       -0.639  -0.446  -5.009  0.00  0.00    +0.380 HD
ENDBRANCH   3  11
BRANCH   1  13
ATOM     13  C   LIG    1       -1.393  -0.254  -0.094  0.00  0.00    +0.180 C 
BRANCH  13  14
ATOM     14  C   LIG    1       -0.066   0.505  -0.159  0.00  0.00    +0.170 C 
BRANCH  14  15
ATOM     15  O   LIG    1       -0.321   1.911  -0.171  0.00  0.00    -0.550 OA
ATOM     16  H   LIG    1        0.477   2.455  -0.212  0.00  0.00    +0.370 HD
ENDBRANCH  14  15
ENDBRANCH  13  14
ENDBRANCH   1  13
BRANCH   6  17
ATOM     17  C   LIG    1       -4.188   0.040   0.043  0.00  0.00    +0.160 C 
BRANCH  17  18
ATOM     18  O   LIG    1       -4.295   1.459  -0.085  0.00  0.00    -0.530 OA
ATOM     19  H   LIG    1       -4.708   1.893   0.675  0.00  0.00    +0.360 HD
ENDBRANCH  17  18
ENDBRANCH   6  17
TORSDOF 8
ENDMDL
MODEL       10
REMARK  Name = ZINC000004165550
REMARK                            x       y       z     vdW  Elec       q    Type
REMARK                         _______ _______ _______ _____ _____    ______ ____
ROOT
ATOM      1  N   LIG    1       -2.154  -0.018  -1.318  0.00  0.00    -0.510 NA
ATOM      2  C   LIG    1       -1.465  -0.580  -2.487  0.00  0.00    +0.150 C 
ATOM      3  C   LIG    1       -2.205  -0.171  -3.762  0.00  0.00    +0.160 C 
ATOM      4  C   LIG    1       -3.645  -0.688  -3.698  0.00  0.00    +0.140 C 
ATOM      5  C   LIG    1       -4.325  -0.126  -2.446  0.00  0.00    +0.220 C 
ATOM      6  C   LIG    1       -3.523  -0.536  -1.209  0.00  0.00    +0.170 C 
ENDROOT
BRANCH   5   7
ATOM      7  O   LIG    1       -5.652  -0.648  -2.350  0.00  0.00    -0.550 OA
ATOM      8  H   LIG    1       -6.217  -0.428  -3.104  0.00  0.00    +0.380 HD
ENDBRANCH   5   7
BRANCH   4   9
ATOM      9  O   LIG    1       -3.638  -2.115  -3.640  0.00  0.00    -0.550 OA
ATOM     10  H   LIG    1       -3.218  -2.538  -4.401  0.00  0.00    +0.380 HD
ENDBRANCH   4   9
BRANCH   3  11
ATOM     11  O   LIG    1       -1.546  -0.735  -4.898  0.00  0.00    -0.570 OA
ATOM     12  H   LIG    1       -0.626  -0.452  -4.999  0.00  0.00    +0.390 HD
ENDBRANCH   3  11
BRANCH   1  13
ATOM     13  C   LIG    1       -1.394  -0.272  -0.087  0.00  0.00    +0.190 C 
BRANCH  13  14
ATOM     14  C   LIG    1       -0.062   0.478  -0.144  0.00  0.00    +0.170 C 
BRANCH  14  15
ATOM     15  O   LIG    1       -0.309   1.886  -0.151  0.00  0.00    -0.550 OA
ATOM     16  H   LIG    1        0.493   2.425  -0.187  0.00  0.00    +0.370 HD
ENDBRANCH  14  15
ENDBRANCH  13  14
ENDBRANCH   1  13
BRANCH   6  17
ATOM     17  C   LIG    1       -4.188   0.040   0.043  0.00  0.00    +0.190 C 
BRANCH  17  18
ATOM     18  O   LIG    1       -4.295   1.459  -0.085  0.00  0.00    -0.550 OA
ATOM     19  H   LIG    1       -4.708   1.893   0.675  0.00  0.00    +0.380 HD
ENDBRANCH  17  18
ENDBRANCH   6  17
TORSDOF 8
ENDMDL
MODEL       11
REMARK  Name = ZINC000003831133
REMARK                            x       y       z     vdW  Elec       q    Type
REMARK                         _______ _______ _______ _____ _____    ______ ____
ROOT
ATOM      1  N   LIG    1       -2.158  -0.009  -1.324  0.00  0.00    -0.490 NA
ATOM      2  C   LIG    1       -1.468  -0.570  -2.493  0.00  0.00    +0.140 C 
ATOM      3  C   LIG    1       -2.216  -0.172  -3.768  0.00  0.00    +0.140 C 
ATOM      4  C   LIG    1       -3.652  -0.698  -3.697  0.00  0.00    +0.140 C 
ATOM      5  C   LIG    1       -4.332  -0.136  -2.445  0.00  0.00    +0.200 C 
ATOM      6  C   LIG    1       -3.523  -0.536  -1.209  0.00  0.00    +0.170 C 
ENDROOT
BRANCH   5   7
ATOM      7  O   LIG    1       -4.395   1.288  -2.535  0.00  0.00    -0.490 OA
ATOM      8  H   LIG    1       -4.892   1.613  -3.299  0.00  0.00    +0.360 HD
ENDBRANCH   5   7
BRANCH   4   9
ATOM      9  O   LIG    1       -3.635  -2.125  -3.634  0.00  0.00    -0.560 OA
ATOM     10  H   LIG    1       -3.214  -2.548  -4.395  0.00  0.00    +0.380 HD
ENDBRANCH   4   9
BRANCH   3  11
ATOM     11  O   LIG    1       -2.234   1.253  -3.885  0.00  0.00    -0.530 OA
ATOM     12  H   LIG    1       -1.355   1.655  -3.932  0.00  0.00    +0.380 HD
ENDBRANCH   3  11
BRANCH   1  13
ATOM     13  C   LIG    1       -1.393  -0.254  -0.094  0.00  0.00    +0.180 C 
BRANCH  13  14
ATOM     14  C   LIG    1       -0.066   0.505  -0.159  0.00  0.00    +0.170 C 
BRANCH  14  15
ATOM     15  O   LIG    1       -0.321   1.911  -0.171  0.00  0.00    -0.550 OA
ATOM     16  H   LIG    1        0.477   2.455  -0.212  0.00  0.00    +0.370 HD
ENDBRANCH  14  15
ENDBRANCH  13  14
ENDBRANCH   1  13
BRANCH   6  17
ATOM     17  C   LIG    1       -4.188   0.040   0.043  0.00  0.00    +0.160 C 
BRANCH  17  18
ATOM     18  O   LIG    1       -4.295   1.459  -0.085  0.00  0.00    -0.520 OA
ATOM     19  H   LIG    1       -4.708   1.893   0.675  0.00  0.00    +0.360 HD
ENDBRANCH  17  18
ENDBRANCH   6  17
TORSDOF 8
ENDMDL
MODEL       12
REMARK  Name = ZINC000011592756
REMARK                            x       y       z     vdW  Elec       q    Type
REMARK                         _______ _______ _______ _____ _____    ______ ____
ROOT
ATOM      1  N   LIG    1       -2.154  -0.018  -1.318  0.00  0.00    -0.500 NA
ATOM      2  C   LIG    1       -1.465  -0.580  -2.487  0.00  0.00    +0.150 C 
ATOM      3  C   LIG    1       -2.205  -0.171  -3.762  0.00  0.00    +0.140 C 
ATOM      4  C   LIG    1       -3.645  -0.688  -3.698  0.00  0.00    +0.140 C 
ATOM      5  C   LIG    1       -4.325  -0.126  -2.446  0.00  0.00    +0.230 C 
ATOM      6  C   LIG    1       -3.523  -0.536  -1.209  0.00  0.00    +0.160 C 
ENDROOT
BRANCH   5   7
ATOM      7  O   LIG    1       -5.652  -0.648  -2.350  0.00  0.00    -0.560 OA
ATOM      8  H   LIG    1       -6.217  -0.428  -3.104  0.00  0.00    +0.380 HD
ENDBRANCH   5   7
BRANCH   4   9
ATOM      9  O   LIG    1       -3.638  -2.115  -3.640  0.00  0.00    -0.550 OA
ATOM     10  H   LIG    1       -3.218  -2.538  -4.401  0.00  0.00    +0.380 HD
ENDBRANCH   4   9
BRANCH   3  11
ATOM     11  O   LIG    1       -2.213   1.253  -3.874  0.00  0.00    -0.540 OA
ATOM     12  H   LIG    1       -1.332   1.649  -3.917  0.00  0.00    +0.380 HD
ENDBRANCH   3  11
BRANCH   1  13
ATOM     13  C   LIG    1       -1.394  -0.272  -0.087  0.00  0.00    +0.190 C 
BRANCH  13  14
ATOM     14  C   LIG    1       -0.063   0.478  -0.144  0.00  0.00    +0.170 C 
BRANCH  14  15
ATOM     15  O   LIG    1       -0.309   1.886  -0.151  0.00  0.00    -0.550 OA
ATOM     16  H   LIG    1        0.492   2.426  -0.187  0.00  0.00    +0.370 HD
ENDBRANCH  14  15
ENDBRANCH  13  14
ENDBRANCH   1  13
BRANCH   6  17
ATOM     17  C   LIG    1       -4.188   0.040   0.043  0.00  0.00    +0.180 C 
BRANCH  17  18
ATOM     18  O   LIG    1       -4.295   1.459  -0.085  0.00  0.00    -0.550 OA
ATOM     19  H   LIG    1       -4.708   1.893   0.675  0.00  0.00    +0.370 HD
ENDBRANCH  17  18
ENDBRANCH   6  17
TORSDOF 8
ENDMDL
MODEL       13
REMARK  Name = ZINC000003831132
REMARK                            x       y       z     vdW  Elec       q    Type
REMARK                         _______ _______ _______ _____ _____    ______ ____
ROOT
ATOM      1  N   LIG    1       -2.158  -0.009  -1.324  0.00  0.00    -0.500 NA
ATOM      2  C   LIG    1       -1.468  -0.570  -2.493  0.00  0.00    +0.140 C 
ATOM      3  C   LIG    1       -2.216  -0.172  -3.768  0.00  0.00    +0.160 C 
ATOM      4  C   LIG    1       -3.652  -0.698  -3.697  0.00  0.00    +0.140 C 
ATOM      5  C   LIG    1       -4.332  -0.136  -2.445  0.00  0.00    +0.200 C 
ATOM      6  C   LIG    1       -3.523  -0.536  -1.209  0.00  0.00    +0.150 C 
ENDROOT
BRANCH   5   7
ATOM      7  O   LIG    1       -4.395   1.288  -2.535  0.00  0.00    -0.510 OA
ATOM      8  H   LIG    1       -4.892   1.613  -3.299  0.00  0.00    +0.370 HD
ENDBRANCH   5   7
BRANCH   4   9
ATOM      9  O   LIG    1       -4.371  -0.281  -4.860  0.00  0.00    -0.560 OA
ATOM     10  H   LIG    1       -3.992  -0.598  -5.691  0.00  0.00    +0.390 HD
ENDBRANCH   4   9
BRANCH   3  11
ATOM     11  O   LIG    1       -1.556  -0.734  -4.904  0.00  0.00    -0.570 OA
ATOM     12  H   LIG    1       -0.639  -0.446  -5.009  0.00  0.00    +0.380 HD
ENDBRANCH   3  11
BRANCH   1  13
ATOM     13  C   LIG    1       -1.393  -0.254  -0.094  0.00  0.00    +0.190 C 
BRANCH  13  14
ATOM     14  C   LIG    1       -0.066   0.505  -0.159  0.00  0.00    +0.170 C 
BRANCH  14  15
ATOM     15  O   LIG    1       -0.321   1.911  -0.171  0.00  0.00    -0.550 OA
ATOM     16  H   LIG    1        0.477   2.455  -0.212  0.00  0.00    +0.370 HD
ENDBRANCH  14  15
ENDBRANCH  13  14
ENDBRANCH   1  13
BRANCH   6  17
ATOM     17  C   LIG    1       -4.188   0.040   0.043  0.00  0.00    +0.190 C 
BRANCH  17  18
ATOM     18  O   LIG    1       -4.295   1.459  -0.085  0.00  0.00    -0.520 OA
ATOM     19  H   LIG    1       -4.708   1.893   0.675  0.00  0.00    +0.370 HD
ENDBRANCH  17  18
ENDBRANCH   6  17
TORSDOF 8
ENDMDL
MODEL       14
REMARK  Name = ZINC000071614016
REMARK                            x       y       z     vdW  Elec       q    Type
REMARK                         _______ _______ _______ _____ _____    ______ ____
ROOT
ATOM      1  C   LIG    1       -0.086  -0.430  -2.519  0.00  0.00    +0.070 C 
ENDROOT
BRANCH   1   2
ATOM      2  C   LIG    1        1.023  -0.566  -3.530  0.00  0.00    -0.010 A 
ATOM      3  C   LIG    1        2.177  -1.238  -3.353  0.00  0.00    +0.210 A 
ATOM      4  N   LIG    1        2.892  -1.108  -4.513  0.00  0.00    -0.560 N 
ATOM      5  H   LIG    1        3.769  -1.482  -4.694  0.00  0.00    +0.420 HD
ATOM      6  C   LIG    1        2.150  -0.360  -5.359  0.00  0.00    +0.390 A 
ATOM      7  N   LIG    1        1.032  -0.044  -4.766  0.00  0.00    -0.480 NA
ENDBRANCH   1   2
BRANCH   1   8
ATOM      8  C   LIG    1        0.504  -0.343  -1.135  0.00  0.00    +0.300 C 
ATOM      9  O   LIG    1        0.694  -1.349  -0.495  0.00  0.00    -0.400 OA
BRANCH   8  11
ATOM     10  C   LIG    1        2.214   1.452  -1.091  0.00  0.00    +0.070 C 
ATOM     11  C   LIG    1        0.857   1.000  -0.549  0.00  0.00    +0.160 C 
BRANCH  11  12
ATOM     12  N   LIG    1        0.924   0.894   0.914  0.00  0.00    -0.830 NA
ATOM     13  H   LIG    1        1.623   0.225   1.196  0.00  0.00    +0.350 HD
ATOM     14  H   LIG    1        0.022   0.660   1.302  0.00  0.00    +0.340 HD
ENDBRANCH  11  12
ENDBRANCH   8  11
ENDBRANCH   1   8
BRANCH   1  15
ATOM     15  CA  LIG    1       -1.007  -1.649  -2.604  0.00  0.00    +0.090 C 
BRANCH  15  16
ATOM     16  N   LIG    1       -2.075  -1.527  -1.604  0.00  0.00    -0.610 N 
ATOM     17  H1  LIG    1       -2.728  -2.288  -1.715  0.00  0.00    +0.440 HD
ATOM     18  H2  LIG    1       -2.556  -0.649  -1.730  0.00  0.00    +0.410 HD
ATOM     19  H3  LIG    1       -1.674  -1.561  -0.678  0.00  0.00    +0.430 HD
ENDBRANCH  15  16
BRANCH  15  20
ATOM     20  C   LIG    1       -0.210  -2.900  -2.339  0.00  0.00    +0.500 C 
ATOM     21  OXT LIG    1        0.608  -3.288  -3.156  0.00  0.00    -0.630 OA
ATOM     22  O   LIG    1       -0.382  -3.525  -1.306  0.00  0.00    -0.660 OA
ENDBRANCH  15  20
ENDBRANCH   1  15
TORSDOF 7
ENDMDL
MODEL       15
REMARK  Name = ZINC000005605236
REMARK                            x       y       z     vdW  Elec       q    Type
REMARK                         _______ _______ _______ _____ _____    ______ ____
ROOT
ATOM      1  O   LIG    1        0.002  -0.004   0.002  0.00  0.00    -0.530 OA
ATOM      2  C   LIG    1       -0.014   1.211   0.009  0.00  0.00    +0.620 C 
ATOM      3  N   LIG    1        1.143   1.901   0.001  0.00  0.00    -0.670 N 
ATOM      4  H   LIG    1        1.130   2.871   0.007  0.00  0.00    +0.420 HD
ENDROOT
BRANCH   2   5
ATOM      5  C   LIG    1       -1.304   1.933   0.019  0.00  0.00    +0.170 A 
ATOM      6  N   LIG    1       -1.470   3.244   0.021  0.00  0.00    -0.470 NA
ATOM      7  C   LIG    1       -2.779   3.477   0.031  0.00  0.00    +0.400 A 
ATOM      8  N   LIG    1       -3.405   2.327   0.035  0.00  0.00    -0.290 NA
ATOM      9  N   LIG    1       -2.536   1.376   0.022  0.00  0.00    -0.360 N 
ATOM     10  H   LIG    1       -2.731   0.426   0.021  0.00  0.00    +0.460 HD
ENDBRANCH   2   5
BRANCH   3  11
ATOM     11  C   LIG    1        2.422   1.186  -0.015  0.00  0.00    +0.190 C 
BRANCH  11  12
ATOM     12  C   LIG    1        2.503   0.314  -1.270  0.00  0.00    +0.210 C 
BRANCH  12  13
ATOM     13  O   LIG    1        2.405   1.141  -2.431  0.00  0.00    -0.570 OA
ATOM     14  H   LIG    1        2.449   0.654  -3.265  0.00  0.00    +0.380 HD
ENDBRANCH  12  13
ENDBRANCH  11  12
BRANCH  11  15
ATOM     15  C   LIG    1        2.527   0.301   1.229  0.00  0.00    +0.210 C 
BRANCH  15  16
ATOM     16  O   LIG    1        2.335   1.098   2.399  0.00  0.00    -0.570 OA
ATOM     17  H   LIG    1        2.388   0.602   3.227  0.00  0.00    +0.380 HD
ENDBRANCH  15  16
ENDBRANCH  11  15
BRANCH  11  18
ATOM     18  C   LIG    1        3.571   2.196  -0.020  0.00  0.00    +0.200 C 
BRANCH  18  19
ATOM     19  O   LIG    1        4.818   1.498  -0.036  0.00  0.00    -0.570 OA
ATOM     20  H   LIG    1        5.593   2.077  -0.040  0.00  0.00    +0.390 HD
ENDBRANCH  18  19
ENDBRANCH  11  18
ENDBRANCH   3  11
TORSDOF 8
ENDMDL
MODEL       16
REMARK  Name = ZINC000005605236
REMARK                            x       y       z     vdW  Elec       q    Type
REMARK                         _______ _______ _______ _____ _____    ______ ____
ROOT
ATOM      1  O   LIG    1        0.002  -0.004   0.002  0.00  0.00    -0.510 OA
ATOM      2  C   LIG    1       -0.014   1.211   0.009  0.00  0.00    +0.630 C 
ATOM      3  N   LIG    1        1.143   1.901   0.001  0.00  0.00    -0.690 N 
ATOM      4  H   LIG    1        1.130   2.871   0.007  0.00  0.00    +0.410 HD
ENDROOT
BRANCH   2   5
ATOM      5  C   LIG    1       -1.305   1.933   0.019  0.00  0.00    +0.150 A 
ATOM      6  N   LIG    1       -1.461   3.239   0.021  0.00  0.00    -0.280 NA
ATOM      7  N   LIG    1       -2.722   3.504   0.030  0.00  0.00    -0.400 N 
ATOM      8  H   LIG    1       -3.115   4.391   0.034  0.00  0.00    +0.450 HD
ATOM      9  C   LIG    1       -3.403   2.343   0.035  0.00  0.00    +0.430 A 
ATOM     10  N   LIG    1       -2.527   1.370   0.021  0.00  0.00    -0.460 NA
ENDBRANCH   2   5
BRANCH   3  11
ATOM     11  C   LIG    1        2.422   1.186  -0.015  0.00  0.00    +0.190 C 
BRANCH  11  12
ATOM     12  C   LIG    1        3.571   2.196  -0.020  0.00  0.00    +0.200 C 
BRANCH  12  13
ATOM     13  O   LIG    1        4.818   1.498  -0.036  0.00  0.00    -0.570 OA
ATOM     14  H   LIG    1        5.593   2.077  -0.040  0.00  0.00    +0.390 HD
ENDBRANCH  12  13
ENDBRANCH  11  12
BRANCH  11  15
ATOM     15  C   LIG    1        2.503   0.314  -1.270  0.00  0.00    +0.200 C 
BRANCH  15  16
ATOM     16  O   LIG    1        2.405   1.141  -2.431  0.00  0.00    -0.570 OA
ATOM     17  H   LIG    1        2.449   0.654  -3.265  0.00  0.00    +0.380 HD
ENDBRANCH  15  16
ENDBRANCH  11  15
BRANCH  11  18
ATOM     18  C   LIG    1        2.527   0.301   1.229  0.00  0.00    +0.210 C 
BRANCH  18  19
ATOM     19  O   LIG    1        2.335   1.098   2.399  0.00  0.00    -0.570 OA
ATOM     20  H   LIG    1        2.388   0.602   3.227  0.00  0.00    +0.380 HD
ENDBRANCH  18  19
ENDBRANCH  11  18
ENDBRANCH   3  11
TORSDOF 8
ENDMDL
MODEL       17
REMARK  Name = ZINC000004899707
REMARK                            x       y       z     vdW  Elec       q    Type
REMARK                         _______ _______ _______ _____ _____    ______ ____
ROOT
ATOM      1  CB  ALA A  1       -0.019   1.526   0.010  0.00  0.00    +0.060 C 
ATOM      2  CA  ALA A  1        0.002  -0.004   0.002  0.00  0.00    +0.250 C 
ATOM      3  N   ALA A  1       -1.368  -0.500  -0.009  0.00  0.00    -0.710 N 
ATOM      4  H   ALA A  1       -1.855  -0.500  -0.847  0.00  0.00    +0.410 HD
ATOM      5  C   HIS A  2       -1.983  -0.954   1.088  0.00  0.00    +0.520 C 
ATOM      6  CA  HIS A  2       -1.318  -0.996   2.431  0.00  0.00    +0.260 C 
ATOM      7  N   HIS A  2        0.132  -0.941   2.305  0.00  0.00    -0.710 N 
ATOM      8  H   HIS A  2        0.674  -1.243   3.051  0.00  0.00    +0.410 HD
ATOM      9  O   HIS A  2       -3.126  -1.347   0.992  0.00  0.00    -0.520 OA
ATOM     10  C   ALA A  1        0.747  -0.491   1.208  0.00  0.00    +0.520 C 
ATOM     11  O   ALA A  1        1.960  -0.477   1.186  0.00  0.00    -0.530 OA
ENDROOT
BRANCH   6  12
ATOM     12  CB  HIS A  2       -1.793   0.197   3.263  0.00  0.00    +0.140 C 
BRANCH  12  13
ATOM     13  CG  HIS A  2       -1.226   0.095   4.656  0.00  0.00    -0.040 A 
ATOM     14  CD2 HIS A  2       -1.742  -0.605   5.684  0.00  0.00    +0.160 A 
ATOM     15  NE2 HIS A  2       -0.941  -0.435   6.745  0.00  0.00    -0.490 NA
ATOM     16  CE1 HIS A  2        0.052   0.344   6.415  0.00  0.00    +0.400 A 
ATOM     17  ND1 HIS A  2       -0.085   0.693   5.117  0.00  0.00    -0.570 N 
ATOM     18  HD1 HIS A  2        0.511   1.266   4.609  0.00  0.00    +0.420 HD
ENDBRANCH  12  13
ENDBRANCH   6  12
TORSDOF 2
ENDMDL
MODEL       18
REMARK  Name = ZINC000006277173
REMARK                            x       y       z     vdW  Elec       q    Type
REMARK                         _______ _______ _______ _____ _____    ______ ____
ROOT
ATOM      1  C   LIG    1        0.002  -0.004   0.002  0.00  0.00    +0.510 A 
ATOM      2  C   LIG    1       -1.195  -0.739   0.004  0.00  0.00    -0.120 A 
ATOM      3  N   LIG    1       -2.511  -0.417   0.012  0.00  0.00    -0.430 NA
ATOM      4  C   LIG    1       -3.224  -1.506   0.010  0.00  0.00    +0.440 A 
ATOM      5  N   LIG    1       -2.407  -2.597  -0.001  0.00  0.00    -0.480 N 
ATOM      6  C   LIG    1       -1.113  -2.142  -0.005  0.00  0.00    +0.330 A 
ATOM      7  N   LIG    1        0.085  -2.718  -0.015  0.00  0.00    -0.540 NA
ATOM      8  C   LIG    1        1.181  -1.989  -0.016  0.00  0.00    +0.590 A 
ATOM      9  N   LIG    1        1.153  -0.668  -0.013  0.00  0.00    -0.590 NA
ENDROOT
BRANCH   1  10
ATOM     10  N   LIG    1       -0.017   1.380   0.010  0.00  0.00    -0.810 N 
ATOM     11  H   LIG    1       -0.863   1.853   0.016  0.00  0.00    +0.420 HD
ATOM     12  H   LIG    1        0.817   1.876   0.004  0.00  0.00    +0.410 HD
ENDBRANCH   1  10
BRANCH   5  13
ATOM     13  C   LIG    1       -2.833  -3.999  -0.007  0.00  0.00    +0.350 C 
BRANCH  13  14
ATOM     14  N   LIG    1       -4.218  -4.092   0.473  0.00  0.00    -0.620 N 
ATOM     15  H   LIG    1       -4.273  -3.728   1.413  0.00  0.00    +0.420 HD
ATOM     16  H   LIG    1       -4.511  -5.057   0.469  0.00  0.00    +0.450 HD
ATOM     17  H   LIG    1       -4.821  -3.555  -0.132  0.00  0.00    +0.440 HD
ENDBRANCH  13  14
BRANCH  13  18
ATOM     18  C   LIG    1       -2.750  -4.543  -1.410  0.00  0.00    +0.480 C 
ATOM     19  O   LIG    1       -3.713  -4.459  -2.154  0.00  0.00    -0.650 OA
ATOM     20  O   LIG    1       -1.721  -5.066  -1.802  0.00  0.00    -0.600 OA
ENDBRANCH  13  18
ENDBRANCH   5  13
TORSDOF 4
ENDMDL
MODEL       19
REMARK  Name = ZINC000006277172
REMARK                            x       y       z     vdW  Elec       q    Type
REMARK                         _______ _______ _______ _____ _____    ______ ____
ROOT
ATOM      1  C   LIG    1        0.002  -0.004   0.002  0.00  0.00    +0.510 A 
ATOM      2  C   LIG    1       -1.195  -0.739   0.004  0.00  0.00    -0.120 A 
ATOM      3  N   LIG    1       -2.511  -0.417   0.012  0.00  0.00    -0.430 NA
ATOM      4  C   LIG    1       -3.224  -1.506   0.010  0.00  0.00    +0.440 A 
ATOM      5  N   LIG    1       -2.407  -2.597  -0.001  0.00  0.00    -0.480 N 
ATOM      6  C   LIG    1       -1.113  -2.142  -0.005  0.00  0.00    +0.340 A 
ATOM      7  N   LIG    1        0.085  -2.718  -0.015  0.00  0.00    -0.540 NA
ATOM      8  C   LIG    1        1.181  -1.989  -0.016  0.00  0.00    +0.590 A 
ATOM      9  N   LIG    1        1.153  -0.668  -0.013  0.00  0.00    -0.590 NA
ENDROOT
BRANCH   1  10
ATOM     10  N   LIG    1       -0.017   1.380   0.010  0.00  0.00    -0.810 N 
ATOM     11  H   LIG    1       -0.863   1.853   0.016  0.00  0.00    +0.420 HD
ATOM     12  H   LIG    1        0.817   1.876   0.004  0.00  0.00    +0.410 HD
ENDBRANCH   1  10
BRANCH   5  13
ATOM     13  C   LIG    1       -2.833  -3.999  -0.007  0.00  0.00    +0.350 C 
BRANCH  13  14
ATOM     14  N   LIG    1       -4.179  -4.099  -0.586  0.00  0.00    -0.620 N 
ATOM     15  H   LIG    1       -4.473  -5.064  -0.590  0.00  0.00    +0.450 HD
ATOM     16  H   LIG    1       -4.166  -3.747  -1.532  0.00  0.00    +0.420 HD
ATOM     17  H   LIG    1       -4.824  -3.554  -0.034  0.00  0.00    +0.440 HD
ENDBRANCH  13  14
BRANCH  13  18
ATOM     18  C   LIG    1       -2.853  -4.524   1.405  0.00  0.00    +0.480 C 
ATOM     19  O   LIG    1       -1.806  -4.702   2.005  0.00  0.00    -0.600 OA
ATOM     20  O   LIG    1       -3.916  -4.772   1.948  0.00  0.00    -0.660 OA
ENDBRANCH  13  18
ENDBRANCH   5  13
TORSDOF 4
ENDMDL
MODEL       20
REMARK  Name = ZINC000006599469
REMARK                            x       y       z     vdW  Elec       q    Type
REMARK                         _______ _______ _______ _____ _____    ______ ____
ROOT
ATOM      1  N   LIG    1       -2.785  -2.557   0.261  0.00  0.00    -0.440 N 
ATOM      2  C   LIG    1       -3.439  -2.832   1.430  0.00  0.00    +0.400 A 
ATOM      3  N   LIG    1       -4.648  -3.257   1.165  0.00  0.00    -0.420 NA
ATOM      4  C   LIG    1       -4.822  -3.275  -0.160  0.00  0.00    -0.020 A 
ATOM      5  C   LIG    1       -5.957  -3.652  -1.025  0.00  0.00    +0.370 A 
ATOM      6  N   LIG    1       -7.031  -4.245  -0.556  0.00  0.00    -0.330 NA
ATOM      7  N   LIG    1       -5.807  -3.348  -2.354  0.00  0.00    -0.540 NA
ATOM      8  C   LIG    1       -4.684  -2.925  -2.849  0.00  0.00    +0.620 A 
ATOM      9  N   LIG    1       -3.543  -2.743  -2.123  0.00  0.00    -0.620 N 
ATOM     10  H   LIG    1       -2.695  -2.563  -2.558  0.00  0.00    +0.420 HD
ATOM     11  C   LIG    1       -3.637  -2.823  -0.750  0.00  0.00    +0.250 A 
ENDROOT
BRANCH   6  12
ATOM     12  O   LIG    1       -8.087  -4.593  -1.433  0.00  0.00    -0.400 OA
ATOM     13  H   LIG    1       -8.834  -5.025  -0.996  0.00  0.00    +0.400 HD
ENDBRANCH   6  12
BRANCH   1  14
ATOM     14  C   LIG    1       -1.413  -2.059   0.130  0.00  0.00    +0.290 C 
BRANCH  14  15
ATOM     15  C   LIG    1       -1.433  -0.534   0.013  0.00  0.00    +0.210 C 
BRANCH  15  16
ATOM     16  O   LIG    1       -2.089  -0.158  -1.200  0.00  0.00    -0.540 OA
ATOM     17  H   LIG    1       -1.665  -0.500  -1.999  0.00  0.00    +0.370 HD
ENDBRANCH  15  16
BRANCH  15  18
ATOM     18  C   LIG    1        0.002  -0.004   0.002  0.00  0.00    +0.160 C 
BRANCH  18  19
ATOM     19  O   LIG    1       -0.017   1.425   0.010  0.00  0.00    -0.560 OA
ATOM     20  H   LIG    1        0.861   1.830   0.004  0.00  0.00    +0.390 HD
ENDBRANCH  18  19
ENDBRANCH  15  18
ENDBRANCH  14  15
ENDBRANCH   1  14
TORSDOF 6
ENDMDL
MODEL       21
REMARK  Name = ZINC000006599469
REMARK                            x       y       z     vdW  Elec       q    Type
REMARK                         _______ _______ _______ _____ _____    ______ ____
ROOT
ATOM      1  O   LIG    1        0.002  -0.004   0.002  0.00  0.00    -0.490 OA
ATOM      2  N   LIG    1       -0.017   1.412   0.010  0.00  0.00    -0.270 NA
ATOM      3  C   LIG    1        1.111   2.084   0.003  0.00  0.00    +0.080 A 
ATOM      4  N   LIG    1        2.335   1.465  -0.018  0.00  0.00    -0.430 NA
ATOM      5  C   LIG    1        3.442   2.118  -0.201  0.00  0.00    +0.500 A 
ATOM      6  N   LIG    1        3.518   3.466  -0.393  0.00  0.00    -0.630 N 
ATOM      7  H   LIG    1        4.347   3.889  -0.666  0.00  0.00    +0.420 HD
ATOM      8  C   LIG    1        2.374   4.208  -0.184  0.00  0.00    +0.300 A 
ATOM      9  N   LIG    1        2.120   5.531  -0.121  0.00  0.00    -0.400 N 
ATOM     10  C   LIG    1        0.781   5.678   0.113  0.00  0.00    +0.460 A 
ATOM     11  N   LIG    1        0.218   4.499   0.186  0.00  0.00    -0.420 N 
ATOM     12  H   LIG    1       -0.725   4.333   0.342  0.00  0.00    +0.460 HD
ATOM     13  C   LIG    1        1.152   3.560   0.010  0.00  0.00    +0.060 A 
ENDROOT
BRANCH   9  14
ATOM     14  C   LIG    1        3.099   6.611  -0.266  0.00  0.00    +0.310 C 
BRANCH  14  15
ATOM     15  C   LIG    1        3.287   6.932  -1.750  0.00  0.00    +0.210 C 
BRANCH  15  16
ATOM     16  O   LIG    1        3.866   5.806  -2.412  0.00  0.00    -0.540 OA
ATOM     17  H   LIG    1        4.730   5.547  -2.064  0.00  0.00    +0.370 HD
ENDBRANCH  15  16
BRANCH  15  18
ATOM     18  C   LIG    1        4.213   8.141  -1.897  0.00  0.00    +0.170 C 
BRANCH  18  19
ATOM     19  O   LIG    1        4.297   8.513  -3.274  0.00  0.00    -0.560 OA
ATOM     20  H   LIG    1        4.869   9.275  -3.442  0.00  0.00    +0.390 HD
ENDBRANCH  18  19
ENDBRANCH  15  18
ENDBRANCH  14  15
ENDBRANCH   9  14
TORSDOF 5
ENDMDL
MODEL       22
REMARK  Name = ZINC000057453740
REMARK                            x       y       z     vdW  Elec       q    Type
REMARK                         _______ _______ _______ _____ _____    ______ ____
ROOT
ATOM      1  C   LIG    1       -2.849  -2.589   0.141  0.00  0.00    +0.160 C 
ENDROOT
BRANCH   1   2
ATOM      2  O   LIG    1       -3.504  -2.213  -1.072  0.00  0.00    -0.530 OA
ATOM      3  H   LIG    1       -3.080  -2.555  -1.871  0.00  0.00    +0.370 HD
ENDBRANCH   1   2
BRANCH   1   4
ATOM      4  C   LIG    1       -1.413  -2.059   0.130  0.00  0.00    +0.170 C 
BRANCH   4   5
ATOM      5  O   LIG    1       -0.758  -2.435   1.343  0.00  0.00    -0.540 OA
ATOM      6  H   LIG    1       -1.182  -2.093   2.142  0.00  0.00    +0.380 HD
ENDBRANCH   4   5
BRANCH   4   7
ATOM      7  C   LIG    1       -1.433  -0.534   0.013  0.00  0.00    +0.180 C 
BRANCH   7   8
ATOM      8  O   LIG    1       -2.089  -0.158  -1.200  0.00  0.00    -0.530 OA
ATOM      9  H   LIG    1       -1.665  -0.500  -1.999  0.00  0.00    +0.370 HD
ENDBRANCH   7   8
BRANCH   7  10
ATOM     10  C   LIG    1        0.002  -0.004   0.002  0.00  0.00    +0.150 C 
BRANCH  10  11
ATOM     11  O   LIG    1       -0.017   1.425   0.010  0.00  0.00    -0.570 OA
ATOM     12  H   LIG    1        0.861   1.830   0.004  0.00  0.00    +0.380 HD
ENDBRANCH  10  11
ENDBRANCH   7  10
ENDBRANCH   4   7
ENDBRANCH   1   4
BRANCH   1  13
ATOM     13  C   LIG    1       -2.829  -4.114   0.258  0.00  0.00    +0.240 C 
BRANCH  13  14
ATOM     14  C   LIG    1       -4.256  -4.653   0.144  0.00  0.00    +0.170 C 
ATOM     15  N   LIG    1       -4.281  -6.132   0.323  0.00  0.00    -0.670 NA
ATOM     16  H   LIG    1       -3.948  -6.602  -0.506  0.00  0.00    +0.360 HD
ATOM     17  C   LIG    1       -5.659  -6.546   0.648  0.00  0.00    +0.190 C 
ATOM     18  C   LIG    1       -6.208  -5.648   1.780  0.00  0.00    +0.130 C 
ATOM     19  S   LIG    1       -5.289  -4.072   1.547  0.00  0.00    -0.250 S 
ENDBRANCH  13  14
BRANCH  13  20
ATOM     20  O   LIG    1       -2.027  -4.662  -0.790  0.00  0.00    -0.540 OA
ATOM     21  H   LIG    1       -2.342  -4.448  -1.679  0.00  0.00    +0.370 HD
ENDBRANCH  13  20
ENDBRANCH   1  13
TORSDOF 10
ENDMDL
MODEL       23
REMARK  Name = ZINC000039075674
REMARK                            x       y       z     vdW  Elec       q    Type
REMARK                         _______ _______ _______ _____ _____    ______ ____
ROOT
ATOM      1  C   LIG    1       -0.018   1.461   0.010  0.00  0.00    +0.360 C 
ATOM      2  N   LIG    1        0.002  -0.004   0.002  0.00  0.00    -0.490 N 
ATOM      3  C   LIG    1        0.009  -0.820  -1.118  0.00  0.00    +0.520 A 
ATOM      4  N   LIG    1        0.029  -2.134  -0.680  0.00  0.00    -0.640 N 
ATOM      5  H   LIG    1        0.037  -2.920  -1.249  0.00  0.00    +0.430 HD
ATOM      6  C   LIG    1        0.035  -2.138   0.691  0.00  0.00    +0.360 A 
ATOM      7  N   LIG    1        0.053  -3.161   1.614  0.00  0.00    -0.520 N 
ATOM      8  C   LIG    1        0.066  -4.553   1.160  0.00  0.00    +0.350 C 
ATOM      9  C   LIG    1        0.052  -2.886   2.932  0.00  0.00    +0.710 A 
ATOM     10  O   LIG    1        0.065  -3.801   3.732  0.00  0.00    -0.530 OA
ATOM     11  N   LIG    1        0.041  -1.617   3.379  0.00  0.00    -0.650 N 
ATOM     12  H   LIG    1        0.043  -1.444   4.333  0.00  0.00    +0.440 HD
ATOM     13  C   LIG    1        0.027  -0.585   2.512  0.00  0.00    +0.590 A 
ATOM     14  O   LIG    1        0.017   0.563   2.923  0.00  0.00    -0.510 OA
ATOM     15  N   LIG    1       -0.002  -0.422  -2.357  0.00  0.00    -0.330 NA
ATOM     16  C   LIG    1        0.024  -0.843   1.129  0.00  0.00    -0.090 A 
ENDROOT
BRANCH  15  17
ATOM     17  N   LIG    1        0.006  -1.364  -3.395  0.00  0.00    -0.790 N 
ATOM     18  H   LIG    1        0.021  -2.312  -3.189  0.00  0.00    +0.360 HD
ATOM     19  H   LIG    1       -0.002  -1.068  -4.319  0.00  0.00    +0.420 HD
ENDBRANCH  15  17
TORSDOF 1
ENDMDL
MODEL       24
REMARK  Name = ZINC000057453737
REMARK                            x       y       z     vdW  Elec       q    Type
REMARK                         _______ _______ _______ _____ _____    ______ ____
ROOT
ATOM      1  C   LIG    1       -2.849  -2.589   0.141  0.00  0.00    +0.150 C 
ENDROOT
BRANCH   1   2
ATOM      2  O   LIG    1       -3.504  -2.213  -1.072  0.00  0.00    -0.510 OA
ATOM      3  H   LIG    1       -3.080  -2.555  -1.871  0.00  0.00    +0.380 HD
ENDBRANCH   1   2
BRANCH   1   4
ATOM      4  C   LIG    1       -1.413  -2.059   0.130  0.00  0.00    +0.160 C 
BRANCH   4   5
ATOM      5  O   LIG    1       -0.758  -2.435   1.343  0.00  0.00    -0.530 OA
ATOM      6  H   LIG    1       -1.182  -2.093   2.142  0.00  0.00    +0.380 HD
ENDBRANCH   4   5
BRANCH   4   7
ATOM      7  C   LIG    1       -1.433  -0.534   0.013  0.00  0.00    +0.180 C 
BRANCH   7   8
ATOM      8  O   LIG    1       -2.089  -0.158  -1.200  0.00  0.00    -0.530 OA
ATOM      9  H   LIG    1       -1.665  -0.500  -1.999  0.00  0.00    +0.370 HD
ENDBRANCH   7   8
BRANCH   7  10
ATOM     10  C   LIG    1        0.002  -0.004   0.002  0.00  0.00    +0.150 C 
BRANCH  10  11
ATOM     11  O   LIG    1       -0.017   1.425   0.010  0.00  0.00    -0.570 OA
ATOM     12  H   LIG    1        0.861   1.830   0.004  0.00  0.00    +0.380 HD
ENDBRANCH  10  11
ENDBRANCH   7  10
ENDBRANCH   4   7
ENDBRANCH   1   4
BRANCH   1  13
ATOM     13  C   LIG    1       -2.829  -4.114   0.258  0.00  0.00    +0.200 C 
BRANCH  13  14
ATOM     14  C   LIG    1       -4.264  -4.644   0.269  0.00  0.00    +0.210 C 
ATOM     15  N   LIG    1       -4.272  -6.112   0.462  0.00  0.00    -0.660 NA
ATOM     16  H   LIG    1       -3.400  -6.521   0.160  0.00  0.00    +0.350 HD
ATOM     17  C   LIG    1       -5.416  -6.728  -0.235  0.00  0.00    +0.240 C 
ATOM     18  C   LIG    1       -5.438  -6.159  -1.681  0.00  0.00    +0.070 C 
ATOM     19  S   LIG    1       -5.053  -4.387  -1.365  0.00  0.00    -0.270 S 
ENDBRANCH  13  14
BRANCH  13  20
ATOM     20  O   LIG    1       -2.173  -4.490   1.471  0.00  0.00    -0.520 OA
ATOM     21  H   LIG    1       -2.597  -4.148   2.270  0.00  0.00    +0.380 HD
ENDBRANCH  13  20
ENDBRANCH   1  13
TORSDOF 10
ENDMDL
MODEL       25
REMARK  Name = ZINC000057453738
REMARK                            x       y       z     vdW  Elec       q    Type
REMARK                         _______ _______ _______ _____ _____    ______ ____
ROOT
ATOM      1  C   LIG    1       -2.849  -2.589   0.141  0.00  0.00    +0.160 C 
ENDROOT
BRANCH   1   2
ATOM      2  O   LIG    1       -3.504  -2.213  -1.072  0.00  0.00    -0.530 OA
ATOM      3  H   LIG    1       -3.080  -2.555  -1.871  0.00  0.00    +0.370 HD
ENDBRANCH   1   2
BRANCH   1   4
ATOM      4  C   LIG    1       -1.413  -2.059   0.130  0.00  0.00    +0.160 C 
BRANCH   4   5
ATOM      5  O   LIG    1       -0.758  -2.435   1.343  0.00  0.00    -0.530 OA
ATOM      6  H   LIG    1       -1.182  -2.093   2.142  0.00  0.00    +0.380 HD
ENDBRANCH   4   5
BRANCH   4   7
ATOM      7  C   LIG    1       -1.433  -0.534   0.013  0.00  0.00    +0.180 C 
BRANCH   7   8
ATOM      8  O   LIG    1       -2.089  -0.158  -1.200  0.00  0.00    -0.530 OA
ATOM      9  H   LIG    1       -1.665  -0.500  -1.999  0.00  0.00    +0.370 HD
ENDBRANCH   7   8
BRANCH   7  10
ATOM     10  C   LIG    1        0.002  -0.004   0.002  0.00  0.00    +0.160 C 
BRANCH  10  11
ATOM     11  O   LIG    1       -0.017   1.425   0.010  0.00  0.00    -0.570 OA
ATOM     12  H   LIG    1        0.861   1.830   0.004  0.00  0.00    +0.380 HD
ENDBRANCH  10  11
ENDBRANCH   7  10
ENDBRANCH   4   7
ENDBRANCH   1   4
BRANCH   1  13
ATOM     13  C   LIG    1       -2.829  -4.114   0.258  0.00  0.00    +0.220 C 
BRANCH  13  14
ATOM     14  C   LIG    1       -4.264  -4.644   0.269  0.00  0.00    +0.180 C 
ATOM     15  N   LIG    1       -4.283  -6.122   0.451  0.00  0.00    -0.660 NA
ATOM     16  H   LIG    1       -4.027  -6.595  -0.402  0.00  0.00    +0.350 HD
ATOM     17  C   LIG    1       -5.630  -6.527   0.896  0.00  0.00    +0.190 C 
ATOM     18  C   LIG    1       -6.073  -5.623   2.070  0.00  0.00    +0.130 C 
ATOM     19  S   LIG    1       -5.167  -4.055   1.756  0.00  0.00    -0.260 S 
ENDBRANCH  13  14
BRANCH  13  20
ATOM     20  O   LIG    1       -2.173  -4.490   1.471  0.00  0.00    -0.520 OA
ATOM     21  H   LIG    1       -2.597  -4.148   2.270  0.00  0.00    +0.380 HD
ENDBRANCH  13  20
ENDBRANCH   1  13
TORSDOF 10
ENDMDL
MODEL       26
REMARK  Name = ZINC000057453739
REMARK                            x       y       z     vdW  Elec       q    Type
REMARK                         _______ _______ _______ _____ _____    ______ ____
ROOT
ATOM      1  C   LIG    1       -2.849  -2.589   0.141  0.00  0.00    +0.160 C 
ENDROOT
BRANCH   1   2
ATOM      2  O   LIG    1       -3.504  -2.213  -1.072  0.00  0.00    -0.510 OA
ATOM      3  H   LIG    1       -3.080  -2.555  -1.871  0.00  0.00    +0.370 HD
ENDBRANCH   1   2
BRANCH   1   4
ATOM      4  C   LIG    1       -1.413  -2.059   0.130  0.00  0.00    +0.170 C 
BRANCH   4   5
ATOM      5  O   LIG    1       -0.758  -2.435   1.343  0.00  0.00    -0.540 OA
ATOM      6  H   LIG    1       -1.182  -2.093   2.142  0.00  0.00    +0.380 HD
ENDBRANCH   4   5
BRANCH   4   7
ATOM      7  C   LIG    1       -1.433  -0.534   0.013  0.00  0.00    +0.180 C 
BRANCH   7   8
ATOM      8  O   LIG    1       -2.089  -0.158  -1.200  0.00  0.00    -0.530 OA
ATOM      9  H   LIG    1       -1.665  -0.500  -1.999  0.00  0.00    +0.370 HD
ENDBRANCH   7   8
BRANCH   7  10
ATOM     10  C   LIG    1        0.002  -0.004   0.002  0.00  0.00    +0.150 C 
BRANCH  10  11
ATOM     11  O   LIG    1       -0.017   1.425   0.010  0.00  0.00    -0.570 OA
ATOM     12  H   LIG    1        0.861   1.830   0.004  0.00  0.00    +0.380 HD
ENDBRANCH  10  11
ENDBRANCH   7  10
ENDBRANCH   4   7
ENDBRANCH   1   4
BRANCH   1  13
ATOM     13  C   LIG    1       -2.829  -4.114   0.258  0.00  0.00    +0.210 C 
BRANCH  13  14
ATOM     14  C   LIG    1       -4.256  -4.653   0.144  0.00  0.00    +0.220 C 
ATOM     15  N   LIG    1       -4.270  -6.122   0.335  0.00  0.00    -0.670 NA
ATOM     16  H   LIG    1       -3.373  -6.524   0.108  0.00  0.00    +0.360 HD
ATOM     17  C   LIG    1       -5.346  -6.745  -0.461  0.00  0.00    +0.240 C 
ATOM     18  C   LIG    1       -5.246  -6.174  -1.903  0.00  0.00    +0.070 C 
ATOM     19  S   LIG    1       -4.901  -4.399  -1.553  0.00  0.00    -0.280 S 
ENDBRANCH  13  14
BRANCH  13  20
ATOM     20  O   LIG    1       -2.027  -4.662  -0.790  0.00  0.00    -0.550 OA
ATOM     21  H   LIG    1       -2.342  -4.448  -1.679  0.00  0.00    +0.380 HD
ENDBRANCH  13  20
ENDBRANCH   1  13
TORSDOF 10
ENDMDL
MODEL       27
REMARK  Name = ZINC000059946561
REMARK                            x       y       z     vdW  Elec       q    Type
REMARK                         _______ _______ _______ _____ _____    ______ ____
ROOT
ATOM      1  C   LIG    1        0.739  -2.027  -1.265  0.00  0.00    +0.160 C 
ENDROOT
BRANCH   1   2
ATOM      2  O   LIG    1        1.430  -2.501  -0.107  0.00  0.00    -0.530 OA
ATOM      3  H   LIG    1        2.348  -2.203  -0.049  0.00  0.00    +0.370 HD
ENDBRANCH   1   2
BRANCH   1   4
ATOM      4  C   LIG    1        0.718  -0.497  -1.257  0.00  0.00    +0.150 C 
BRANCH   4   6
ATOM      5  C   LIG    1       -0.019   1.526   0.010  0.00  0.00    +0.010 C 
ATOM      6  C   LIG    1        0.002  -0.004   0.002  0.00  0.00    +0.180 C 
BRANCH   6   7
ATOM      7  O   LIG    1        0.693  -0.477   1.160  0.00  0.00    -0.540 OA
ATOM      8  H   LIG    1        1.611  -0.180   1.219  0.00  0.00    +0.370 HD
ENDBRANCH   6   7
ENDBRANCH   4   6
BRANCH   4   9
ATOM      9  O   LIG    1        0.027  -0.024  -2.414  0.00  0.00    -0.530 OA
ATOM     10  H   LIG    1       -0.891  -0.322  -2.473  0.00  0.00    +0.370 HD
ENDBRANCH   4   9
ENDBRANCH   1   4
BRANCH   1  11
ATOM     11  C   LIG    1        1.455  -2.521  -2.524  0.00  0.00    +0.210 C 
BRANCH  11  12
ATOM     12  C   LIG    1        1.476  -4.051  -2.532  0.00  0.00    +0.240 C 
ATOM     13  N   LIG    1        2.234  -4.551  -3.702  0.00  0.00    -0.670 NA
ATOM     14  H   LIG    1        2.244  -3.869  -4.446  0.00  0.00    +0.360 HD
ATOM     15  C   LIG    1        1.687  -5.838  -4.172  0.00  0.00    +0.240 C 
ATOM     16  C   LIG    1        0.147  -5.671  -4.289  0.00  0.00    +0.100 C 
ATOM     17  S   LIG    1       -0.218  -4.712  -2.761  0.00  0.00    -0.330 S 
ENDBRANCH  11  12
BRANCH  11  18
ATOM     18  O   LIG    1        0.764  -2.047  -3.682  0.00  0.00    -0.530 OA
ATOM     19  H   LIG    1       -0.154  -2.345  -3.741  0.00  0.00    +0.380 HD
ENDBRANCH  11  18
ENDBRANCH   1  11
TORSDOF 8
ENDMDL
MODEL       28
REMARK  Name = ZINC000247723553
REMARK                            x       y       z     vdW  Elec       q    Type
REMARK                         _______ _______ _______ _____ _____    ______ ____
ROOT
ATOM      1  C   LIG    1       -1.416  -2.058  -0.121  0.00  0.00    +0.150 C 
ENDROOT
BRANCH   1   2
ATOM      2  O   LIG    1       -0.783  -2.420  -1.350  0.00  0.00    -0.530 OA
ATOM      3  H   LIG    1       -1.223  -2.070  -2.137  0.00  0.00    +0.380 HD
ENDBRANCH   1   2
BRANCH   1   4
ATOM      4  C   LIG    1       -1.433  -0.534   0.013  0.00  0.00    +0.200 C 
BRANCH   4   5
ATOM      5  O   LIG    1       -2.066  -0.171   1.242  0.00  0.00    -0.530 OA
ATOM      6  H   LIG    1       -1.626  -0.521   2.029  0.00  0.00    +0.370 HD
ENDBRANCH   4   5
BRANCH   4   7
ATOM      7  C   LIG    1        0.002  -0.004   0.002  0.00  0.00    +0.160 C 
BRANCH   7   8
ATOM      8  O   LIG    1       -0.017   1.425   0.010  0.00  0.00    -0.570 OA
ATOM      9  H   LIG    1        0.861   1.830   0.004  0.00  0.00    +0.380 HD
ENDBRANCH   7   8
ENDBRANCH   4   7
ENDBRANCH   1   4
BRANCH   1  10
ATOM     10  C   LIG    1       -2.851  -2.587  -0.110  0.00  0.00    +0.230 C 
BRANCH  10  11
ATOM     11  C   LIG    1       -2.833  -4.111  -0.244  0.00  0.00    +0.150 C 
ATOM     12  N   LIG    1       -4.219  -4.655  -0.306  0.00  0.00    -0.670 NA
ATOM     13  H   LIG    1       -4.647  -4.657   0.608  0.00  0.00    +0.360 HD
ATOM     14  C   LIG    1       -4.168  -6.017  -0.870  0.00  0.00    +0.190 C 
ATOM     15  C   LIG    1       -3.312  -6.006  -2.157  0.00  0.00    +0.100 C 
ATOM     16  S   LIG    1       -2.142  -4.617  -1.869  0.00  0.00    -0.200 S 
ENDBRANCH  10  11
BRANCH  10  17
ATOM     17  O   LIG    1       -3.483  -2.224   1.119  0.00  0.00    -0.520 OA
ATOM     18  H   LIG    1       -3.044  -2.575   1.906  0.00  0.00    +0.370 HD
ENDBRANCH  10  17
ENDBRANCH   1  10
TORSDOF 8
ENDMDL
MODEL       29
REMARK  Name = ZINC000070569577
REMARK                            x       y       z     vdW  Elec       q    Type
REMARK                         _______ _______ _______ _____ _____    ______ ____
ROOT
ATOM      1  C   LIG    1       -2.695   3.346   2.733  0.00  0.00    +0.280 C 
ENDROOT
BRANCH   1   2
ATOM      2  C   LIG    1       -3.121   4.789   2.815  0.00  0.00    +0.510 C 
ATOM      3  N   LIG    1       -3.294   5.373   4.018  0.00  0.00    -0.600 N 
ATOM      4  C   LIG    1       -3.068   4.623   5.263  0.00  0.00    +0.250 C 
ATOM      5  C   LIG    1       -2.141   5.449   6.163  0.00  0.00    +0.220 C 
ATOM      6  O   LIG    1       -2.675   6.768   6.303  0.00  0.00    -0.370 OA
ATOM      7  C   LIG    1       -2.757   7.500   5.078  0.00  0.00    +0.230 C 
ATOM      8  C   LIG    1       -3.710   6.781   4.123  0.00  0.00    +0.270 C 
ATOM      9  O   LIG    1       -3.308   5.425   1.800  0.00  0.00    -0.530 OA
ENDBRANCH   1   2
BRANCH   1  12
ATOM     10  C   LIG    1       -1.330   1.951   0.019  0.00  0.00    -0.080 C 
ATOM     11  C   LIG    1       -2.276   1.512   1.151  0.00  0.00    +0.320 C 
ATOM     12  N   LIG    1       -2.577   2.950   1.323  0.00  0.00    -0.400 N 
ATOM     13  H   LIG    1       -3.361   3.258   0.767  0.00  0.00    +0.430 HD
ATOM     14  C   LIG    1       -1.271   3.314   0.731  0.00  0.00    +0.310 C 
BRANCH  10  16
ATOM     15  O   LIG    1        0.002  -0.004   0.002  0.00  0.00    -0.670 OA
ATOM     16  C   LIG    1       -0.015   1.215   0.009  0.00  0.00    +0.500 C 
ATOM     17  O   LIG    1        1.033   1.839   0.002  0.00  0.00    -0.670 OA
ENDBRANCH  10  16
ENDBRANCH   1  12
TORSDOF 3
ENDMDL
MODEL       30
REMARK  Name = ZINC000070569632
REMARK                            x       y       z     vdW  Elec       q    Type
REMARK                         _______ _______ _______ _____ _____    ______ ____
ROOT
ATOM      1  C   LIG    1        0.369  -4.328   2.738  0.00  0.00    +0.280 C 
ENDROOT
BRANCH   1   2
ATOM      2  N   LIG    1        0.505  -5.790   2.729  0.00  0.00    -0.400 N 
ATOM      3  C   LIG    1        1.727  -6.262   2.050  0.00  0.00    +0.310 C 
ATOM      4  C   LIG    1        1.843  -7.345   3.132  0.00  0.00    -0.070 C 
ATOM      5  C   LIG    1        1.057  -6.336   3.983  0.00  0.00    +0.310 C 
ATOM      6  H   LIG    1       -0.332  -6.261   2.421  0.00  0.00    +0.430 HD
BRANCH   4   7
ATOM      7  C   LIG    1        3.251  -7.591   3.609  0.00  0.00    +0.510 C 
ATOM      8  O   LIG    1        4.191  -7.418   2.852  0.00  0.00    -0.670 OA
ATOM      9  O   LIG    1        3.451  -7.963   4.753  0.00  0.00    -0.670 OA
ENDBRANCH   4   7
ENDBRANCH   1   2
BRANCH   1  12
ATOM     10  N   LIG    1       -0.515  -2.565   1.245  0.00  0.00    -0.710 N 
ATOM     11  H   LIG    1       -0.257  -1.913   1.914  0.00  0.00    +0.410 HD
ATOM     12  C   LIG    1       -0.287  -3.876   1.459  0.00  0.00    +0.500 C 
ATOM     13  O   LIG    1       -0.610  -4.693   0.622  0.00  0.00    -0.530 OA
BRANCH  10  14
ATOM     14  C   LIG    1       -1.154  -2.126   0.002  0.00  0.00    +0.300 C 
BRANCH  14  15
ATOM     15  C   LIG    1       -1.295  -0.603   0.011  0.00  0.00    +0.170 C 
BRANCH  15  17
ATOM     16  C   LIG    1       -0.017   1.425   0.010  0.00  0.00    +0.210 C 
ATOM     17  O   LIG    1        0.002  -0.004   0.002  0.00  0.00    -0.390 OA
ENDBRANCH  15  17
ENDBRANCH  14  15
ENDBRANCH  10  14
ENDBRANCH   1  12
TORSDOF 6
ENDMDL
MODEL       31
REMARK  Name = ZINC000079420106
REMARK                            x       y       z     vdW  Elec       q    Type
REMARK                         _______ _______ _______ _____ _____    ______ ____
ROOT
ATOM      1  C   LIG    1        0.660  -2.105  -1.120  0.00  0.00    +0.270 C 
ATOM      2  C   LIG    1        1.881  -2.596  -0.336  0.00  0.00    +0.270 C 
ATOM      3  N   LIG    1        2.034  -4.044  -0.527  0.00  0.00    -0.350 N 
ATOM      4  C   LIG    1        2.325  -4.335  -1.937  0.00  0.00    +0.270 C 
ATOM      5  C   LIG    1        1.126  -3.930  -2.799  0.00  0.00    +0.330 C 
ATOM      6  H   LIG    1        1.180  -4.509  -0.259  0.00  0.00    +0.430 HD
ATOM      7  N   LIG    1        0.803  -2.520  -2.524  0.00  0.00    -0.630 N 
ATOM      8  C   LIG    1        0.650  -1.635  -3.529  0.00  0.00    +0.510 C 
ATOM      9  O   LIG    1        0.481  -0.460  -3.281  0.00  0.00    -0.500 OA
ATOM     10  C   LIG    1        0.688  -2.106  -4.960  0.00  0.00    +0.120 C 
ENDROOT
BRANCH   1  11
ATOM     11  C   LIG    1        0.580  -0.602  -1.042  0.00  0.00    +0.470 C 
ATOM     12  O   LIG    1        1.439   0.076  -1.554  0.00  0.00    -0.460 OA
BRANCH  11  14
ATOM     13  C   LIG    1       -0.459   1.435  -0.369  0.00  0.00    +0.280 C 
ATOM     14  O   LIG    1       -0.446  -0.017  -0.405  0.00  0.00    -0.360 OA
ENDBRANCH  11  14
ENDBRANCH   1  11
BRANCH   3  15
ATOM     15  C   LIG    1        3.139  -4.533   0.309  0.00  0.00    +0.180 C 
BRANCH  15  16
ATOM     16  C   LIG    1        3.218  -6.034   0.209  0.00  0.00    +0.490 C 
ATOM     17  O   LIG    1        4.073  -6.642   0.830  0.00  0.00    -0.630 OA
ATOM     18  O   LIG    1        2.428  -6.641  -0.493  0.00  0.00    -0.670 OA
ENDBRANCH  15  16
ENDBRANCH   3  15
TORSDOF 4
ENDMDL
MODEL       32
REMARK  Name = ZINC000079420106
REMARK                            x       y       z     vdW  Elec       q    Type
REMARK                         _______ _______ _______ _____ _____    ______ ____
ROOT
ATOM      1  C   LIG    1        0.666  -2.123  -1.113  0.00  0.00    +0.300 C 
ATOM      2  C   LIG    1        1.810  -2.648  -0.239  0.00  0.00    +0.290 C 
ATOM      3  N   LIG    1        3.092  -2.180  -0.781  0.00  0.00    -0.360 N 
ATOM      4  C   LIG    1        3.314  -2.758  -2.112  0.00  0.00    +0.270 C 
ATOM      5  C   LIG    1        2.245  -2.239  -3.078  0.00  0.00    +0.330 C 
ATOM      6  H   LIG    1        3.079  -1.173  -0.851  0.00  0.00    +0.420 HD
ATOM      7  N   LIG    1        0.915  -2.525  -2.506  0.00  0.00    -0.610 N 
ATOM      8  C   LIG    1       -0.037  -3.137  -3.237  0.00  0.00    +0.520 C 
ATOM      9  O   LIG    1        0.162  -3.384  -4.408  0.00  0.00    -0.510 OA
ATOM     10  C   LIG    1       -1.349  -3.515  -2.601  0.00  0.00    +0.120 C 
ENDROOT
BRANCH   1  11
ATOM     11  C   LIG    1        0.608  -0.620  -1.022  0.00  0.00    +0.430 C 
ATOM     12  O   LIG    1        1.094   0.057  -1.896  0.00  0.00    -0.470 OA
BRANCH  11  14
ATOM     13  C   LIG    1       -0.003   1.417   0.052  0.00  0.00    +0.280 C 
ATOM     14  O   LIG    1        0.016  -0.034   0.031  0.00  0.00    -0.350 OA
ENDBRANCH  11  14
ENDBRANCH   1  11
BRANCH   3  15
ATOM     15  C   LIG    1        4.181  -2.592   0.116  0.00  0.00    +0.170 C 
BRANCH  15  16
ATOM     16  C   LIG    1        5.482  -2.009  -0.372  0.00  0.00    +0.490 C 
ATOM     17  O   LIG    1        6.515  -2.232   0.235  0.00  0.00    -0.630 OA
ATOM     18  O   LIG    1        5.501  -1.314  -1.373  0.00  0.00    -0.670 OA
ENDBRANCH  15  16
ENDBRANCH   3  15
TORSDOF 4
ENDMDL
MODEL       33
REMARK  Name = ZINC000079420105
REMARK                            x       y       z     vdW  Elec       q    Type
REMARK                         _______ _______ _______ _____ _____    ______ ____
ROOT
ATOM      1  C   LIG    1        0.650  -2.119  -1.121  0.00  0.00    +0.300 C 
ATOM      2  C   LIG    1       -0.681  -2.664  -1.649  0.00  0.00    +0.290 C 
ATOM      3  N   LIG    1       -0.885  -2.206  -3.029  0.00  0.00    -0.360 N 
ATOM      4  C   LIG    1        0.149  -2.775  -3.902  0.00  0.00    +0.270 C 
ATOM      5  C   LIG    1        1.522  -2.236  -3.486  0.00  0.00    +0.320 C 
ATOM      6  H   LIG    1       -0.831  -1.199  -3.058  0.00  0.00    +0.420 HD
ATOM      7  N   LIG    1        1.720  -2.512  -2.051  0.00  0.00    -0.610 N 
ATOM      8  C   LIG    1        2.846  -3.106  -1.609  0.00  0.00    +0.520 C 
ATOM      9  O   LIG    1        3.669  -3.513  -2.402  0.00  0.00    -0.510 OA
ATOM     10  C   LIG    1        3.083  -3.265  -0.129  0.00  0.00    +0.120 C 
ENDROOT
BRANCH   1  11
ATOM     11  C   LIG    1        0.582  -0.617  -1.032  0.00  0.00    +0.430 C 
ATOM     12  O   LIG    1        1.072   0.063  -1.903  0.00  0.00    -0.470 OA
BRANCH  11  14
ATOM     13  C   LIG    1       -0.049   1.419   0.035  0.00  0.00    +0.280 C 
ATOM     14  O   LIG    1       -0.022  -0.033   0.015  0.00  0.00    -0.350 OA
ENDBRANCH  11  14
ENDBRANCH   1  11
BRANCH   3  15
ATOM     15  C   LIG    1       -2.208  -2.638  -3.496  0.00  0.00    +0.170 C 
BRANCH  15  16
ATOM     16  C   LIG    1       -2.469  -2.065  -4.865  0.00  0.00    +0.490 C 
ATOM     17  O   LIG    1       -3.519  -2.304  -5.437  0.00  0.00    -0.630 OA
ATOM     18  O   LIG    1       -1.630  -1.362  -5.402  0.00  0.00    -0.670 OA
ENDBRANCH  15  16
ENDBRANCH   3  15
TORSDOF 4
ENDMDL
MODEL       34
REMARK  Name = ZINC000079420105
REMARK                            x       y       z     vdW  Elec       q    Type
REMARK                         _______ _______ _______ _____ _____    ______ ____
ROOT
ATOM      1  C   LIG    1        0.658  -2.105  -1.119  0.00  0.00    +0.270 C 
ATOM      2  C   LIG    1       -0.710  -2.670  -1.514  0.00  0.00    +0.280 C 
ATOM      3  N   LIG    1       -0.603  -4.121  -1.709  0.00  0.00    -0.360 N 
ATOM      4  C   LIG    1        0.286  -4.409  -2.842  0.00  0.00    +0.270 C 
ATOM      5  C   LIG    1        1.704  -3.931  -2.513  0.00  0.00    +0.330 C 
ATOM      6  H   LIG    1       -0.228  -4.544  -0.873  0.00  0.00    +0.430 HD
ATOM      7  N   LIG    1        1.645  -2.510  -2.133  0.00  0.00    -0.630 N 
ATOM      8  C   LIG    1        2.465  -1.606  -2.703  0.00  0.00    +0.520 C 
ATOM      9  O   LIG    1        2.470  -0.459  -2.309  0.00  0.00    -0.500 OA
ATOM     10  C   LIG    1        3.377  -2.020  -3.829  0.00  0.00    +0.110 C 
ENDROOT
BRANCH   1  11
ATOM     11  C   LIG    1        0.587  -0.601  -1.055  0.00  0.00    +0.470 C 
ATOM     12  O   LIG    1        0.525   0.045  -2.074  0.00  0.00    -0.460 OA
BRANCH  11  14
ATOM     13  C   LIG    1        0.520   1.471   0.121  0.00  0.00    +0.280 C 
ATOM     14  O   LIG    1        0.591   0.021   0.135  0.00  0.00    -0.360 OA
ENDBRANCH  11  14
ENDBRANCH   1  11
BRANCH   3  15
ATOM     15  C   LIG    1       -1.935  -4.677  -1.982  0.00  0.00    +0.180 C 
BRANCH  15  16
ATOM     16  C   LIG    1       -1.846  -6.179  -2.060  0.00  0.00    +0.490 C 
ATOM     17  O   LIG    1       -2.847  -6.839  -2.280  0.00  0.00    -0.630 OA
ATOM     18  O   LIG    1       -0.772  -6.735  -1.903  0.00  0.00    -0.670 OA
ENDBRANCH  15  16
ENDBRANCH   3  15
TORSDOF 4
ENDMDL
MODEL       35
REMARK  Name = ZINC000000369435
REMARK                            x       y       z     vdW  Elec       q    Type
REMARK                         _______ _______ _______ _____ _____    ______ ____
ROOT
ATOM      1  N   LIG    1        0.688  -0.476  -1.203  0.00  0.00    -0.490 N 
ATOM      2  C   LIG    1        0.102  -0.746  -2.429  0.00  0.00    +0.520 A 
ATOM      3  N   LIG    1        1.103  -1.167  -3.290  0.00  0.00    -0.640 N 
ATOM      4  H   LIG    1        0.982  -1.423  -4.218  0.00  0.00    +0.430 HD
ATOM      5  C   LIG    1        2.295  -1.160  -2.611  0.00  0.00    +0.360 A 
ATOM      6  N   LIG    1        3.579  -1.484  -2.990  0.00  0.00    -0.520 N 
ATOM      7  C   LIG    1        3.843  -1.940  -4.357  0.00  0.00    +0.350 C 
ATOM      8  C   LIG    1        4.591  -1.390  -2.108  0.00  0.00    +0.710 A 
ATOM      9  O   LIG    1        5.718  -1.684  -2.459  0.00  0.00    -0.530 OA
ATOM     10  N   LIG    1        4.380  -0.974  -0.846  0.00  0.00    -0.650 N 
ATOM     11  H   LIG    1        5.126  -0.912  -0.229  0.00  0.00    +0.440 HD
ATOM     12  C   LIG    1        3.141  -0.643  -0.432  0.00  0.00    +0.590 A 
ATOM     13  O   LIG    1        2.955  -0.267   0.713  0.00  0.00    -0.510 OA
ATOM     14  N   LIG    1       -1.161  -0.625  -2.721  0.00  0.00    -0.330 NA
ATOM     15  C   LIG    1        2.063  -0.735  -1.333  0.00  0.00    -0.080 A 
ENDROOT
BRANCH  14  16
ATOM     16  N   LIG    1       -1.615  -0.935  -4.009  0.00  0.00    -0.790 N 
ATOM     17  H   LIG    1       -2.556  -0.845  -4.226  0.00  0.00    +0.420 HD
ATOM     18  H   LIG    1       -0.989  -1.239  -4.684  0.00  0.00    +0.360 HD
ENDBRANCH  14  16
BRANCH   1  20
ATOM     19  C   LIG    1       -0.019   1.526   0.010  0.00  0.00    +0.020 C 
ATOM     20  C   LIG    1        0.002  -0.004   0.002  0.00  0.00    +0.330 C 
ENDBRANCH   1  20
TORSDOF 2
ENDMDL
MODEL       36
REMARK  Name = ZINC000072344419
REMARK                            x       y       z     vdW  Elec       q    Type
REMARK                         _______ _______ _______ _____ _____    ______ ____
ROOT
ATOM      1  N   LIG    1        0.796  -0.399  -1.397  0.00  0.00    -0.980 NA
ATOM      2  C   LIG    1        0.005  -0.573  -2.633  0.00  0.00    +0.290 C 
ATOM      3  C   LIG    1        0.703   0.069  -3.846  0.00  0.00    +0.170 C 
ATOM      4  N   LIG    1        1.296   1.330  -3.457  0.00  0.00    -0.680 NA
ATOM      5  H   LIG    1        1.203   2.016  -4.191  0.00  0.00    +0.350 HD
ATOM      6  C   LIG    1        2.699   1.148  -3.086  0.00  0.00    +0.190 C 
ATOM      7  C   LIG    1        2.914   0.799  -1.668  0.00  0.00    -0.030 C 
ATOM      8  C   LIG    1        2.234  -0.552  -1.355  0.00  0.00    +0.330 C 
ENDROOT
BRANCH   7   9
ATOM      9  C   LIG    1        4.392   0.692  -1.396  0.00  0.00    +0.530 C 
ATOM     10  O   LIG    1        4.862  -0.353  -0.999  0.00  0.00    -0.530 OA
ATOM     11  N   LIG    1        5.192   1.758  -1.595  0.00  0.00    -0.850 N 
ATOM     12  H   LIG    1        6.144   1.689  -1.420  0.00  0.00    +0.410 HD
ATOM     13  H   LIG    1        4.817   2.594  -1.913  0.00  0.00    +0.400 HD
ENDBRANCH   7   9
BRANCH   1  15
ATOM     14  C   LIG    1       -0.022   1.810   0.012  0.00  0.00    -0.300 C 
ATOM     15  S   LIG    1        0.002  -0.004   0.002  0.00  0.00    +2.600 S 
ATOM     16  O   LIG    1       -1.309  -0.519  -0.182  0.00  0.00    -0.960 OA
ATOM     17  O   LIG    1        0.845  -0.497   1.035  0.00  0.00    -0.950 OA
ENDBRANCH   1  15
TORSDOF 2
ENDMDL
MODEL       37
REMARK  Name = ZINC000072344420
REMARK                            x       y       z     vdW  Elec       q    Type
REMARK                         _______ _______ _______ _____ _____    ______ ____
ROOT
ATOM      1  N   LIG    1        0.796  -0.399  -1.397  0.00  0.00    -1.000 NA
ATOM      2  C   LIG    1        0.070  -0.578  -2.623  0.00  0.00    +0.250 C 
ATOM      3  C   LIG    1       -0.414  -2.015  -2.924  0.00  0.00    +0.210 C 
ATOM      4  N   LIG    1        0.640  -3.007  -2.583  0.00  0.00    -0.690 NA
ATOM      5  H   LIG    1        0.594  -3.263  -1.608  0.00  0.00    +0.350 HD
ATOM      6  C   LIG    1        1.956  -2.539  -2.931  0.00  0.00    +0.230 C 
ATOM      7  C   LIG    1        2.550  -1.999  -1.635  0.00  0.00    -0.050 C 
ATOM      8  C   LIG    1        2.289  -0.569  -1.405  0.00  0.00    +0.330 C 
ENDROOT
BRANCH   7   9
ATOM      9  C   LIG    1        4.042  -2.210  -1.667  0.00  0.00    +0.520 C 
ATOM     10  O   LIG    1        4.791  -1.258  -1.595  0.00  0.00    -0.540 OA
ATOM     11  N   LIG    1        4.545  -3.456  -1.777  0.00  0.00    -0.850 N 
ATOM     12  H   LIG    1        5.505  -3.591  -1.798  0.00  0.00    +0.400 HD
ATOM     13  H   LIG    1        3.946  -4.217  -1.835  0.00  0.00    +0.400 HD
ENDBRANCH   7   9
BRANCH   1  15
ATOM     14  C   LIG    1       -0.022   1.810   0.012  0.00  0.00    -0.280 C 
ATOM     15  S   LIG    1        0.002  -0.004   0.002  0.00  0.00    +2.610 S 
ATOM     16  O   LIG    1       -1.309  -0.519  -0.182  0.00  0.00    -0.950 OA
ATOM     17  O   LIG    1        0.845  -0.497   1.035  0.00  0.00    -0.950 OA
ENDBRANCH   1  15
TORSDOF 2
ENDMDL
MODEL       38
REMARK  Name = ZINC000013897790
REMARK                            x       y       z     vdW  Elec       q    Type
REMARK                         _______ _______ _______ _____ _____    ______ ____
ROOT
ATOM      1  C   LIG    1       -1.416  -2.058  -0.121  0.00  0.00    +0.170 C 
ENDROOT
BRANCH   1   2
ATOM      2  O   LIG    1       -0.783  -2.420  -1.350  0.00  0.00    -0.550 OA
ATOM      3  H   LIG    1       -1.223  -2.070  -2.137  0.00  0.00    +0.380 HD
ENDBRANCH   1   2
BRANCH   1   4
ATOM      4  C   LIG    1       -1.433  -0.534   0.013  0.00  0.00    +0.200 C 
BRANCH   4   5
ATOM      5  O   LIG    1       -2.066  -0.171   1.242  0.00  0.00    -0.540 OA
ATOM      6  H   LIG    1       -1.626  -0.521   2.029  0.00  0.00    +0.370 HD
ENDBRANCH   4   5
BRANCH   4   7
ATOM      7  C   LIG    1        0.002  -0.004   0.002  0.00  0.00    +0.150 C 
BRANCH   7   8
ATOM      8  O   LIG    1       -0.017   1.425   0.010  0.00  0.00    -0.560 OA
ATOM      9  H   LIG    1        0.861   1.830   0.004  0.00  0.00    +0.380 HD
ENDBRANCH   7   8
ENDBRANCH   4   7
ENDBRANCH   1   4
BRANCH   1  10
ATOM     10  C   LIG    1       -2.851  -2.587  -0.110  0.00  0.00    +0.210 C 
BRANCH  10  11
ATOM     11  C   LIG    1       -2.840  -4.095  -0.369  0.00  0.00    +0.230 C 
ATOM     12  N   LIG    1       -4.224  -4.617  -0.442  0.00  0.00    -0.660 NA
ATOM     13  H   LIG    1       -4.863  -4.020   0.062  0.00  0.00    +0.360 HD
ATOM     14  C   LIG    1       -4.291  -6.004   0.057  0.00  0.00    +0.240 C 
ATOM     15  C   LIG    1       -3.543  -6.043   1.418  0.00  0.00    +0.100 C 
ATOM     16  S   LIG    1       -2.085  -4.982   1.047  0.00  0.00    -0.320 S 
ENDBRANCH  10  11
BRANCH  10  17
ATOM     17  O   LIG    1       -3.607  -1.934  -1.132  0.00  0.00    -0.540 OA
ATOM     18  H   LIG    1       -3.261  -2.068  -2.024  0.00  0.00    +0.370 HD
ENDBRANCH  10  17
ENDBRANCH   1  10
TORSDOF 8
ENDMDL
MODEL       39
REMARK  Name = ZINC000031659374
REMARK                            x       y       z     vdW  Elec       q    Type
REMARK                         _______ _______ _______ _____ _____    ______ ____
ROOT
ATOM      1  C   LIG    1        0.742  -0.511   1.242  0.00  0.00    +0.080 C 
ATOM      2  C   LIG    1        2.200  -0.108   1.119  0.00  0.00    +0.520 C 
ATOM      3  N   LIG    1        2.720   0.658   2.100  0.00  0.00    -0.690 NA
ATOM      4  C   LIG    1        1.991   1.057   3.149  0.00  0.00    +0.670 C 
ATOM      5  N   LIG    1        0.703   0.753   3.343  0.00  0.00    -0.690 N 
ATOM      6  H   LIG    1        0.255   1.088   4.136  0.00  0.00    +0.400 HD
ATOM      7  O   LIG    1        2.540   1.746   3.986  0.00  0.00    -0.580 OA
ATOM      8  O   LIG    1        2.872  -0.462   0.174  0.00  0.00    -0.550 OA
ATOM      9  C   LIG    1        0.008  -0.005   2.469  0.00  0.00    +0.540 C 
ATOM     10  O   LIG    1       -1.159  -0.273   2.658  0.00  0.00    -0.530 OA
ENDROOT
BRANCH   1  11
ATOM     11  N   LIG    1        0.676  -1.974   1.241  0.00  0.00    -0.670 N 
ATOM     12  H   LIG    1        0.214  -2.439   0.526  0.00  0.00    +0.410 HD
ATOM     13  C   LIG    1        1.256  -2.675   2.236  0.00  0.00    +0.480 C 
ATOM     14  O   LIG    1        1.833  -2.094   3.131  0.00  0.00    -0.510 OA
BRANCH  13  15
ATOM     15  C   LIG    1        1.188  -4.181   2.236  0.00  0.00    +0.300 C 
BRANCH  15  16
ATOM     16  N   LIG    1        1.891  -4.703   3.415  0.00  0.00    -0.620 N 
ATOM     17  H   LIG    1        1.845  -5.711   3.415  0.00  0.00    +0.440 HD
ATOM     18  H   LIG    1        1.454  -4.346   4.252  0.00  0.00    +0.440 HD
ATOM     19  H   LIG    1        2.856  -4.410   3.389  0.00  0.00    +0.440 HD
ENDBRANCH  15  16
ENDBRANCH  13  15
ENDBRANCH   1  11
BRANCH   1  21
ATOM     20  C   LIG    1       -0.019   1.526   0.010  0.00  0.00    +0.030 C 
ATOM     21  C   LIG    1        0.002  -0.004   0.002  0.00  0.00    +0.060 C 
ENDBRANCH   1  21
TORSDOF 4
ENDMDL
MODEL       40
REMARK  Name = ZINC000257314331
REMARK                            x       y       z     vdW  Elec       q    Type
REMARK                         _______ _______ _______ _____ _____    ______ ____
ROOT
ATOM      1  N   LIG    1       -2.312  -2.922  -0.011  0.00  0.00    -0.510 NA
ATOM      2  C   LIG    1       -3.150  -2.408  -1.132  0.00  0.00    +0.190 C 
ATOM      3  C   LIG    1       -4.568  -2.443  -0.559  0.00  0.00    +0.180 C 
ATOM      4  N   LIG    1       -5.555  -1.562  -1.147  0.00  0.00    -0.710 N 
ATOM      5  H   LIG    1       -5.533  -1.343  -2.092  0.00  0.00    +0.410 HD
ATOM      6  C   LIG    1       -6.510  -1.058  -0.333  0.00  0.00    +0.490 C 
ATOM      7  C   LIG    1       -6.538  -1.253   1.154  0.00  0.00    +0.290 C 
ATOM      8  O   LIG    1       -5.486  -2.121   1.612  0.00  0.00    -0.350 OA
ATOM      9  O   LIG    1       -7.400  -0.406  -0.837  0.00  0.00    -0.530 OA
ATOM     10  C   LIG    1       -4.300  -1.921   0.883  0.00  0.00    +0.120 C 
ATOM     11  C   LIG    1       -3.036  -2.676   1.264  0.00  0.00    +0.240 C 
ENDROOT
BRANCH   1  12
ATOM     12  C   LIG    1       -0.993  -2.276  -0.001  0.00  0.00    +0.200 C 
BRANCH  12  13
ATOM     13  C   LIG    1       -0.330  -2.446  -1.369  0.00  0.00    +0.060 C 
BRANCH  13  17
ATOM     14  N   LIG    1        1.851  -1.939  -2.420  0.00  0.00    -0.860 N 
ATOM     15  H   LIG    1        1.510  -2.327  -3.241  0.00  0.00    +0.400 HD
ATOM     16  H   LIG    1        2.754  -1.586  -2.388  0.00  0.00    +0.400 HD
ATOM     17  C   LIG    1        1.072  -1.897  -1.321  0.00  0.00    +0.520 C 
ATOM     18  O   LIG    1        1.500  -1.417  -0.292  0.00  0.00    -0.540 OA
ENDBRANCH  13  17
ENDBRANCH  12  13
ENDBRANCH   1  12
TORSDOF 3
ENDMDL
MODEL       41
REMARK  Name = ZINC000257302548
REMARK                            x       y       z     vdW  Elec       q    Type
REMARK                         _______ _______ _______ _____ _____    ______ ____
ROOT
ATOM      1  N   LIG    1       -1.100  -2.230   0.073  0.00  0.00    -0.520 NA
ATOM      2  C   LIG    1       -0.323  -2.610   1.270  0.00  0.00    +0.180 C 
ATOM      3  C   LIG    1       -0.148  -4.127   1.309  0.00  0.00    +0.020 C 
ATOM      4  C   LIG    1       -1.344  -4.814   0.634  0.00  0.00    +0.240 C 
ATOM      5  N   LIG    1       -1.672  -6.014   1.394  0.00  0.00    -0.720 N 
ATOM      6  H   LIG    1       -1.818  -5.922   2.349  0.00  0.00    +0.400 HD
ATOM      7  C   LIG    1       -1.783  -7.233   0.858  0.00  0.00    +0.490 C 
ATOM      8  C   LIG    1       -1.588  -7.458  -0.619  0.00  0.00    +0.270 C 
ATOM      9  O   LIG    1       -1.773  -6.217  -1.300  0.00  0.00    -0.370 OA
ATOM     10  O   LIG    1       -2.046  -8.176   1.573  0.00  0.00    -0.550 OA
ATOM     11  C   LIG    1       -0.955  -5.148  -0.810  0.00  0.00    +0.150 C 
ATOM     12  C   LIG    1       -1.214  -3.916  -1.691  0.00  0.00    +0.080 C 
ATOM     13  C   LIG    1       -0.403  -2.726  -1.136  0.00  0.00    +0.180 C 
ENDROOT
BRANCH   1  14
ATOM     14  C   LIG    1       -1.293  -0.775   0.010  0.00  0.00    +0.210 C 
BRANCH  14  18
ATOM     15  N   LIG    1       -2.482   0.844  -1.433  0.00  0.00    -0.860 N 
ATOM     16  H   LIG    1       -2.042   1.556  -0.942  0.00  0.00    +0.400 HD
ATOM     17  H   LIG    1       -3.094   1.058  -2.154  0.00  0.00    +0.400 HD
ATOM     18  C   LIG    1       -2.245  -0.443  -1.110  0.00  0.00    +0.510 C 
ATOM     19  O   LIG    1       -2.798  -1.333  -1.720  0.00  0.00    -0.520 OA
ENDBRANCH  14  18
ENDBRANCH   1  14
TORSDOF 2
ENDMDL
MODEL       42
REMARK  Name = ZINC000053151253
REMARK                            x       y       z     vdW  Elec       q    Type
REMARK                         _______ _______ _______ _____ _____    ______ ____
ROOT
ATOM      1  C   LIG    1       -1.722  -4.579  -0.006  0.00  0.00    +0.190 C 
ENDROOT
BRANCH   1   4
ATOM      2  N   LIG    1       -1.005  -2.212  -0.000  0.00  0.00    -0.720 N 
ATOM      3  H   LIG    1       -0.087  -2.523  -0.011  0.00  0.00    +0.410 HD
ATOM      4  C   LIG    1       -2.018  -3.102   0.005  0.00  0.00    +0.480 C 
ATOM      5  O   LIG    1       -3.167  -2.713   0.018  0.00  0.00    -0.540 OA
BRANCH   2   6
ATOM      6  C   LIG    1       -1.293  -0.775   0.010  0.00  0.00    +0.290 C 
BRANCH   6  10
ATOM      7  N   LIG    1       -0.016   1.344   0.009  0.00  0.00    -0.850 N 
ATOM      8  H   LIG    1       -0.863   1.817   0.016  0.00  0.00    +0.410 HD
ATOM      9  H   LIG    1        0.817   1.840   0.004  0.00  0.00    +0.410 HD
ATOM     10  C   LIG    1        0.002  -0.004   0.002  0.00  0.00    +0.510 C 
ATOM     11  O   LIG    1        1.060  -0.596  -0.011  0.00  0.00    -0.540 OA
ENDBRANCH   6  10
ENDBRANCH   2   6
ENDBRANCH   1   4
BRANCH   1  12
ATOM     12  N   LIG    1       -2.898  -5.317   0.475  0.00  0.00    -0.810 NA
ATOM     13  H   LIG    1       -3.700  -5.143  -0.113  0.00  0.00    +0.350 HD
ATOM     14  H   LIG    1       -3.099  -5.090   1.437  0.00  0.00    +0.350 HD
ENDBRANCH   1  12
BRANCH   1  15
ATOM     15  C   LIG    1       -1.390  -5.022  -1.432  0.00  0.00    +0.090 C 
BRANCH  15  16
ATOM     16  C   LIG    1       -0.976  -6.471  -1.424  0.00  0.00    -0.080 A 
ATOM     17  C   LIG    1        0.354  -6.808  -1.251  0.00  0.00    +0.030 A 
ATOM     18  C   LIG    1        0.737  -8.135  -1.243  0.00  0.00    -0.020 A 
ATOM     19  C   LIG    1       -0.215  -9.131  -1.409  0.00  0.00    +0.100 A 
ATOM     20  C   LIG    1       -1.549  -8.791  -1.582  0.00  0.00    -0.020 A 
ATOM     21  C   LIG    1       -1.927  -7.462  -1.585  0.00  0.00    +0.060 A 
BRANCH  19  22
ATOM     22  O   LIG    1        0.159 -10.438  -1.401  0.00  0.00    -0.500 OA
ATOM     23  H   LIG    1        0.145 -10.845  -0.525  0.00  0.00    +0.390 HD
ENDBRANCH  19  22
ENDBRANCH  15  16
ENDBRANCH   1  15
TORSDOF 7
ENDMDL
MODEL       43
REMARK  Name = ZINC000003014560
REMARK                            x       y       z     vdW  Elec       q    Type
REMARK                         _______ _______ _______ _____ _____    ______ ____
ROOT
ATOM      1  C   LIG    1       -2.409  -2.799   0.010  0.00  0.00    +0.120 A 
ATOM      2  N   LIG    1       -3.555  -2.154   0.019  0.00  0.00    -0.350 NA
ATOM      3  C   LIG    1       -4.701  -2.841   0.026  0.00  0.00    +0.100 A 
ATOM      4  N   LIG    1       -5.988  -2.568   0.035  0.00  0.00    -0.190 NA
ATOM      5  O   LIG    1       -6.627  -3.598   0.038  0.00  0.00    +0.330 OA
ATOM      6  N   LIG    1       -5.988  -4.631   0.032  0.00  0.00    -0.480 N 
ATOM      7  H   LIG    1       -6.359  -5.528   0.034  0.00  0.00    +0.500 HD
ATOM      8  C   LIG    1       -4.677  -4.319   0.023  0.00  0.00    +0.360 A 
ATOM      9  N   LIG    1       -3.529  -4.964   0.014  0.00  0.00    -0.550 NA
ATOM     10  C   LIG    1       -2.385  -4.272   0.002  0.00  0.00    +0.510 A 
ATOM     11  O   LIG    1       -1.317  -4.863  -0.007  0.00  0.00    -0.410 OA
ENDROOT
BRANCH   1  18
ATOM     12  N   LIG    1       -0.016   1.344   0.009  0.00  0.00    -0.850 N 
ATOM     13  H   LIG    1       -0.863   1.817   0.016  0.00  0.00    +0.400 HD
ATOM     14  H   LIG    1        0.817   1.840   0.004  0.00  0.00    +0.420 HD
ATOM     15  C   LIG    1        0.002  -0.004   0.002  0.00  0.00    +0.700 C 
ATOM     16  N   LIG    1       -1.156  -0.694   0.009  0.00  0.00    -0.680 N 
ATOM     17  H   LIG    1       -2.002  -0.220   0.020  0.00  0.00    +0.420 HD
ATOM     18  C   LIG    1       -1.137  -2.041   0.002  0.00  0.00    +0.580 C 
ATOM     19  O   LIG    1       -0.077  -2.634  -0.011  0.00  0.00    -0.400 OA
ATOM     20  O   LIG    1        1.063  -0.597  -0.011  0.00  0.00    -0.530 OA
ENDBRANCH   1  18
TORSDOF 1
ENDMDL
MODEL       44
REMARK  Name = ZINC000001590251
REMARK                            x       y       z     vdW  Elec       q    Type
REMARK                         _______ _______ _______ _____ _____    ______ ____
ROOT
ATOM      1  C   UNK A  1        1.479  -2.361  -2.569  0.00  0.00    +0.300 C 
ATOM      2  N   UNK A  1        1.919  -3.720  -2.283  0.00  0.00    -0.700 N 
ATOM      3  H   UNK A  1        2.727  -3.846  -1.763  0.00  0.00    +0.420 HD
ATOM      4  C   ALA A  2        1.256  -4.800  -2.708  0.00  0.00    +0.530 C 
ATOM      5  CA  ALA A  2       -0.001  -4.713  -3.519  0.00  0.00    +0.240 C 
ATOM      6  N   ALA A  2       -0.133  -3.408  -4.152  0.00  0.00    -0.710 N 
ATOM      7  H   ALA A  2       -0.729  -3.319  -4.912  0.00  0.00    +0.420 HD
ATOM      8  CB  ALA A  2        0.025  -5.794  -4.602  0.00  0.00    +0.090 C 
ATOM      9  O   ALA A  2        1.690  -5.897  -2.424  0.00  0.00    -0.510 OA
ATOM     10  C   UNK A  1        0.533  -2.328  -3.731  0.00  0.00    +0.530 C 
ATOM     11  O   UNK A  1        0.365  -1.278  -4.314  0.00  0.00    -0.500 OA
ENDROOT
BRANCH   1  12
ATOM     12  C   UNK A  1        0.786  -1.801  -1.353  0.00  0.00    +0.450 C 
ATOM     13  O   UNK A  1        0.325  -2.548  -0.523  0.00  0.00    -0.480 OA
BRANCH  12  14
ATOM     14  O   UNK A  1        0.682  -0.472  -1.193  0.00  0.00    -0.340 OA
BRANCH  14  16
ATOM     15  C   UNK A  1       -0.019   1.526   0.010  0.00  0.00    +0.070 C 
ATOM     16  C   UNK A  1        0.002  -0.004   0.002  0.00  0.00    +0.200 C 
ENDBRANCH  14  16
ENDBRANCH  12  14
ENDBRANCH   1  12
TORSDOF 3
ENDMDL
MODEL       45
REMARK  Name = ZINC000005378187
REMARK                            x       y       z     vdW  Elec       q    Type
REMARK                         _______ _______ _______ _____ _____    ______ ____
ROOT
ATOM      1  N   LIG    1       -2.295  -2.731   0.009  0.00  0.00    -0.630 N 
ATOM      2  H   LIG    1       -3.142  -2.258   0.020  0.00  0.00    +0.420 HD
ATOM      3  C   LIG    1       -2.277  -4.079   0.002  0.00  0.00    +0.590 C 
ATOM      4  O   LIG    1       -1.217  -4.672  -0.011  0.00  0.00    -0.370 OA
ENDROOT
BRANCH   3   5
ATOM      5  C   LIG    1       -3.547  -4.835   0.010  0.00  0.00    +0.150 A 
ATOM      6  N   LIG    1       -4.756  -4.317   0.019  0.00  0.00    -0.280 NA
ATOM      7  N   LIG    1       -5.616  -5.277   0.024  0.00  0.00    -0.390 N 
ATOM      8  H   LIG    1       -6.580  -5.174   0.031  0.00  0.00    +0.460 HD
ATOM      9  C   LIG    1       -4.951  -6.447   0.018  0.00  0.00    +0.450 A 
ATOM     10  N   LIG    1       -3.671  -6.175   0.004  0.00  0.00    -0.450 NA
ENDBRANCH   3   5
BRANCH   1  11
ATOM     11  C   LIG    1       -1.137  -2.041   0.002  0.00  0.00    +0.470 C 
ATOM     12  S   LIG    1        0.356  -2.877  -0.017  0.00  0.00    -0.360 S 
BRANCH  11  15
ATOM     13  C   LIG    1       -0.018   1.503   0.010  0.00  0.00    +0.120 C 
ATOM     14  C   LIG    1        0.002  -0.004   0.002  0.00  0.00    +0.480 C 
ATOM     15  N   LIG    1       -1.156  -0.694   0.009  0.00  0.00    -0.640 N 
ATOM     16  H   LIG    1       -2.002  -0.220   0.020  0.00  0.00    +0.410 HD
ATOM     17  O   LIG    1        1.060  -0.596  -0.011  0.00  0.00    -0.410 OA
ENDBRANCH  11  15
ENDBRANCH   1  11
TORSDOF 3
ENDMDL
MODEL       46
REMARK  Name = ZINC000005378187
REMARK                            x       y       z     vdW  Elec       q    Type
REMARK                         _______ _______ _______ _____ _____    ______ ____
ROOT
ATOM      1  N   LIG    1       -2.295  -2.731   0.009  0.00  0.00    -0.630 N 
ATOM      2  H   LIG    1       -3.142  -2.258   0.020  0.00  0.00    +0.420 HD
ATOM      3  C   LIG    1       -2.277  -4.079   0.002  0.00  0.00    +0.590 C 
ATOM      4  O   LIG    1       -1.217  -4.672  -0.011  0.00  0.00    -0.370 OA
ENDROOT
BRANCH   3   5
ATOM      5  C   LIG    1       -3.547  -4.835   0.010  0.00  0.00    +0.150 A 
ATOM      6  N   LIG    1       -4.756  -4.317   0.019  0.00  0.00    -0.280 NA
ATOM      7  N   LIG    1       -5.616  -5.277   0.024  0.00  0.00    -0.390 N 
ATOM      8  H   LIG    1       -6.580  -5.174   0.031  0.00  0.00    +0.460 HD
ATOM      9  C   LIG    1       -4.951  -6.447   0.018  0.00  0.00    +0.450 A 
ATOM     10  N   LIG    1       -3.671  -6.175   0.004  0.00  0.00    -0.450 NA
ENDBRANCH   3   5
BRANCH   1  11
ATOM     11  C   LIG    1       -1.137  -2.041   0.002  0.00  0.00    +0.470 C 
ATOM     12  S   LIG    1        0.356  -2.877  -0.017  0.00  0.00    -0.360 S 
BRANCH  11  15
ATOM     13  C   LIG    1       -0.018   1.503   0.010  0.00  0.00    +0.120 C 
ATOM     14  C   LIG    1        0.002  -0.004   0.002  0.00  0.00    +0.480 C 
ATOM     15  N   LIG    1       -1.156  -0.694   0.009  0.00  0.00    -0.640 N 
ATOM     16  H   LIG    1       -2.002  -0.220   0.020  0.00  0.00    +0.410 HD
ATOM     17  O   LIG    1        1.060  -0.596  -0.011  0.00  0.00    -0.410 OA
ENDBRANCH  11  15
ENDBRANCH   1  11
TORSDOF 3
ENDMDL
MODEL       47
REMARK  Name = ZINC000001590254
REMARK                            x       y       z     vdW  Elec       q    Type
REMARK                         _______ _______ _______ _____ _____    ______ ____
ROOT
ATOM      1  C   UNK A  1        1.479  -2.361  -2.569  0.00  0.00    +0.300 C 
ATOM      2  N   UNK A  1        1.919  -3.720  -2.283  0.00  0.00    -0.700 N 
ATOM      3  H   UNK A  1        2.727  -3.846  -1.763  0.00  0.00    +0.420 HD
ATOM      4  C   ALA A  2        1.256  -4.800  -2.708  0.00  0.00    +0.530 C 
ATOM      5  CA  ALA A  2       -0.001  -4.713  -3.519  0.00  0.00    +0.250 C 
ATOM      6  N   ALA A  2       -0.133  -3.408  -4.152  0.00  0.00    -0.710 N 
ATOM      7  H   ALA A  2       -0.729  -3.319  -4.912  0.00  0.00    +0.420 HD
ATOM      8  CB  ALA A  2       -1.205  -4.949  -2.604  0.00  0.00    +0.070 C 
ATOM      9  O   ALA A  2        1.690  -5.897  -2.424  0.00  0.00    -0.510 OA
ATOM     10  C   UNK A  1        0.533  -2.328  -3.731  0.00  0.00    +0.530 C 
ATOM     11  O   UNK A  1        0.365  -1.278  -4.314  0.00  0.00    -0.500 OA
ENDROOT
BRANCH   1  12
ATOM     12  C   UNK A  1        0.786  -1.801  -1.353  0.00  0.00    +0.450 C 
ATOM     13  O   UNK A  1        0.325  -2.548  -0.523  0.00  0.00    -0.480 OA
BRANCH  12  14
ATOM     14  O   UNK A  1        0.682  -0.472  -1.193  0.00  0.00    -0.340 OA
BRANCH  14  16
ATOM     15  C   UNK A  1       -0.019   1.526   0.010  0.00  0.00    +0.070 C 
ATOM     16  C   UNK A  1        0.002  -0.004   0.002  0.00  0.00    +0.200 C 
ENDBRANCH  14  16
ENDBRANCH  12  14
ENDBRANCH   1  12
TORSDOF 3
ENDMDL
MODEL       48
REMARK  Name = ZINC000001590252
REMARK                            x       y       z     vdW  Elec       q    Type
REMARK                         _______ _______ _______ _____ _____    ______ ____
ROOT
ATOM      1  C   UNK A  1        1.479  -2.361  -2.569  0.00  0.00    +0.300 C 
ATOM      2  N   UNK A  1        1.919  -3.720  -2.283  0.00  0.00    -0.700 N 
ATOM      3  H   UNK A  1        2.727  -3.846  -1.763  0.00  0.00    +0.420 HD
ATOM      4  C   ALA A  2        1.256  -4.800  -2.708  0.00  0.00    +0.530 C 
ATOM      5  CA  ALA A  2       -0.001  -4.713  -3.519  0.00  0.00    +0.240 C 
ATOM      6  N   ALA A  2       -0.133  -3.408  -4.152  0.00  0.00    -0.710 N 
ATOM      7  H   ALA A  2       -0.729  -3.319  -4.912  0.00  0.00    +0.420 HD
ATOM      8  CB  ALA A  2        0.025  -5.794  -4.602  0.00  0.00    +0.090 C 
ATOM      9  O   ALA A  2        1.690  -5.897  -2.424  0.00  0.00    -0.510 OA
ATOM     10  C   UNK A  1        0.533  -2.328  -3.731  0.00  0.00    +0.530 C 
ATOM     11  O   UNK A  1        0.365  -1.278  -4.314  0.00  0.00    -0.500 OA
ENDROOT
BRANCH   1  12
ATOM     12  C   UNK A  1        0.786  -1.801  -1.353  0.00  0.00    +0.450 C 
ATOM     13  O   UNK A  1        0.325  -2.548  -0.523  0.00  0.00    -0.480 OA
BRANCH  12  14
ATOM     14  O   UNK A  1        0.682  -0.472  -1.193  0.00  0.00    -0.340 OA
BRANCH  14  16
ATOM     15  C   UNK A  1       -0.019   1.526   0.010  0.00  0.00    +0.070 C 
ATOM     16  C   UNK A  1        0.002  -0.004   0.002  0.00  0.00    +0.200 C 
ENDBRANCH  14  16
ENDBRANCH  12  14
ENDBRANCH   1  12
TORSDOF 3
ENDMDL
MODEL       49
REMARK  Name = ZINC000064858422
REMARK                            x       y       z     vdW  Elec       q    Type
REMARK                         _______ _______ _______ _____ _____    ______ ____
ROOT
ATOM      1  C   LIG    1       -1.414  -2.036   0.129  0.00  0.00    +0.020 C 
ATOM      2  N   LIG    1       -0.282  -2.647   0.204  0.00  0.00    -0.340 NA
ATOM      3  C   LIG    1       -0.203  -4.005   0.277  0.00  0.00    -0.220 A 
ATOM      4  C   LIG    1       -1.331  -4.789  -0.004  0.00  0.00    +0.470 A 
ATOM      5  N   LIG    1       -2.499  -4.147  -0.372  0.00  0.00    -0.700 N 
ATOM      6  H   LIG    1       -3.148  -4.575  -0.953  0.00  0.00    +0.420 HD
ATOM      7  N   LIG    1       -1.258  -6.115   0.078  0.00  0.00    -0.610 NA
ATOM      8  C   LIG    1       -0.127  -6.712   0.403  0.00  0.00    +0.680 A 
ATOM      9  N   LIG    1        1.006  -6.007   0.665  0.00  0.00    -0.660 N 
ATOM     10  H   LIG    1        1.823  -6.476   0.895  0.00  0.00    +0.420 HD
ATOM     11  C   LIG    1        1.002  -4.657   0.607  0.00  0.00    +0.580 A 
ATOM     12  O   LIG    1        2.016  -4.018   0.835  0.00  0.00    -0.500 OA
ATOM     13  C   LIG    1       -2.718  -2.790   0.159  0.00  0.00    +0.310 C 
ENDROOT
BRANCH   8  14
ATOM     14  N   LIG    1       -0.093  -8.079   0.477  0.00  0.00    -0.810 N 
ATOM     15  H   LIG    1        0.731  -8.531   0.715  0.00  0.00    +0.420 HD
ATOM     16  H   LIG    1       -0.894  -8.595   0.293  0.00  0.00    +0.430 HD
ENDBRANCH   8  14
BRANCH   1  17
ATOM     17  C   LIG    1       -1.433  -0.534   0.013  0.00  0.00    +0.260 C 
BRANCH  17  19
ATOM     18  C   LIG    1       -0.019   1.526   0.010  0.00  0.00    +0.000 C 
ATOM     19  C   LIG    1        0.002  -0.004   0.002  0.00  0.00    +0.190 C 
BRANCH  19  20
ATOM     20  O   LIG    1        0.693  -0.477   1.160  0.00  0.00    -0.530 OA
ATOM     21  H   LIG    1        0.294  -0.202   1.996  0.00  0.00    +0.360 HD
ENDBRANCH  19  20
ENDBRANCH  17  19
BRANCH  17  22
ATOM     22  O   LIG    1       -2.137   0.021   1.126  0.00  0.00    -0.550 OA
ATOM     23  H   LIG    1       -1.747  -0.195   1.985  0.00  0.00    +0.380 HD
ENDBRANCH  17  22
ENDBRANCH   1  17
TORSDOF 5
ENDMDL
MODEL       50
REMARK  Name = ZINC000064858427
REMARK                            x       y       z     vdW  Elec       q    Type
REMARK                         _______ _______ _______ _____ _____    ______ ____
ROOT
ATOM      1  C   LIG    1       -1.414  -2.036   0.129  0.00  0.00    +0.020 C 
ATOM      2  N   LIG    1       -0.282  -2.647   0.204  0.00  0.00    -0.340 NA
ATOM      3  C   LIG    1       -0.203  -4.005   0.277  0.00  0.00    -0.220 A 
ATOM      4  C   LIG    1       -1.331  -4.789  -0.004  0.00  0.00    +0.470 A 
ATOM      5  N   LIG    1       -2.499  -4.147  -0.372  0.00  0.00    -0.700 N 
ATOM      6  H   LIG    1       -3.148  -4.575  -0.953  0.00  0.00    +0.420 HD
ATOM      7  N   LIG    1       -1.258  -6.115   0.078  0.00  0.00    -0.610 NA
ATOM      8  C   LIG    1       -0.127  -6.712   0.403  0.00  0.00    +0.680 A 
ATOM      9  N   LIG    1        1.006  -6.007   0.665  0.00  0.00    -0.660 N 
ATOM     10  H   LIG    1        1.823  -6.476   0.895  0.00  0.00    +0.420 HD
ATOM     11  C   LIG    1        1.002  -4.657   0.607  0.00  0.00    +0.580 A 
ATOM     12  O   LIG    1        2.016  -4.018   0.835  0.00  0.00    -0.500 OA
ATOM     13  C   LIG    1       -2.718  -2.790   0.159  0.00  0.00    +0.310 C 
ENDROOT
BRANCH   8  14
ATOM     14  N   LIG    1       -0.093  -8.079   0.477  0.00  0.00    -0.810 N 
ATOM     15  H   LIG    1        0.731  -8.531   0.715  0.00  0.00    +0.420 HD
ATOM     16  H   LIG    1       -0.894  -8.595   0.293  0.00  0.00    +0.430 HD
ENDBRANCH   8  14
BRANCH   1  17
ATOM     17  C   LIG    1       -1.433  -0.534   0.013  0.00  0.00    +0.260 C 
BRANCH  17  19
ATOM     18  C   LIG    1       -0.019   1.526   0.010  0.00  0.00    +0.000 C 
ATOM     19  C   LIG    1        0.002  -0.004   0.002  0.00  0.00    +0.190 C 
BRANCH  19  20
ATOM     20  O   LIG    1        0.693  -0.477   1.160  0.00  0.00    -0.530 OA
ATOM     21  H   LIG    1        0.294  -0.202   1.996  0.00  0.00    +0.360 HD
ENDBRANCH  19  20
ENDBRANCH  17  19
BRANCH  17  22
ATOM     22  O   LIG    1       -2.137   0.021   1.126  0.00  0.00    -0.550 OA
ATOM     23  H   LIG    1       -1.747  -0.195   1.985  0.00  0.00    +0.380 HD
ENDBRANCH  17  22
ENDBRANCH   1  17
TORSDOF 5
ENDMDL
MODEL       51
REMARK  Name = ZINC000257276447
REMARK                            x       y       z     vdW  Elec       q    Type
REMARK                         _______ _______ _______ _____ _____    ______ ____
ROOT
ATOM      1  C   LIG    1        0.356  -2.193  -1.172  0.00  0.00    -0.020 C 
ATOM      2  C   LIG    1        1.128  -2.558   0.114  0.00  0.00    +0.200 C 
ATOM      3  N   LIG    1        2.010  -3.685  -0.286  0.00  0.00    -0.510 NA
ATOM      4  C   LIG    1        2.482  -3.315  -1.645  0.00  0.00    +0.180 C 
ATOM      5  C   LIG    1        3.139  -3.825   0.644  0.00  0.00    +0.180 C 
ATOM      6  C   LIG    1        1.244  -2.691  -2.331  0.00  0.00    +0.270 C 
ENDROOT
BRANCH   1  10
ATOM      7  C   LIG    1       -0.963   1.260  -2.166  0.00  0.00    +0.280 C 
ATOM      8  N   LIG    1       -0.778  -0.190  -2.078  0.00  0.00    -0.740 N 
ATOM      9  H   LIG    1       -1.336  -0.783  -2.606  0.00  0.00    +0.400 HD
ATOM     10  C   LIG    1        0.166  -0.701  -1.263  0.00  0.00    +0.530 C 
ATOM     11  O   LIG    1        0.862   0.041  -0.603  0.00  0.00    -0.530 OA
ENDBRANCH   1  10
BRANCH   6  12
ATOM     12  N   LIG    1        1.646  -1.571  -3.184  0.00  0.00    -1.120 NA
ATOM     13  H   LIG    1        2.006  -0.763  -2.787  0.00  0.00    +0.420 HD
BRANCH  12  14
ATOM     14  S   LIG    1        1.486  -1.684  -4.829  0.00  0.00    +2.610 S 
ATOM     15  O   LIG    1        2.118  -2.913  -5.159  0.00  0.00    -0.950 OA
ATOM     16  O   LIG    1        1.989  -0.447  -5.316  0.00  0.00    -0.950 OA
ATOM     17  C   LIG    1       -0.304  -1.795  -5.103  0.00  0.00    -0.280 C 
ENDBRANCH  12  14
ENDBRANCH   6  12
TORSDOF 3
ENDMDL
MODEL       52
REMARK  Name = ZINC000072344439
REMARK                            x       y       z     vdW  Elec       q    Type
REMARK                         _______ _______ _______ _____ _____    ______ ____
ROOT
ATOM      1  C   LIG    1       -1.135  -2.201   0.001  0.00  0.00    -0.010 C 
ATOM      2  C   LIG    1       -0.370  -2.669  -1.232  0.00  0.00    +0.200 C 
ATOM      3  N   LIG    1        0.258  -3.905  -0.846  0.00  0.00    -0.690 NA
ATOM      4  H   LIG    1        1.211  -3.944  -1.174  0.00  0.00    +0.350 HD
ATOM      5  C   LIG    1       -0.514  -5.091  -1.307  0.00  0.00    +0.170 C 
ATOM      6  C   LIG    1       -2.033  -4.843  -1.164  0.00  0.00    +0.290 C 
ATOM      7  N   LIG    1       -2.457  -4.187   0.042  0.00  0.00    -0.990 NA
ATOM      8  C   LIG    1       -2.518  -2.686   0.065  0.00  0.00    +0.340 C 
ENDROOT
BRANCH   1  12
ATOM      9  C   LIG    1       -0.018   1.461   0.010  0.00  0.00    +0.280 C 
ATOM     10  N   LIG    1        0.002  -0.004   0.002  0.00  0.00    -0.730 N 
ATOM     11  H   LIG    1        0.849  -0.478  -0.009  0.00  0.00    +0.400 HD
ATOM     12  C   LIG    1       -1.156  -0.694   0.009  0.00  0.00    +0.510 C 
ATOM     13  O   LIG    1       -2.214  -0.102   0.023  0.00  0.00    -0.530 OA
ENDBRANCH   1  12
BRANCH   7  14
ATOM     14  S   LIG    1       -2.872  -5.071   1.379  0.00  0.00    +2.610 S 
ATOM     15  O   LIG    1       -3.293  -6.323   0.856  0.00  0.00    -0.960 OA
ATOM     16  O   LIG    1       -3.775  -4.232   2.087  0.00  0.00    -0.950 OA
ATOM     17  C   LIG    1       -1.320  -5.255   2.300  0.00  0.00    -0.290 C 
ENDBRANCH   7  14
TORSDOF 2
ENDMDL
MODEL       53
REMARK  Name = ZINC000257230778
REMARK                            x       y       z     vdW  Elec       q    Type
REMARK                         _______ _______ _______ _____ _____    ______ ____
ROOT
ATOM      1  C   LIG    1       -1.135  -2.201   0.001  0.00  0.00    +0.090 C 
ATOM      2  C   LIG    1       -2.441  -2.727  -0.606  0.00  0.00    +0.300 C 
ATOM      3  N   LIG    1       -2.320  -4.184  -0.775  0.00  0.00    -0.620 N 
ATOM      4  C   LIG    1       -1.127  -4.703  -1.463  0.00  0.00    +0.250 C 
ATOM      5  C   LIG    1        0.115  -4.081  -0.814  0.00  0.00    +0.230 C 
ATOM      6  C   LIG    1       -3.273  -5.017  -0.314  0.00  0.00    +0.520 C 
ATOM      7  O   LIG    1       -4.250  -4.570   0.249  0.00  0.00    -0.510 OA
ATOM      8  C   LIG    1       -0.992  -2.718   1.434  0.00  0.00    +0.050 C 
ATOM      9  O   LIG    1       -0.033  -2.659  -0.785  0.00  0.00    -0.370 OA
ENDROOT
BRANCH   1  13
ATOM     10  C   LIG    1       -0.018   1.461   0.010  0.00  0.00    +0.280 C 
ATOM     11  N   LIG    1        0.002  -0.004   0.002  0.00  0.00    -0.720 N 
ATOM     12  H   LIG    1        0.849  -0.478  -0.009  0.00  0.00    +0.410 HD
ATOM     13  C   LIG    1       -1.156  -0.694   0.009  0.00  0.00    +0.540 C 
ATOM     14  O   LIG    1       -2.214  -0.102   0.023  0.00  0.00    -0.520 OA
ENDBRANCH   1  13
BRANCH   6  15
ATOM     15  C   LIG    1       -3.127  -6.506  -0.500  0.00  0.00    +0.210 C 
BRANCH  15  16
ATOM     16  N   LIG    1       -4.288  -7.189   0.085  0.00  0.00    -0.530 NA
ATOM     17  C   LIG    1       -4.074  -8.641   0.137  0.00  0.00    +0.200 C 
ATOM     18  C   LIG    1       -5.516  -6.864  -0.653  0.00  0.00    +0.200 C 
ENDBRANCH  15  16
ENDBRANCH   6  15
TORSDOF 3
ENDMDL
MODEL       54
REMARK  Name = ZINC000001590253
REMARK                            x       y       z     vdW  Elec       q    Type
REMARK                         _______ _______ _______ _____ _____    ______ ____
ROOT
ATOM      1  C   UNK A  1        1.479  -2.361  -2.569  0.00  0.00    +0.300 C 
ATOM      2  N   UNK A  1        1.919  -3.720  -2.283  0.00  0.00    -0.700 N 
ATOM      3  H   UNK A  1        2.727  -3.846  -1.763  0.00  0.00    +0.420 HD
ATOM      4  C   ALA A  2        1.256  -4.800  -2.708  0.00  0.00    +0.530 C 
ATOM      5  CA  ALA A  2       -0.001  -4.713  -3.519  0.00  0.00    +0.250 C 
ATOM      6  N   ALA A  2       -0.133  -3.408  -4.152  0.00  0.00    -0.710 N 
ATOM      7  H   ALA A  2       -0.729  -3.319  -4.912  0.00  0.00    +0.420 HD
ATOM      8  CB  ALA A  2       -1.205  -4.949  -2.604  0.00  0.00    +0.070 C 
ATOM      9  O   ALA A  2        1.690  -5.897  -2.424  0.00  0.00    -0.510 OA
ATOM     10  C   UNK A  1        0.533  -2.328  -3.731  0.00  0.00    +0.530 C 
ATOM     11  O   UNK A  1        0.365  -1.278  -4.314  0.00  0.00    -0.500 OA
ENDROOT
BRANCH   1  12
ATOM     12  C   UNK A  1        0.786  -1.801  -1.353  0.00  0.00    +0.450 C 
ATOM     13  O   UNK A  1        0.325  -2.548  -0.523  0.00  0.00    -0.480 OA
BRANCH  12  14
ATOM     14  O   UNK A  1        0.682  -0.472  -1.193  0.00  0.00    -0.340 OA
BRANCH  14  16
ATOM     15  C   UNK A  1       -0.019   1.526   0.010  0.00  0.00    +0.070 C 
ATOM     16  C   UNK A  1        0.002  -0.004   0.002  0.00  0.00    +0.200 C 
ENDBRANCH  14  16
ENDBRANCH  12  14
ENDBRANCH   1  12
TORSDOF 3
ENDMDL
MODEL       55
REMARK  Name = ZINC000001855302
REMARK                            x       y       z     vdW  Elec       q    Type
REMARK                         _______ _______ _______ _____ _____    ______ ____
ROOT
ATOM      1  C   LIG    1       -0.019   1.526   0.010  0.00  0.00    +0.040 C 
ATOM      2  C   LIG    1        0.002  -0.004   0.002  0.00  0.00    +0.350 C 
ATOM      3  N   LIG    1        0.629  -0.462  -1.232  0.00  0.00    -0.510 NA
ATOM      4  C   LIG    1        1.907  -0.729  -1.340  0.00  0.00    +0.270 C 
ATOM      5  C   LIG    1        2.721  -0.620  -0.121  0.00  0.00    -0.100 A 
ATOM      6  C   LIG    1        2.096  -0.502   1.128  0.00  0.00    +0.330 A 
ATOM      7  N   LIG    1        3.077  -0.430   2.045  0.00  0.00    -0.310 N 
ATOM      8  C   LIG    1        4.270  -0.496   1.374  0.00  0.00    +0.340 A 
ATOM      9  N   LIG    1        4.045  -0.607   0.091  0.00  0.00    -0.390 NA
ATOM     10  C   LIG    1       -1.438  -0.520   0.046  0.00  0.00    +0.090 C 
ATOM     11  N   LIG    1        0.716  -0.478   1.198  0.00  0.00    -0.720 N 
ATOM     12  H   LIG    1        0.242  -0.760   1.996  0.00  0.00    +0.410 HD
ENDROOT
BRANCH   4  13
ATOM     13  C   LIG    1        2.509  -1.126  -2.640  0.00  0.00    +0.570 C 
ATOM     14  O   LIG    1        3.697  -1.368  -2.711  0.00  0.00    -0.500 OA
ATOM     15  N   LIG    1        1.736  -1.217  -3.741  0.00  0.00    -0.840 N 
ATOM     16  H   LIG    1        2.128  -1.476  -4.589  0.00  0.00    +0.410 HD
ATOM     17  H   LIG    1        0.787  -1.024  -3.684  0.00  0.00    +0.410 HD
ENDBRANCH   4  13
BRANCH   7  18
ATOM     18  N   LIG    1        2.914  -0.314   3.396  0.00  0.00    -0.600 N 
ATOM     19  H   LIG    1        3.651   0.244   3.802  0.00  0.00    +0.380 HD
ATOM     20  H   LIG    1        2.865  -1.221   3.834  0.00  0.00    +0.360 HD
ENDBRANCH   7  18
TORSDOF 2
ENDMDL
MODEL       56
REMARK  Name = ZINC000072344440
REMARK                            x       y       z     vdW  Elec       q    Type
REMARK                         _______ _______ _______ _____ _____    ______ ____
ROOT
ATOM      1  C   LIG    1       -1.135  -2.201   0.001  0.00  0.00    -0.050 C 
ATOM      2  C   LIG    1       -0.402  -2.701   1.226  0.00  0.00    +0.240 C 
ATOM      3  N   LIG    1        0.285  -3.949   0.896  0.00  0.00    -0.700 NA
ATOM      4  H   LIG    1        0.709  -3.897  -0.018  0.00  0.00    +0.350 HD
ATOM      5  C   LIG    1       -0.469  -5.137   1.038  0.00  0.00    +0.220 C 
ATOM      6  C   LIG    1       -1.663  -5.127   0.054  0.00  0.00    +0.240 C 
ATOM      7  N   LIG    1       -2.631  -4.133   0.471  0.00  0.00    -0.990 NA
ATOM      8  C   LIG    1       -2.579  -2.732   0.010  0.00  0.00    +0.320 C 
ENDROOT
BRANCH   1  12
ATOM      9  C   LIG    1       -0.018   1.461   0.010  0.00  0.00    +0.280 C 
ATOM     10  N   LIG    1        0.002  -0.004   0.002  0.00  0.00    -0.730 N 
ATOM     11  H   LIG    1        0.849  -0.478  -0.009  0.00  0.00    +0.400 HD
ATOM     12  C   LIG    1       -1.156  -0.694   0.009  0.00  0.00    +0.520 C 
ATOM     13  O   LIG    1       -2.214  -0.102   0.023  0.00  0.00    -0.530 OA
ENDBRANCH   1  12
BRANCH   7  14
ATOM     14  S   LIG    1       -3.843  -4.587   1.504  0.00  0.00    +2.600 S 
ATOM     15  O   LIG    1       -4.003  -5.979   1.268  0.00  0.00    -0.950 OA
ATOM     16  O   LIG    1       -4.896  -3.672   1.233  0.00  0.00    -0.950 OA
ATOM     17  C   LIG    1       -3.159  -4.297   3.159  0.00  0.00    -0.290 C 
ENDBRANCH   7  14
TORSDOF 2
ENDMDL
MODEL       57
REMARK  Name = ZINC000257230779
REMARK                            x       y       z     vdW  Elec       q    Type
REMARK                         _______ _______ _______ _____ _____    ______ ____
ROOT
ATOM      1  C   LIG    1       -1.135  -2.201   0.001  0.00  0.00    +0.090 C 
ATOM      2  C   LIG    1       -2.429  -2.734   0.627  0.00  0.00    +0.310 C 
ATOM      3  N   LIG    1       -2.426  -2.395   2.059  0.00  0.00    -0.620 N 
ATOM      4  C   LIG    1       -1.232  -2.740   2.848  0.00  0.00    +0.240 C 
ATOM      5  C   LIG    1        0.003  -2.206   2.114  0.00  0.00    +0.220 C 
ATOM      6  C   LIG    1       -3.484  -1.788   2.631  0.00  0.00    +0.520 C 
ATOM      7  O   LIG    1       -4.458  -1.512   1.964  0.00  0.00    -0.500 OA
ATOM      8  C   LIG    1       -1.019  -2.702  -1.440  0.00  0.00    +0.090 C 
ATOM      9  O   LIG    1       -0.018  -2.667   0.761  0.00  0.00    -0.360 OA
ENDROOT
BRANCH   1  13
ATOM     10  C   LIG    1       -0.018   1.461   0.010  0.00  0.00    +0.290 C 
ATOM     11  N   LIG    1        0.002  -0.004   0.002  0.00  0.00    -0.730 N 
ATOM     12  H   LIG    1        0.849  -0.478  -0.009  0.00  0.00    +0.410 HD
ATOM     13  C   LIG    1       -1.156  -0.694   0.009  0.00  0.00    +0.490 C 
ATOM     14  O   LIG    1       -2.214  -0.102   0.023  0.00  0.00    -0.510 OA
ENDBRANCH   1  13
BRANCH   6  15
ATOM     15  C   LIG    1       -3.457  -1.451   4.100  0.00  0.00    +0.200 C 
BRANCH  15  16
ATOM     16  N   LIG    1       -4.718  -0.799   4.476  0.00  0.00    -0.530 NA
ATOM     17  C   LIG    1       -4.639  -0.245   5.835  0.00  0.00    +0.190 C 
ATOM     18  C   LIG    1       -5.849  -1.729   4.352  0.00  0.00    +0.200 C 
ENDBRANCH  15  16
ENDBRANCH   6  15
TORSDOF 3
ENDMDL
MODEL       58
REMARK  Name = ZINC000253495431
REMARK                            x       y       z     vdW  Elec       q    Type
REMARK                         _______ _______ _______ _____ _____    ______ ____
ROOT
ATOM      1  N   LIG    1       -0.798  -2.472  -1.203  0.00  0.00    -0.510 NA
ATOM      2  C   LIG    1       -1.673  -1.567  -0.446  0.00  0.00    +0.140 C 
ATOM      3  C   LIG    1       -3.131  -1.951  -0.721  0.00  0.00    +0.240 C 
ATOM      4  N   LIG    1       -3.349  -3.333  -0.279  0.00  0.00    -0.680 NA
ATOM      5  H   LIG    1       -3.224  -3.418   0.719  0.00  0.00    +0.340 HD
ATOM      6  C   LIG    1       -2.483  -4.277  -1.001  0.00  0.00    +0.230 C 
ATOM      7  C   LIG    1       -2.665  -5.670  -0.354  0.00  0.00    -0.280 C 
ATOM      8  S   LIG    1       -1.403  -5.745   0.969  0.00  0.00    +2.390 S 
ATOM      9  C   LIG    1       -0.633  -4.114   0.637  0.00  0.00    -0.360 C 
ATOM     10  O   LIG    1       -0.472  -6.778   0.673  0.00  0.00    -0.930 OA
ATOM     11  O   LIG    1       -2.046  -5.714   2.236  0.00  0.00    -0.930 OA
ATOM     12  C   LIG    1       -1.012  -3.869  -0.842  0.00  0.00    +0.170 C 
ENDROOT
BRANCH   1  13
ATOM     13  C   LIG    1        0.613  -2.097  -1.041  0.00  0.00    +0.200 C 
BRANCH  13  14
ATOM     14  C   LIG    1        1.465  -2.871  -2.049  0.00  0.00    +0.170 C 
BRANCH  14  16
ATOM     15  C   LIG    1        1.837  -3.159  -4.399  0.00  0.00    +0.200 C 
ATOM     16  O   LIG    1        1.097  -2.490  -3.376  0.00  0.00    -0.370 OA
ENDBRANCH  14  16
ENDBRANCH  13  14
ENDBRANCH   1  13
TORSDOF 3
ENDMDL
MODEL       59
REMARK  Name = ZINC000253495434
REMARK                            x       y       z     vdW  Elec       q    Type
REMARK                         _______ _______ _______ _____ _____    ______ ____
ROOT
ATOM      1  N   LIG    1       -0.737  -2.669  -1.131  0.00  0.00    -0.510 NA
ATOM      2  C   LIG    1       -1.686  -1.921  -0.286  0.00  0.00    +0.150 C 
ATOM      3  C   LIG    1       -3.088  -2.516  -0.393  0.00  0.00    +0.230 C 
ATOM      4  N   LIG    1       -3.072  -3.953  -0.062  0.00  0.00    -0.660 NA
ATOM      5  H   LIG    1       -2.815  -4.099   0.903  0.00  0.00    +0.340 HD
ATOM      6  C   LIG    1       -2.149  -4.646  -0.961  0.00  0.00    +0.200 C 
ATOM      7  C   LIG    1       -2.058  -6.157  -0.673  0.00  0.00    -0.290 C 
ATOM      8  S   LIG    1       -0.494  -6.611  -1.526  0.00  0.00    +2.390 S 
ATOM      9  C   LIG    1        0.263  -4.941  -1.504  0.00  0.00    -0.290 C 
ATOM     10  O   LIG    1       -0.780  -6.985  -2.867  0.00  0.00    -0.930 OA
ATOM     11  O   LIG    1        0.260  -7.482  -0.694  0.00  0.00    -0.930 OA
ATOM     12  C   LIG    1       -0.737  -4.075  -0.730  0.00  0.00    +0.140 C 
ENDROOT
BRANCH   1  13
ATOM     13  C   LIG    1        0.613  -2.097  -1.041  0.00  0.00    +0.240 C 
BRANCH  13  14
ATOM     14  C   LIG    1        0.955  -1.824   0.425  0.00  0.00    +0.140 C 
BRANCH  14  16
ATOM     15  C   LIG    1        1.338  -2.918   2.523  0.00  0.00    +0.200 C 
ATOM     16  O   LIG    1        1.024  -3.061   1.137  0.00  0.00    -0.390 OA
ENDBRANCH  14  16
ENDBRANCH  13  14
ENDBRANCH   1  13
TORSDOF 3
ENDMDL
MODEL       60
REMARK  Name = ZINC000253495433
REMARK                            x       y       z     vdW  Elec       q    Type
REMARK                         _______ _______ _______ _____ _____    ______ ____
ROOT
ATOM      1  N   LIG    1       -0.780  -2.557  -1.119  0.00  0.00    -0.510 NA
ATOM      2  C   LIG    1       -1.339  -2.322  -2.463  0.00  0.00    +0.190 C 
ATOM      3  C   LIG    1       -2.793  -2.788  -2.532  0.00  0.00    +0.190 C 
ATOM      4  N   LIG    1       -2.907  -4.201  -2.128  0.00  0.00    -0.670 NA
ATOM      5  H   LIG    1       -3.864  -4.516  -2.178  0.00  0.00    +0.350 HD
ATOM      6  C   LIG    1       -2.373  -4.363  -0.777  0.00  0.00    +0.170 C 
ATOM      7  C   LIG    1       -2.477  -5.794  -0.243  0.00  0.00    -0.300 C 
ATOM      8  S   LIG    1       -1.065  -5.953   0.916  0.00  0.00    +2.390 S 
ATOM      9  C   LIG    1       -0.341  -4.291   0.612  0.00  0.00    -0.290 C 
ATOM     10  O   LIG    1       -0.174  -6.952   0.440  0.00  0.00    -0.930 OA
ATOM     11  O   LIG    1       -1.554  -6.017   2.249  0.00  0.00    -0.930 OA
ATOM     12  C   LIG    1       -0.880  -3.980  -0.795  0.00  0.00    +0.160 C 
ENDROOT
BRANCH   1  13
ATOM     13  C   LIG    1        0.613  -2.097  -1.041  0.00  0.00    +0.200 C 
BRANCH  13  14
ATOM     14  C   LIG    1        0.652  -0.570  -1.138  0.00  0.00    +0.170 C 
BRANCH  14  16
ATOM     15  C   LIG    1       -0.017   1.425   0.010  0.00  0.00    +0.200 C 
ATOM     16  O   LIG    1        0.002  -0.004   0.002  0.00  0.00    -0.380 OA
ENDBRANCH  14  16
ENDBRANCH  13  14
ENDBRANCH   1  13
TORSDOF 3
ENDMDL
MODEL       61
REMARK  Name = ZINC000257217807
REMARK                            x       y       z     vdW  Elec       q    Type
REMARK                         _______ _______ _______ _____ _____    ______ ____
ROOT
ATOM      1  N   LIG    1        1.403  -2.533  -0.165  0.00  0.00    -0.500 NA
ATOM      2  C   LIG    1        2.862  -2.375   0.068  0.00  0.00    +0.150 C 
ATOM      3  C   LIG    1        3.494  -3.320  -0.984  0.00  0.00    +0.180 C 
ATOM      4  C   LIG    1        2.520  -4.521  -1.000  0.00  0.00    +0.260 C 
ATOM      5  C   LIG    1        1.193  -3.970  -0.446  0.00  0.00    +0.180 C 
ENDROOT
BRANCH   4   6
ATOM      6  N   LIG    1        2.338  -5.010  -2.369  0.00  0.00    -0.720 N 
ATOM      7  H   LIG    1        2.481  -4.413  -3.120  0.00  0.00    +0.400 HD
ATOM      8  C   LIG    1        1.973  -6.289  -2.584  0.00  0.00    +0.520 C 
ATOM      9  O   LIG    1        1.795  -7.035  -1.645  0.00  0.00    -0.510 OA
BRANCH   8  10
ATOM     10  C   LIG    1        1.785  -6.792  -3.992  0.00  0.00    +0.200 C 
BRANCH  10  11
ATOM     11  O   LIG    1        1.401  -8.168  -3.959  0.00  0.00    -0.370 OA
ATOM     12  C   LIG    1        1.196  -8.746  -5.250  0.00  0.00    +0.210 C 
ENDBRANCH  10  11
ENDBRANCH   8  10
ENDBRANCH   4   6
BRANCH   3  13
ATOM     13  O   LIG    1        4.801  -3.729  -0.577  0.00  0.00    -0.560 OA
ATOM     14  H   LIG    1        5.428  -3.000  -0.478  0.00  0.00    +0.380 HD
ENDBRANCH   3  13
BRANCH   1  15
ATOM     15  C   LIG    1        0.633  -2.108   1.011  0.00  0.00    +0.200 C 
BRANCH  15  16
ATOM     16  C   LIG    1        0.673  -0.582   1.123  0.00  0.00    +0.170 C 
BRANCH  16  18
ATOM     17  C   LIG    1       -0.017   1.425   0.010  0.00  0.00    +0.200 C 
ATOM     18  O   LIG    1        0.002  -0.004   0.002  0.00  0.00    -0.380 OA
ENDBRANCH  16  18
ENDBRANCH  15  16
ENDBRANCH   1  15
TORSDOF 7
ENDMDL
MODEL       62
REMARK  Name = ZINC000001596849
REMARK                            x       y       z     vdW  Elec       q    Type
REMARK                         _______ _______ _______ _____ _____    ______ ____
ROOT
ATOM      1  C   LIG    1       -0.018   1.461   0.010  0.00  0.00    +0.340 C 
ATOM      2  N   LIG    1        0.002  -0.004   0.002  0.00  0.00    -0.520 N 
ATOM      3  C   LIG    1       -1.185  -0.700   0.004  0.00  0.00    +0.280 A 
ATOM      4  C   LIG    1       -1.156  -2.089  -0.004  0.00  0.00    -0.090 A 
ATOM      5  C   LIG    1        0.147  -2.756  -0.014  0.00  0.00    +0.600 A 
ATOM      6  N   LIG    1        1.262  -1.993  -0.015  0.00  0.00    -0.550 N 
ATOM      7  C   LIG    1        2.578  -2.637  -0.025  0.00  0.00    +0.350 C 
ATOM      8  O   LIG    1        0.225  -3.971  -0.021  0.00  0.00    -0.480 OA
ATOM      9  N   LIG    1       -2.440  -2.521   0.001  0.00  0.00    -0.400 NA
ATOM     10  C   LIG    1       -3.235  -1.491   0.010  0.00  0.00    +0.230 A 
ATOM     11  N   LIG    1       -2.497  -0.344   0.013  0.00  0.00    -0.540 N 
ATOM     12  H   LIG    1       -2.844   0.562   0.020  0.00  0.00    +0.430 HD
ATOM     13  C   LIG    1        1.180  -0.652  -0.013  0.00  0.00    +0.720 A 
ATOM     14  O   LIG    1        2.208  -0.002  -0.014  0.00  0.00    -0.530 OA
ENDROOT
BRANCH  10  15
ATOM     15  C   LIG    1       -4.741  -1.556   0.018  0.00  0.00    +0.320 C 
BRANCH  15  16
ATOM     16  N   LIG    1       -5.232  -1.689  -1.360  0.00  0.00    -0.850 NA
ATOM     17  H   LIG    1       -6.240  -1.734  -1.382  0.00  0.00    +0.360 HD
ATOM     18  H   LIG    1       -4.824  -2.493  -1.813  0.00  0.00    +0.350 HD
ENDBRANCH  15  16
ENDBRANCH  10  15
TORSDOF 2
ENDMDL
MODEL       63
REMARK  Name = ZINC000036730059
REMARK                            x       y       z     vdW  Elec       q    Type
REMARK                         _______ _______ _______ _____ _____    ______ ____
ROOT
ATOM      1  C   LIG    1       -0.126  -0.238  -2.404  0.00  0.00    +0.190 C 
ATOM      2  C   LIG    1       -1.456  -0.985  -2.276  0.00  0.00    +0.290 C 
ATOM      3  O   LIG    1       -2.224  -0.797  -3.466  0.00  0.00    -0.390 OA
ATOM      4  C   LIG    1       -1.597  -1.297  -4.649  0.00  0.00    +0.150 C 
ATOM      5  C   LIG    1       -0.273  -0.563  -4.873  0.00  0.00    +0.120 C 
ATOM      6  C   LIG    1        0.620  -0.746  -3.642  0.00  0.00    +0.200 C 
ENDROOT
BRANCH   5   7
ATOM      7  O   LIG    1       -0.527   0.829  -5.077  0.00  0.00    -0.540 OA
ATOM      8  H   LIG    1       -1.090   1.018  -5.839  0.00  0.00    +0.380 HD
ENDBRANCH   5   7
BRANCH   2   9
ATOM      9  O   LIG    1       -2.182  -0.475  -1.155  0.00  0.00    -0.530 OA
ATOM     10  H   LIG    1       -3.038  -0.903  -1.013  0.00  0.00    +0.380 HD
ENDBRANCH   2   9
BRANCH   6  11
ATOM     11  O   LIG    1        1.829  -0.005  -3.814  0.00  0.00    -0.530 OA
ATOM     12  H   LIG    1        2.349  -0.272  -4.584  0.00  0.00    +0.380 HD
ENDBRANCH   6  11
BRANCH   1  13
ATOM     13  N   LIG    1        0.690  -0.478  -1.207  0.00  0.00    -0.510 NA
BRANCH  13  15
ATOM     14  C   LIG    1        0.235   1.780  -0.374  0.00  0.00    +0.030 C 
ATOM     15  C   LIG    1        0.177   0.283  -0.059  0.00  0.00    +0.180 C 
ENDBRANCH  13  15
BRANCH  13  16
ATOM     16  C   LIG    1        0.761  -1.912  -0.897  0.00  0.00    +0.150 C 
ATOM     17  C   LIG    1        1.809  -2.147   0.193  0.00  0.00    +0.030 C 
ENDBRANCH  13  16
ENDBRANCH   1  13
BRANCH   4  18
ATOM     18  C   LIG    1       -2.518  -1.068  -5.850  0.00  0.00    +0.210 C 
BRANCH  18  19
ATOM     19  O   LIG    1       -3.707  -1.845  -5.694  0.00  0.00    -0.560 OA
ATOM     20  H   LIG    1       -4.338  -1.749  -6.420  0.00  0.00    +0.390 HD
ENDBRANCH  18  19
ENDBRANCH   4  18
TORSDOF 8
ENDMDL
MODEL       64
REMARK  Name = ZINC000225765608
REMARK                            x       y       z     vdW  Elec       q    Type
REMARK                         _______ _______ _______ _____ _____    ______ ____
ROOT
ATOM      1  CA  LIG    1       -1.330   1.951   0.019  0.00  0.00    +0.100 C 
ATOM      2  C   LIG    1       -1.844   2.154  -1.422  0.00  0.00    +0.090 C 
ATOM      3  C   LIG    1       -3.374   1.977  -1.331  0.00  0.00    +0.090 C 
ATOM      4  C   LIG    1       -3.655   1.682   0.158  0.00  0.00    +0.170 C 
ATOM      5  N   LIG    1       -2.377   1.131   0.681  0.00  0.00    -0.480 N 
ATOM      6  H1  LIG    1       -2.332   1.234   1.683  0.00  0.00    +0.430 HD
ATOM      7  H2  LIG    1       -2.279   0.161   0.421  0.00  0.00    +0.440 HD
ENDROOT
BRANCH   4   8
ATOM      8  C   LIG    1       -4.762   0.669   0.293  0.00  0.00    +0.510 C 
ATOM      9  N   LIG    1       -5.992   0.948  -0.182  0.00  0.00    -0.590 N 
ATOM     10  C   LIG    1       -6.274   2.232  -0.841  0.00  0.00    +0.280 C 
ATOM     11  C   LIG    1       -7.515   2.851  -0.191  0.00  0.00    +0.180 C 
ATOM     12  N   LIG    1       -8.617   1.881  -0.225  0.00  0.00    -0.690 NA
ATOM     13  H   LIG    1       -9.479   2.302   0.089  0.00  0.00    +0.350 HD
ATOM     14  C   LIG    1       -8.298   0.683   0.564  0.00  0.00    +0.180 C 
ATOM     15  C   LIG    1       -7.087  -0.027  -0.061  0.00  0.00    +0.300 C 
ATOM     16  O   LIG    1       -4.547  -0.398   0.829  0.00  0.00    -0.520 OA
ENDBRANCH   4   8
BRANCH   1  18
ATOM     17  O   LIG    1        0.002  -0.004   0.002  0.00  0.00    -0.660 OA
ATOM     18  C   LIG    1       -0.015   1.215   0.009  0.00  0.00    +0.490 C 
ATOM     19  OXT LIG    1        1.033   1.839   0.002  0.00  0.00    -0.640 OA
ENDBRANCH   1  18
TORSDOF 2
ENDMDL
MODEL       65
REMARK  Name = ZINC000225765471
REMARK                            x       y       z     vdW  Elec       q    Type
REMARK                         _______ _______ _______ _____ _____    ______ ____
ROOT
ATOM      1  CA  LIG    1       -1.318   1.194   0.515  0.00  0.00    +0.090 C 
ATOM      2  C   LIG    1       -1.443   1.926  -0.845  0.00  0.00    +0.090 C 
ATOM      3  C   LIG    1       -2.898   2.460  -0.780  0.00  0.00    +0.090 C 
ATOM      4  C   LIG    1       -3.648   1.338  -0.033  0.00  0.00    +0.160 C 
ATOM      5  N   LIG    1       -2.643   0.579   0.738  0.00  0.00    -0.480 N 
ATOM      6  H1  LIG    1       -2.873   0.612   1.720  0.00  0.00    +0.430 HD
ATOM      7  H2  LIG    1       -2.628  -0.380   0.424  0.00  0.00    +0.440 HD
ENDROOT
BRANCH   4   8
ATOM      8  C   LIG    1       -4.667   1.936   0.902  0.00  0.00    +0.510 C 
ATOM      9  N   LIG    1       -5.872   2.314   0.431  0.00  0.00    -0.590 N 
ATOM     10  C   LIG    1       -6.256   2.048  -0.964  0.00  0.00    +0.280 C 
ATOM     11  C   LIG    1       -6.755   3.354  -1.589  0.00  0.00    +0.180 C 
ATOM     12  N   LIG    1       -7.820   3.920  -0.750  0.00  0.00    -0.690 NA
ATOM     13  H   LIG    1       -8.249   4.716  -1.197  0.00  0.00    +0.360 HD
ATOM     14  C   LIG    1       -7.316   4.273   0.584  0.00  0.00    +0.180 C 
ATOM     15  C   LIG    1       -6.842   2.998   1.300  0.00  0.00    +0.300 C 
ATOM     16  O   LIG    1       -4.404   2.078   2.077  0.00  0.00    -0.520 OA
ENDBRANCH   4   8
BRANCH   1  18
ATOM     17  O   LIG    1       -0.532  -0.988   0.049  0.00  0.00    -0.670 OA
ATOM     18  C   LIG    1       -0.252   0.132   0.443  0.00  0.00    +0.490 C 
ATOM     19  OXT LIG    1        0.893   0.393   0.773  0.00  0.00    -0.630 OA
ENDBRANCH   1  18
TORSDOF 2
ENDMDL
MODEL       66
REMARK  Name = ZINC000257243634
REMARK                            x       y       z     vdW  Elec       q    Type
REMARK                         _______ _______ _______ _____ _____    ______ ____
ROOT
ATOM      1  C   LIG    1       -1.136  -2.159   0.001  0.00  0.00    +0.260 C 
ATOM      2  C   LIG    1       -1.132  -2.706  -1.448  0.00  0.00    +0.280 C 
ATOM      3  N   LIG    1       -1.714  -4.056  -1.343  0.00  0.00    -0.620 N 
ATOM      4  C   LIG    1       -2.556  -4.115  -0.139  0.00  0.00    +0.220 C 
ATOM      5  C   LIG    1       -1.507  -5.070  -2.207  0.00  0.00    +0.610 C 
ATOM      6  O   LIG    1       -0.787  -4.908  -3.174  0.00  0.00    -0.510 OA
ATOM      7  C   LIG    1       -2.468  -2.736   0.549  0.00  0.00    +0.180 C 
ENDROOT
BRANCH   5   8
ATOM      8  C   LIG    1       -2.154  -6.372  -1.981  0.00  0.00    -0.040 A 
ATOM      9  C   LIG    1       -2.038  -7.505  -2.768  0.00  0.00    +0.020 A 
ATOM     10  C   LIG    1       -2.831  -8.471  -2.146  0.00  0.00    +0.190 A 
ATOM     11  N   LIG    1       -3.361  -7.929  -1.079  0.00  0.00    -0.270 NA
ATOM     12  N   LIG    1       -2.983  -6.708  -0.950  0.00  0.00    -0.380 N 
ATOM     13  H   LIG    1       -3.252  -6.113  -0.232  0.00  0.00    +0.440 HD
ENDBRANCH   5   8
BRANCH   1  16
ATOM     14  C   LIG    1       -0.018   1.503   0.010  0.00  0.00    +0.110 C 
ATOM     15  C   LIG    1        0.002  -0.004   0.002  0.00  0.00    +0.510 C 
ATOM     16  N   LIG    1       -1.156  -0.694   0.009  0.00  0.00    -0.720 N 
ATOM     17  H   LIG    1       -2.002  -0.220   0.020  0.00  0.00    +0.410 HD
ATOM     18  O   LIG    1        1.060  -0.596  -0.011  0.00  0.00    -0.540 OA
ENDBRANCH   1  16
BRANCH   7  19
ATOM     19  O   LIG    1       -2.414  -2.883   1.970  0.00  0.00    -0.550 OA
ATOM     20  H   LIG    1       -3.194  -3.309   2.351  0.00  0.00    +0.390 HD
ENDBRANCH   7  19
TORSDOF 3
ENDMDL
MODEL       67
REMARK  Name = ZINC000013815079
REMARK                            x       y       z     vdW  Elec       q    Type
REMARK                         _______ _______ _______ _____ _____    ______ ____
ROOT
ATOM      1  C   LIG    1       -1.413  -2.059   0.130  0.00  0.00    +0.220 C 
ATOM      2  C   LIG    1       -2.851  -2.599   0.124  0.00  0.00    +0.290 C 
ATOM      3  N   LIG    1       -3.463  -2.271  -1.171  0.00  0.00    -0.710 N 
ATOM      4  H   LIG    1       -4.359  -1.901  -1.212  0.00  0.00    +0.410 HD
ATOM      5  C   LIG    1       -2.742  -2.496  -2.333  0.00  0.00    +0.410 A 
ATOM      6  C   LIG    1       -1.368  -2.678  -2.269  0.00  0.00    -0.100 A 
ATOM      7  C   LIG    1       -0.656  -2.900  -3.453  0.00  0.00    +0.540 A 
ATOM      8  N   LIG    1       -1.336  -2.931  -4.619  0.00  0.00    -0.650 N 
ATOM      9  H   LIG    1       -0.863  -3.083  -5.452  0.00  0.00    +0.410 HD
ATOM     10  C   LIG    1       -2.685  -2.749  -4.628  0.00  0.00    +0.630 A 
ATOM     11  O   LIG    1        0.555  -3.064  -3.432  0.00  0.00    -0.550 OA
ATOM     12  N   LIG    1       -3.361  -2.539  -3.519  0.00  0.00    -0.590 NA
ATOM     13  N   LIG    1       -0.704  -2.637  -1.022  0.00  0.00    -0.720 N 
ATOM     14  H   LIG    1        0.198  -2.983  -0.929  0.00  0.00    +0.410 HD
ENDROOT
BRANCH  10  15
ATOM     15  N   LIG    1       -3.357  -2.787  -5.824  0.00  0.00    -0.830 N 
ATOM     16  H   LIG    1       -4.318  -2.659  -5.844  0.00  0.00    +0.430 HD
ATOM     17  H   LIG    1       -2.871  -2.941  -6.649  0.00  0.00    +0.410 HD
ENDBRANCH  10  15
BRANCH   1  18
ATOM     18  C   LIG    1       -1.433  -0.534   0.013  0.00  0.00    +0.180 C 
BRANCH  18  20
ATOM     19  C   LIG    1       -0.019   1.526   0.010  0.00  0.00    +0.010 C 
ATOM     20  C   LIG    1        0.002  -0.004   0.002  0.00  0.00    +0.190 C 
BRANCH  20  21
ATOM     21  O   LIG    1        0.693  -0.477   1.160  0.00  0.00    -0.560 OA
ATOM     22  H   LIG    1        0.294  -0.202   1.996  0.00  0.00    +0.370 HD
ENDBRANCH  20  21
ENDBRANCH  18  20
BRANCH  18  23
ATOM     23  O   LIG    1       -2.137   0.021   1.126  0.00  0.00    -0.550 OA
ATOM     24  H   LIG    1       -1.747  -0.195   1.985  0.00  0.00    +0.370 HD
ENDBRANCH  18  23
ENDBRANCH   1  18
TORSDOF 5
ENDMDL
MODEL       68
REMARK  Name = ZINC000257221706
REMARK                            x       y       z     vdW  Elec       q    Type
REMARK                         _______ _______ _______ _____ _____    ______ ____
ROOT
ATOM      1  C   LIG    1        1.467  -2.260  -2.550  0.00  0.00    +0.510 C 
ATOM      2  N   LIG    1        1.657  -3.557  -2.862  0.00  0.00    -0.600 N 
ATOM      3  C   LIG    1        1.139  -4.589  -1.939  0.00  0.00    +0.270 C 
ATOM      4  C   LIG    1        0.484  -5.755  -2.703  0.00  0.00    +0.180 C 
ATOM      5  N   LIG    1       -0.277  -5.238  -3.820  0.00  0.00    -0.540 NA
ATOM      6  C   LIG    1        0.529  -5.245  -5.040  0.00  0.00    +0.190 C 
ATOM      7  C   LIG    1        1.338  -4.027  -5.243  0.00  0.00    -0.010 C 
ATOM      8  C   LIG    1       -1.520  -5.998  -4.007  0.00  0.00    +0.200 C 
ATOM      9  C   LIG    1        2.353  -3.878  -4.088  0.00  0.00    +0.320 C 
ATOM     10  O   LIG    1        1.877  -1.392  -3.291  0.00  0.00    -0.510 OA
ENDROOT
BRANCH   7  11
ATOM     11  C   LIG    1        2.078  -4.129  -6.552  0.00  0.00    +0.530 C 
ATOM     12  O   LIG    1        3.290  -4.092  -6.568  0.00  0.00    -0.540 OA
ATOM     13  N   LIG    1        1.392  -4.261  -7.705  0.00  0.00    -0.850 N 
ATOM     14  H   LIG    1        1.869  -4.326  -8.547  0.00  0.00    +0.400 HD
ATOM     15  H   LIG    1        0.423  -4.290  -7.692  0.00  0.00    +0.400 HD
ENDBRANCH   7  11
BRANCH   1  16
ATOM     16  C   LIG    1        0.746  -1.888  -1.280  0.00  0.00    +0.210 C 
BRANCH  16  17
ATOM     17  O   LIG    1        0.671  -0.465  -1.174  0.00  0.00    -0.370 OA
BRANCH  17  19
ATOM     18  C   LIG    1       -0.019   1.526   0.010  0.00  0.00    +0.040 C 
ATOM     19  C   LIG    1        0.002  -0.004   0.002  0.00  0.00    +0.160 C 
ENDBRANCH  17  19
ENDBRANCH  16  17
ENDBRANCH   1  16
TORSDOF 4
ENDMDL
MODEL       69
REMARK  Name = ZINC000257221705
REMARK                            x       y       z     vdW  Elec       q    Type
REMARK                         _______ _______ _______ _____ _____    ______ ____
ROOT
ATOM      1  C   LIG    1        1.467  -2.260  -2.550  0.00  0.00    +0.510 C 
ATOM      2  N   LIG    1        1.657  -3.557  -2.862  0.00  0.00    -0.600 N 
ATOM      3  C   LIG    1        1.139  -4.589  -1.939  0.00  0.00    +0.270 C 
ATOM      4  C   LIG    1        2.146  -5.740  -1.755  0.00  0.00    +0.180 C 
ATOM      5  N   LIG    1        3.488  -5.205  -1.673  0.00  0.00    -0.540 NA
ATOM      6  C   LIG    1        4.128  -5.214  -2.988  0.00  0.00    +0.190 C 
ATOM      7  C   LIG    1        3.874  -4.005  -3.796  0.00  0.00    -0.010 C 
ATOM      8  C   LIG    1        4.291  -5.948  -0.692  0.00  0.00    +0.200 C 
ATOM      9  C   LIG    1        2.353  -3.878  -4.088  0.00  0.00    +0.320 C 
ATOM     10  O   LIG    1        1.877  -1.392  -3.291  0.00  0.00    -0.510 OA
ENDROOT
BRANCH   7  11
ATOM     11  C   LIG    1        4.626  -4.107  -5.098  0.00  0.00    +0.530 C 
ATOM     12  O   LIG    1        4.022  -4.085  -6.150  0.00  0.00    -0.540 OA
ATOM     13  N   LIG    1        5.969  -4.221  -5.094  0.00  0.00    -0.850 N 
ATOM     14  H   LIG    1        6.453  -4.286  -5.933  0.00  0.00    +0.400 HD
ATOM     15  H   LIG    1        6.452  -4.238  -4.253  0.00  0.00    +0.400 HD
ENDBRANCH   7  11
BRANCH   1  16
ATOM     16  C   LIG    1        0.746  -1.888  -1.280  0.00  0.00    +0.210 C 
BRANCH  16  17
ATOM     17  O   LIG    1        0.671  -0.465  -1.174  0.00  0.00    -0.370 OA
BRANCH  17  19
ATOM     18  C   LIG    1       -0.019   1.526   0.010  0.00  0.00    +0.040 C 
ATOM     19  C   LIG    1        0.002  -0.004   0.002  0.00  0.00    +0.160 C 
ENDBRANCH  17  19
ENDBRANCH  16  17
ENDBRANCH   1  16
TORSDOF 4
ENDMDL
MODEL       70
REMARK  Name = ZINC000006861655
REMARK                            x       y       z     vdW  Elec       q    Type
REMARK                         _______ _______ _______ _____ _____    ______ ____
ROOT
ATOM      1  O   LIG    1        1.612   2.782   1.986  0.00  0.00    -0.500 OA
ATOM      2  C   LIG    1        0.834   2.679   1.058  0.00  0.00    +0.620 C 
ATOM      3  N   LIG    1        1.143   1.901   0.001  0.00  0.00    -0.620 N 
ATOM      4  H   LIG    1        0.494   1.762  -0.705  0.00  0.00    +0.430 HD
ENDROOT
BRANCH   3   5
ATOM      5  C   LIG    1        2.407   1.293  -0.076  0.00  0.00    -0.030 A 
ATOM      6  C   LIG    1        2.524  -0.054  -0.173  0.00  0.00    +0.360 A 
ATOM      7  N   LIG    1        3.770  -0.621  -0.247  0.00  0.00    -0.630 N 
ATOM      8  H   LIG    1        3.850  -1.585  -0.317  0.00  0.00    +0.440 HD
ATOM      9  C   LIG    1        4.881   0.133  -0.226  0.00  0.00    +0.700 A 
ATOM     10  N   LIG    1        4.823   1.473  -0.131  0.00  0.00    -0.650 N 
ATOM     11  H   LIG    1        5.643   1.992  -0.117  0.00  0.00    +0.440 HD
ATOM     12  O   LIG    1        5.967  -0.410  -0.294  0.00  0.00    -0.530 OA
ATOM     13  C   LIG    1        3.630   2.100  -0.060  0.00  0.00    +0.550 A 
ATOM     14  O   LIG    1        3.571   3.313   0.026  0.00  0.00    -0.490 OA
ENDBRANCH   3   5
BRANCH   2  15
ATOM     15  C   LIG    1       -0.454   3.403   1.090  0.00  0.00    +0.170 A 
ATOM     16  N   LIG    1       -1.391   3.379   0.159  0.00  0.00    -0.470 NA
ATOM     17  C   LIG    1       -2.383   4.161   0.575  0.00  0.00    +0.400 A 
ATOM     18  N   LIG    1       -2.058   4.656   1.743  0.00  0.00    -0.290 NA
ATOM     19  N   LIG    1       -0.897   4.209   2.080  0.00  0.00    -0.360 N 
ATOM     20  H   LIG    1       -0.422   4.420   2.899  0.00  0.00    +0.460 HD
ENDBRANCH   2  15
TORSDOF 2
ENDMDL
MODEL       71
REMARK  Name = ZINC000006861655
REMARK                            x       y       z     vdW  Elec       q    Type
REMARK                         _______ _______ _______ _____ _____    ______ ____
ROOT
ATOM      1  O   LIG    1        1.612   2.782   1.986  0.00  0.00    -0.480 OA
ATOM      2  C   LIG    1        0.834   2.679   1.058  0.00  0.00    +0.620 C 
ATOM      3  N   LIG    1        1.143   1.901   0.001  0.00  0.00    -0.640 N 
ATOM      4  H   LIG    1        0.494   1.762  -0.705  0.00  0.00    +0.420 HD
ENDROOT
BRANCH   3   5
ATOM      5  C   LIG    1        2.408   1.292  -0.076  0.00  0.00    -0.020 A 
ATOM      6  C   LIG    1        2.524  -0.054  -0.173  0.00  0.00    +0.350 A 
ATOM      7  N   LIG    1        3.770  -0.622  -0.248  0.00  0.00    -0.630 N 
ATOM      8  H   LIG    1        3.851  -1.586  -0.317  0.00  0.00    +0.440 HD
ATOM      9  C   LIG    1        4.882   0.133  -0.226  0.00  0.00    +0.700 A 
ATOM     10  N   LIG    1        4.824   1.473  -0.131  0.00  0.00    -0.650 N 
ATOM     11  H   LIG    1        5.643   1.992  -0.117  0.00  0.00    +0.440 HD
ATOM     12  O   LIG    1        5.968  -0.410  -0.294  0.00  0.00    -0.540 OA
ATOM     13  C   LIG    1        3.631   2.099  -0.060  0.00  0.00    +0.550 A 
ATOM     14  O   LIG    1        3.572   3.313   0.026  0.00  0.00    -0.480 OA
ENDBRANCH   3   5
BRANCH   2  15
ATOM     15  C   LIG    1       -0.455   3.403   1.090  0.00  0.00    +0.150 A 
ATOM     16  N   LIG    1       -1.383   3.374   0.158  0.00  0.00    -0.280 NA
ATOM     17  N   LIG    1       -2.363   4.123   0.528  0.00  0.00    -0.390 N 
ATOM     18  H   LIG    1       -3.178   4.280   0.025  0.00  0.00    +0.450 HD
ATOM     19  C   LIG    1       -2.066   4.654   1.729  0.00  0.00    +0.440 A 
ATOM     20  N   LIG    1       -0.888   4.204   2.080  0.00  0.00    -0.460 NA
ENDBRANCH   2  15
TORSDOF 2
ENDMDL
MODEL       72
REMARK  Name = ZINC000006452786
REMARK                            x       y       z     vdW  Elec       q    Type
REMARK                         _______ _______ _______ _____ _____    ______ ____
ROOT
ATOM      1  O   LIG    1       -0.000  -0.003   0.026  0.00  0.00    -0.500 OA
ATOM      2  C   LIG    1       -0.015   1.213   0.024  0.00  0.00    +0.630 C 
ATOM      3  N   LIG    1        1.143   1.901   0.001  0.00  0.00    -0.630 N 
ATOM      4  H   LIG    1        1.132   2.868  -0.077  0.00  0.00    +0.450 HD
ENDROOT
BRANCH   3   5
ATOM      5  C   LIG    1        2.344   1.232   0.090  0.00  0.00    +0.440 A 
ATOM      6  C   LIG    1        3.514   1.927   0.192  0.00  0.00    -0.150 A 
ATOM      7  C   LIG    1        4.724   1.218   0.281  0.00  0.00    +0.560 A 
ATOM      8  N   LIG    1        4.708  -0.130   0.265  0.00  0.00    -0.660 N 
ATOM      9  H   LIG    1        5.542  -0.622   0.326  0.00  0.00    +0.430 HD
ATOM     10  C   LIG    1        3.545  -0.798   0.164  0.00  0.00    +0.710 A 
ATOM     11  O   LIG    1        3.552  -2.014   0.151  0.00  0.00    -0.530 OA
ATOM     12  O   LIG    1        5.782   1.817   0.372  0.00  0.00    -0.510 OA
ATOM     13  N   LIG    1        2.373  -0.142   0.083  0.00  0.00    -0.640 N 
ATOM     14  H   LIG    1        1.545  -0.641   0.011  0.00  0.00    +0.440 HD
ENDBRANCH   3   5
BRANCH   2  15
ATOM     15  C   LIG    1       -1.303   1.935   0.040  0.00  0.00    +0.150 A 
ATOM     16  N   LIG    1       -1.468   3.247   0.033  0.00  0.00    -0.460 NA
ATOM     17  C   LIG    1       -2.776   3.482   0.053  0.00  0.00    +0.410 A 
ATOM     18  N   LIG    1       -3.404   2.332   0.070  0.00  0.00    -0.270 NA
ATOM     19  N   LIG    1       -2.536   1.380   0.057  0.00  0.00    -0.350 N 
ATOM     20  H   LIG    1       -2.732   0.430   0.065  0.00  0.00    +0.460 HD
ENDBRANCH   2  15
TORSDOF 2
ENDMDL
MODEL       73
REMARK  Name = ZINC000006452786
REMARK                            x       y       z     vdW  Elec       q    Type
REMARK                         _______ _______ _______ _____ _____    ______ ____
ROOT
ATOM      1  O   LIG    1       -0.000  -0.003   0.026  0.00  0.00    -0.470 OA
ATOM      2  C   LIG    1       -0.015   1.213   0.024  0.00  0.00    +0.630 C 
ATOM      3  N   LIG    1        1.143   1.901   0.001  0.00  0.00    -0.640 N 
ATOM      4  H   LIG    1        1.132   2.868  -0.077  0.00  0.00    +0.440 HD
ENDROOT
BRANCH   3   5
ATOM      5  C   LIG    1        2.344   1.232   0.090  0.00  0.00    +0.450 A 
ATOM      6  C   LIG    1        3.514   1.927   0.192  0.00  0.00    -0.160 A 
ATOM      7  C   LIG    1        4.724   1.218   0.281  0.00  0.00    +0.570 A 
ATOM      8  N   LIG    1        4.708  -0.130   0.265  0.00  0.00    -0.660 N 
ATOM      9  H   LIG    1        5.542  -0.622   0.326  0.00  0.00    +0.430 HD
ATOM     10  C   LIG    1        3.545  -0.798   0.164  0.00  0.00    +0.710 A 
ATOM     11  O   LIG    1        3.552  -2.014   0.151  0.00  0.00    -0.530 OA
ATOM     12  O   LIG    1        5.782   1.817   0.372  0.00  0.00    -0.520 OA
ATOM     13  N   LIG    1        2.373  -0.142   0.083  0.00  0.00    -0.640 N 
ATOM     14  H   LIG    1        1.545  -0.641   0.011  0.00  0.00    +0.450 HD
ENDBRANCH   3   5
BRANCH   2  15
ATOM     15  C   LIG    1       -1.304   1.936   0.040  0.00  0.00    +0.140 A 
ATOM     16  N   LIG    1       -1.459   3.242   0.033  0.00  0.00    -0.260 NA
ATOM     17  N   LIG    1       -2.719   3.509   0.051  0.00  0.00    -0.390 N 
ATOM     18  H   LIG    1       -3.111   4.396   0.052  0.00  0.00    +0.460 HD
ATOM     19  C   LIG    1       -3.401   2.348   0.070  0.00  0.00    +0.450 A 
ATOM     20  N   LIG    1       -2.527   1.375   0.057  0.00  0.00    -0.450 NA
ENDBRANCH   2  15
TORSDOF 2
ENDMDL
MODEL       74
REMARK  Name = ZINC000061709104
REMARK                            x       y       z     vdW  Elec       q    Type
REMARK                         _______ _______ _______ _____ _____    ______ ____
ROOT
ATOM      1  O   LIG    1        0.002  -0.004   0.002  0.00  0.00    -0.510 OA
ATOM      2  C   LIG    1       -0.014   1.209   0.009  0.00  0.00    +0.520 C 
ATOM      3  N   LIG    1       -1.191   1.867   0.018  0.00  0.00    -0.620 N 
ATOM      4  C   LIG    1       -1.236   3.337   0.020  0.00  0.00    +0.240 C 
ATOM      5  C   LIG    1       -2.182   3.793  -1.096  0.00  0.00    +0.220 C 
ATOM      6  O   LIG    1       -3.435   3.120  -0.956  0.00  0.00    -0.380 OA
ATOM      7  C   LIG    1       -3.354   1.699  -1.091  0.00  0.00    +0.220 C 
ATOM      8  C   LIG    1       -2.468   1.135   0.020  0.00  0.00    +0.260 C 
ENDROOT
BRANCH   2   9
ATOM      9  C   LIG    1        1.280   1.980   0.001  0.00  0.00    +0.210 C 
BRANCH   9  10
ATOM     10  N   LIG    1        2.410   1.040  -0.015  0.00  0.00    -0.500 NA
ATOM     11  C   LIG    1        2.541   0.389  -1.343  0.00  0.00    +0.180 C 
ATOM     12  C   LIG    1        4.007  -0.113  -1.348  0.00  0.00    +0.010 C 
ATOM     13  C   LIG    1        4.762   1.018  -0.615  0.00  0.00    +0.150 C 
ATOM     14  C   LIG    1        3.689   1.746   0.216  0.00  0.00    +0.200 C 
BRANCH  13  15
ATOM     15  O   LIG    1        5.768   0.471   0.240  0.00  0.00    -0.560 OA
ATOM     16  H   LIG    1        6.447  -0.035  -0.225  0.00  0.00    +0.380 HD
ENDBRANCH  13  15
ENDBRANCH   9  10
ENDBRANCH   2   9
TORSDOF 3
ENDMDL
MODEL       75
REMARK  Name = ZINC000061709104
REMARK                            x       y       z     vdW  Elec       q    Type
REMARK                         _______ _______ _______ _____ _____    ______ ____
ROOT
ATOM      1  O   LIG    1        0.002  -0.004   0.002  0.00  0.00    -0.510 OA
ATOM      2  C   LIG    1       -0.014   1.209   0.009  0.00  0.00    +0.520 C 
ATOM      3  N   LIG    1       -1.191   1.867   0.018  0.00  0.00    -0.620 N 
ATOM      4  C   LIG    1       -1.236   3.337   0.020  0.00  0.00    +0.240 C 
ATOM      5  C   LIG    1       -2.182   3.793  -1.096  0.00  0.00    +0.220 C 
ATOM      6  O   LIG    1       -3.435   3.120  -0.956  0.00  0.00    -0.380 OA
ATOM      7  C   LIG    1       -3.354   1.699  -1.091  0.00  0.00    +0.220 C 
ATOM      8  C   LIG    1       -2.468   1.135   0.020  0.00  0.00    +0.260 C 
ENDROOT
BRANCH   2   9
ATOM      9  C   LIG    1        1.280   1.980   0.001  0.00  0.00    +0.210 C 
BRANCH   9  10
ATOM     10  N   LIG    1        2.410   1.040  -0.015  0.00  0.00    -0.500 NA
ATOM     11  C   LIG    1        2.541   0.389  -1.343  0.00  0.00    +0.180 C 
ATOM     12  C   LIG    1        4.007  -0.113  -1.348  0.00  0.00    +0.010 C 
ATOM     13  C   LIG    1        4.762   1.018  -0.615  0.00  0.00    +0.150 C 
ATOM     14  C   LIG    1        3.689   1.746   0.216  0.00  0.00    +0.200 C 
BRANCH  13  15
ATOM     15  O   LIG    1        5.768   0.471   0.240  0.00  0.00    -0.560 OA
ATOM     16  H   LIG    1        6.447  -0.035  -0.225  0.00  0.00    +0.380 HD
ENDBRANCH  13  15
ENDBRANCH   9  10
ENDBRANCH   2   9
TORSDOF 3
ENDMDL
MODEL       76
REMARK  Name = ZINC000061709103
REMARK                            x       y       z     vdW  Elec       q    Type
REMARK                         _______ _______ _______ _____ _____    ______ ____
ROOT
ATOM      1  O   LIG    1        0.002  -0.004   0.002  0.00  0.00    -0.520 OA
ATOM      2  C   LIG    1       -0.014   1.209   0.009  0.00  0.00    +0.520 C 
ATOM      3  N   LIG    1       -1.191   1.867   0.018  0.00  0.00    -0.620 N 
ATOM      4  C   LIG    1       -1.236   3.337   0.020  0.00  0.00    +0.240 C 
ATOM      5  C   LIG    1       -2.182   3.793  -1.096  0.00  0.00    +0.220 C 
ATOM      6  O   LIG    1       -3.435   3.120  -0.956  0.00  0.00    -0.380 OA
ATOM      7  C   LIG    1       -3.354   1.699  -1.091  0.00  0.00    +0.220 C 
ATOM      8  C   LIG    1       -2.468   1.135   0.020  0.00  0.00    +0.260 C 
ENDROOT
BRANCH   2   9
ATOM      9  C   LIG    1        1.280   1.980   0.001  0.00  0.00    +0.210 C 
BRANCH   9  10
ATOM     10  N   LIG    1        2.410   1.040  -0.015  0.00  0.00    -0.510 NA
ATOM     11  C   LIG    1        2.250   0.002   1.025  0.00  0.00    +0.200 C 
ATOM     12  C   LIG    1        3.692  -0.314   1.493  0.00  0.00    -0.000 C 
ATOM     13  C   LIG    1        4.352   1.089   1.443  0.00  0.00    +0.140 C 
ATOM     14  C   LIG    1        3.685   1.744   0.215  0.00  0.00    +0.210 C 
BRANCH  13  15
ATOM     15  O   LIG    1        5.764   0.976   1.255  0.00  0.00    -0.560 OA
ATOM     16  H   LIG    1        6.220   0.505   1.966  0.00  0.00    +0.380 HD
ENDBRANCH  13  15
ENDBRANCH   9  10
ENDBRANCH   2   9
TORSDOF 3
ENDMDL
MODEL       77
REMARK  Name = ZINC000061709103
REMARK                            x       y       z     vdW  Elec       q    Type
REMARK                         _______ _______ _______ _____ _____    ______ ____
ROOT
ATOM      1  O   LIG    1        0.002  -0.004   0.002  0.00  0.00    -0.520 OA
ATOM      2  C   LIG    1       -0.014   1.209   0.009  0.00  0.00    +0.520 C 
ATOM      3  N   LIG    1       -1.191   1.867   0.018  0.00  0.00    -0.620 N 
ATOM      4  C   LIG    1       -1.236   3.337   0.020  0.00  0.00    +0.240 C 
ATOM      5  C   LIG    1       -2.182   3.793  -1.096  0.00  0.00    +0.220 C 
ATOM      6  O   LIG    1       -3.435   3.120  -0.956  0.00  0.00    -0.380 OA
ATOM      7  C   LIG    1       -3.354   1.699  -1.091  0.00  0.00    +0.220 C 
ATOM      8  C   LIG    1       -2.468   1.135   0.020  0.00  0.00    +0.260 C 
ENDROOT
BRANCH   2   9
ATOM      9  C   LIG    1        1.280   1.980   0.001  0.00  0.00    +0.210 C 
BRANCH   9  10
ATOM     10  N   LIG    1        2.410   1.040  -0.015  0.00  0.00    -0.510 NA
ATOM     11  C   LIG    1        2.250   0.002   1.025  0.00  0.00    +0.200 C 
ATOM     12  C   LIG    1        3.692  -0.314   1.493  0.00  0.00    -0.000 C 
ATOM     13  C   LIG    1        4.352   1.089   1.443  0.00  0.00    +0.140 C 
ATOM     14  C   LIG    1        3.685   1.744   0.215  0.00  0.00    +0.210 C 
BRANCH  13  15
ATOM     15  O   LIG    1        5.764   0.976   1.255  0.00  0.00    -0.560 OA
ATOM     16  H   LIG    1        6.220   0.505   1.966  0.00  0.00    +0.380 HD
ENDBRANCH  13  15
ENDBRANCH   9  10
ENDBRANCH   2   9
TORSDOF 3
ENDMDL
MODEL       78
REMARK  Name = ZINC000217404539
REMARK                            x       y       z     vdW  Elec       q    Type
REMARK                         _______ _______ _______ _____ _____    ______ ____
ROOT
ATOM      1  C   LIG    1        5.982   2.416  -0.042  0.00  0.00    +0.190 C 
ATOM      2  C   LIG    1        6.261   2.854  -1.494  0.00  0.00    -0.280 C 
ATOM      3  S   LIG    1        8.088   3.058  -1.516  0.00  0.00    +2.390 S 
ATOM      4  C   LIG    1        8.394   1.664  -0.358  0.00  0.00    -0.330 C 
ATOM      5  O   LIG    1        8.443   4.287  -0.897  0.00  0.00    -0.920 OA
ATOM      6  O   LIG    1        8.593   2.734  -2.804  0.00  0.00    -0.930 OA
ATOM      7  C   LIG    1        7.190   1.742   0.598  0.00  0.00    +0.200 C 
ENDROOT
BRANCH   1   8
ATOM      8  N   LIG    1        4.853   1.476  -0.036  0.00  0.00    -0.670 NA
ATOM      9  H   LIG    1        4.919   0.836   0.741  0.00  0.00    +0.350 HD
BRANCH   8  10
ATOM     10  C   LIG    1        3.571   2.193  -0.020  0.00  0.00    +0.160 C 
BRANCH  10  11
ATOM     11  C   LIG    1        2.422   1.183  -0.015  0.00  0.00    +0.260 C 
BRANCH  11  14
ATOM     12  O   LIG    1        0.002  -0.004   0.002  0.00  0.00    -0.550 OA
ATOM     13  C   LIG    1       -0.014   1.209   0.009  0.00  0.00    +0.630 C 
ATOM     14  N   LIG    1        1.143   1.898   0.001  0.00  0.00    -0.740 N 
ATOM     15  H   LIG    1        1.130   2.868   0.007  0.00  0.00    +0.400 HD
ENDBRANCH  11  14
ENDBRANCH  10  11
ENDBRANCH   8  10
ENDBRANCH   1   8
BRANCH   7  16
ATOM     16  O   LIG    1        7.566   2.485   1.759  0.00  0.00    -0.560 OA
ATOM     17  H   LIG    1        8.288   2.087   2.264  0.00  0.00    +0.390 HD
ENDBRANCH   7  16
TORSDOF 5
ENDMDL
MODEL       79
REMARK  Name = ZINC000217404391
REMARK                            x       y       z     vdW  Elec       q    Type
REMARK                         _______ _______ _______ _____ _____    ______ ____
ROOT
ATOM      1  C   LIG    1        5.982   2.416  -0.042  0.00  0.00    +0.220 C 
ATOM      2  C   LIG    1        6.334   2.817   1.414  0.00  0.00    -0.340 C 
ATOM      3  S   LIG    1        8.035   3.481   1.200  0.00  0.00    +2.400 S 
ATOM      4  C   LIG    1        8.524   2.281  -0.096  0.00  0.00    -0.340 C 
ATOM      5  O   LIG    1        8.790   3.247   2.381  0.00  0.00    -0.930 OA
ATOM      6  O   LIG    1        7.972   4.786   0.642  0.00  0.00    -0.930 OA
ATOM      7  C   LIG    1        7.205   1.747  -0.672  0.00  0.00    +0.210 C 
ENDROOT
BRANCH   1   8
ATOM      8  N   LIG    1        4.853   1.476  -0.036  0.00  0.00    -0.650 NA
ATOM      9  H   LIG    1        4.919   0.836   0.741  0.00  0.00    +0.360 HD
BRANCH   8  10
ATOM     10  C   LIG    1        3.571   2.193  -0.020  0.00  0.00    +0.160 C 
BRANCH  10  11
ATOM     11  C   LIG    1        2.422   1.183  -0.015  0.00  0.00    +0.260 C 
BRANCH  11  14
ATOM     12  O   LIG    1        0.002  -0.004   0.002  0.00  0.00    -0.550 OA
ATOM     13  C   LIG    1       -0.014   1.209   0.009  0.00  0.00    +0.630 C 
ATOM     14  N   LIG    1        1.143   1.898   0.001  0.00  0.00    -0.740 N 
ATOM     15  H   LIG    1        1.130   2.868   0.007  0.00  0.00    +0.400 HD
ENDBRANCH  11  14
ENDBRANCH  10  11
ENDBRANCH   8  10
ENDBRANCH   1   8
BRANCH   7  16
ATOM     16  O   LIG    1        7.134   0.339  -0.440  0.00  0.00    -0.540 OA
ATOM     17  H   LIG    1        7.841  -0.166  -0.866  0.00  0.00    +0.380 HD
ENDBRANCH   7  16
TORSDOF 5
ENDMDL
MODEL       80
REMARK  Name = ZINC000217404465
REMARK                            x       y       z     vdW  Elec       q    Type
REMARK                         _______ _______ _______ _____ _____    ______ ____
ROOT
ATOM      1  C   LIG    1        5.982   2.416  -0.042  0.00  0.00    +0.210 C 
ATOM      2  C   LIG    1        6.334   2.817   1.414  0.00  0.00    -0.340 C 
ATOM      3  S   LIG    1        8.035   3.481   1.200  0.00  0.00    +2.400 S 
ATOM      4  C   LIG    1        8.524   2.281  -0.096  0.00  0.00    -0.330 C 
ATOM      5  O   LIG    1        8.790   3.247   2.381  0.00  0.00    -0.930 OA
ATOM      6  O   LIG    1        7.972   4.786   0.642  0.00  0.00    -0.920 OA
ATOM      7  C   LIG    1        7.205   1.747  -0.672  0.00  0.00    +0.220 C 
ENDROOT
BRANCH   1   8
ATOM      8  N   LIG    1        4.853   1.476  -0.036  0.00  0.00    -0.660 NA
ATOM      9  H   LIG    1        4.919   0.836   0.741  0.00  0.00    +0.350 HD
BRANCH   8  10
ATOM     10  C   LIG    1        3.571   2.193  -0.020  0.00  0.00    +0.180 C 
BRANCH  10  11
ATOM     11  C   LIG    1        2.422   1.183  -0.015  0.00  0.00    +0.260 C 
BRANCH  11  14
ATOM     12  O   LIG    1        0.002  -0.004   0.002  0.00  0.00    -0.550 OA
ATOM     13  C   LIG    1       -0.014   1.209   0.009  0.00  0.00    +0.630 C 
ATOM     14  N   LIG    1        1.143   1.898   0.001  0.00  0.00    -0.740 N 
ATOM     15  H   LIG    1        1.130   2.868   0.007  0.00  0.00    +0.400 HD
ENDBRANCH  11  14
ENDBRANCH  10  11
ENDBRANCH   8  10
ENDBRANCH   1   8
BRANCH   7  16
ATOM     16  O   LIG    1        7.183   1.989  -2.080  0.00  0.00    -0.550 OA
ATOM     17  H   LIG    1        7.892   1.545  -2.567  0.00  0.00    +0.390 HD
ENDBRANCH   7  16
TORSDOF 5
ENDMDL
MODEL       81
REMARK  Name = ZINC000217392875
REMARK                            x       y       z     vdW  Elec       q    Type
REMARK                         _______ _______ _______ _____ _____    ______ ____
ROOT
ATOM      1  N   LIG    1        4.853   1.476  -0.036  0.00  0.00    -0.670 NA
ATOM      2  H   LIG    1        4.919   0.836   0.741  0.00  0.00    +0.350 HD
ENDROOT
BRANCH   1   3
ATOM      3  C   LIG    1        5.982   2.416  -0.042  0.00  0.00    +0.200 C 
ATOM      4  C   LIG    1        6.331   2.814   1.403  0.00  0.00    +0.040 C 
ATOM      5  C   LIG    1        7.709   3.523   1.347  0.00  0.00    -0.310 C 
ATOM      6  S   LIG    1        8.654   2.468   0.184  0.00  0.00    +2.390 S 
ATOM      7  O   LIG    1        9.329   1.452   0.913  0.00  0.00    -0.930 OA
ATOM      8  O   LIG    1        9.378   3.293  -0.718  0.00  0.00    -0.940 OA
ATOM      9  C   LIG    1        7.215   1.742  -0.677  0.00  0.00    -0.300 C 
ENDBRANCH   1   3
BRANCH   1  10
ATOM     10  C   LIG    1        3.571   2.193  -0.020  0.00  0.00    +0.160 C 
BRANCH  10  11
ATOM     11  C   LIG    1        2.422   1.183  -0.015  0.00  0.00    +0.260 C 
BRANCH  11  14
ATOM     12  O   LIG    1        0.002  -0.004   0.002  0.00  0.00    -0.550 OA
ATOM     13  C   LIG    1       -0.014   1.209   0.009  0.00  0.00    +0.630 C 
ATOM     14  N   LIG    1        1.143   1.898   0.001  0.00  0.00    -0.740 N 
ATOM     15  H   LIG    1        1.130   2.868   0.007  0.00  0.00    +0.400 HD
ENDBRANCH  11  14
ENDBRANCH  10  11
ENDBRANCH   1  10
TORSDOF 4
ENDMDL
MODEL       82
REMARK  Name = ZINC000217404608
REMARK                            x       y       z     vdW  Elec       q    Type
REMARK                         _______ _______ _______ _____ _____    ______ ____
ROOT
ATOM      1  C   LIG    1        5.982   2.416  -0.042  0.00  0.00    +0.170 C 
ATOM      2  C   LIG    1        6.261   2.854  -1.494  0.00  0.00    -0.280 C 
ATOM      3  S   LIG    1        8.088   3.058  -1.516  0.00  0.00    +2.390 S 
ATOM      4  C   LIG    1        8.394   1.664  -0.358  0.00  0.00    -0.330 C 
ATOM      5  O   LIG    1        8.443   4.287  -0.897  0.00  0.00    -0.930 OA
ATOM      6  O   LIG    1        8.593   2.734  -2.804  0.00  0.00    -0.930 OA
ATOM      7  C   LIG    1        7.190   1.742   0.598  0.00  0.00    +0.190 C 
ENDROOT
BRANCH   1   8
ATOM      8  N   LIG    1        4.853   1.476  -0.036  0.00  0.00    -0.660 NA
ATOM      9  H   LIG    1        4.919   0.836   0.741  0.00  0.00    +0.370 HD
BRANCH   8  10
ATOM     10  C   LIG    1        3.571   2.193  -0.020  0.00  0.00    +0.160 C 
BRANCH  10  11
ATOM     11  C   LIG    1        2.422   1.183  -0.015  0.00  0.00    +0.260 C 
BRANCH  11  14
ATOM     12  O   LIG    1        0.002  -0.004   0.002  0.00  0.00    -0.550 OA
ATOM     13  C   LIG    1       -0.014   1.209   0.009  0.00  0.00    +0.630 C 
ATOM     14  N   LIG    1        1.143   1.898   0.001  0.00  0.00    -0.740 N 
ATOM     15  H   LIG    1        1.130   2.868   0.007  0.00  0.00    +0.400 HD
ENDBRANCH  11  14
ENDBRANCH  10  11
ENDBRANCH   8  10
ENDBRANCH   1   8
BRANCH   7  16
ATOM     16  O   LIG    1        6.824   0.418   0.992  0.00  0.00    -0.550 OA
ATOM     17  H   LIG    1        7.519  -0.057   1.468  0.00  0.00    +0.390 HD
ENDBRANCH   7  16
TORSDOF 5
ENDMDL
MODEL       83
REMARK  Name = ZINC000217392797
REMARK                            x       y       z     vdW  Elec       q    Type
REMARK                         _______ _______ _______ _____ _____    ______ ____
ROOT
ATOM      1  N   LIG    1        4.853   1.476  -0.036  0.00  0.00    -0.670 NA
ATOM      2  H   LIG    1        4.919   0.836   0.741  0.00  0.00    +0.350 HD
ENDROOT
BRANCH   1   3
ATOM      3  C   LIG    1        5.982   2.416  -0.042  0.00  0.00    +0.160 C 
ATOM      4  C   LIG    1        6.326   2.817  -1.487  0.00  0.00    +0.080 C 
ATOM      5  C   LIG    1        7.700   3.516  -1.492  0.00  0.00    -0.310 C 
ATOM      6  S   LIG    1        8.598   2.812  -0.063  0.00  0.00    +2.400 S 
ATOM      7  O   LIG    1        8.847   3.837   0.889  0.00  0.00    -0.930 OA
ATOM      8  O   LIG    1        9.671   2.006  -0.531  0.00  0.00    -0.930 OA
ATOM      9  C   LIG    1        7.245   1.732   0.542  0.00  0.00    -0.310 C 
ENDBRANCH   1   3
BRANCH   1  10
ATOM     10  C   LIG    1        3.571   2.193  -0.020  0.00  0.00    +0.160 C 
BRANCH  10  11
ATOM     11  C   LIG    1        2.422   1.183  -0.015  0.00  0.00    +0.260 C 
BRANCH  11  14
ATOM     12  O   LIG    1        0.002  -0.004   0.002  0.00  0.00    -0.550 OA
ATOM     13  C   LIG    1       -0.014   1.209   0.009  0.00  0.00    +0.630 C 
ATOM     14  N   LIG    1        1.143   1.898   0.001  0.00  0.00    -0.740 N 
ATOM     15  H   LIG    1        1.130   2.868   0.007  0.00  0.00    +0.400 HD
ENDBRANCH  11  14
ENDBRANCH  10  11
ENDBRANCH   1  10
TORSDOF 4
ENDMDL
MODEL       84
REMARK  Name = ZINC000034248194
REMARK                            x       y       z     vdW  Elec       q    Type
REMARK                         _______ _______ _______ _____ _____    ______ ____
ROOT
ATOM      1  C   LIG    1        0.002  -0.004   0.002  0.00  0.00    +0.180 C 
ATOM      2  C   LIG    1        0.647  -0.530  -1.300  0.00  0.00    +0.130 C 
ATOM      3  C   LIG    1       -0.478  -1.346  -1.974  0.00  0.00    +0.130 C 
ATOM      4  O   LIG    1       -1.703  -0.796  -1.440  0.00  0.00    -0.310 OA
ATOM      5  C   LIG    1       -1.437  -0.565  -0.035  0.00  0.00    +0.410 C 
ENDROOT
BRANCH   5   6
ATOM      6  N   LIG    1       -2.383   0.412   0.508  0.00  0.00    -0.520 N 
ATOM      7  C   LIG    1       -2.281   0.799   1.817  0.00  0.00    +0.370 A 
ATOM      8  C   LIG    1       -3.153   1.700   2.318  0.00  0.00    -0.130 A 
ATOM      9  C   LIG    1       -4.160   2.228   1.474  0.00  0.00    +0.550 A 
ATOM     10  N   LIG    1       -4.227   1.821   0.190  0.00  0.00    -0.660 N 
ATOM     11  H   LIG    1       -4.914   2.177  -0.395  0.00  0.00    +0.430 HD
ATOM     12  O   LIG    1       -4.957   3.042   1.903  0.00  0.00    -0.520 OA
ATOM     13  C   LIG    1       -3.341   0.925  -0.285  0.00  0.00    +0.690 A 
ATOM     14  O   LIG    1       -3.414   0.567  -1.445  0.00  0.00    -0.500 OA
ENDBRANCH   5   6
BRANCH   1  15
ATOM     15  N   LIG    1       -0.018   1.465   0.010  0.00  0.00    -0.820 NA
ATOM     16  H   LIG    1       -0.556   1.823  -0.764  0.00  0.00    +0.350 HD
ATOM     17  H   LIG    1        0.919   1.839   0.003  0.00  0.00    +0.360 HD
ENDBRANCH   1  15
BRANCH   2  18
ATOM     18  O   LIG    1        1.049   0.559  -2.135  0.00  0.00    -0.550 OA
ATOM     19  H   LIG    1        1.460   0.286  -2.966  0.00  0.00    +0.390 HD
ENDBRANCH   2  18
BRANCH   3  20
ATOM     20  C   LIG    1       -0.430  -1.167  -3.492  0.00  0.00    +0.200 C 
BRANCH  20  21
ATOM     21  O   LIG    1       -1.401  -2.018  -4.103  0.00  0.00    -0.560 OA
ATOM     22  H   LIG    1       -1.427  -1.957  -5.068  0.00  0.00    +0.380 HD
ENDBRANCH  20  21
ENDBRANCH   3  20
TORSDOF 5
ENDMDL
MODEL       85
REMARK  Name = ZINC000095617095
REMARK                            x       y       z     vdW  Elec       q    Type
REMARK                         _______ _______ _______ _____ _____    ______ ____
ROOT
ATOM      1  C   LIG    1        0.562  -2.055  -1.191  0.00  0.00    +0.010 C 
ATOM      2  C   LIG    1        1.254  -2.671  -2.168  0.00  0.00    +0.040 C 
ENDROOT
BRANCH   1   3
ATOM      3  C   LIG    1        0.526  -0.595  -1.129  0.00  0.00    +0.520 C 
ATOM      4  O   LIG    1        1.122   0.064  -1.961  0.00  0.00    -0.470 OA
BRANCH   3   6
ATOM      5  C   LIG    1       -0.159   1.451  -0.150  0.00  0.00    +0.250 C 
ATOM      6  O   LIG    1       -0.167   0.022  -0.150  0.00  0.00    -0.340 OA
ENDBRANCH   3   6
ENDBRANCH   1   3
BRANCH   2   7
ATOM      7  O   LIG    1        1.989  -1.943  -3.037  0.00  0.00    -0.420 OA
ATOM      8  H   LIG    1        2.450  -2.472  -3.702  0.00  0.00    +0.390 HD
ENDBRANCH   2   7
BRANCH   1   9
ATOM      9  O   LIG    1       -0.104  -2.793  -0.259  0.00  0.00    -0.450 OA
ATOM     10  H   LIG    1       -0.085  -3.746  -0.425  0.00  0.00    +0.390 HD
ENDBRANCH   1   9
BRANCH   2  11
ATOM     11  C   LIG    1        1.208  -4.172  -2.293  0.00  0.00    +0.210 C 
BRANCH  11  12
ATOM     12  O   LIG    1        2.540  -4.691  -2.292  0.00  0.00    -0.530 OA
ATOM     13  H   LIG    1        3.091  -4.361  -3.015  0.00  0.00    +0.380 HD
ENDBRANCH  11  12
BRANCH  11  14
ATOM     14  C   LIG    1        0.513  -4.554  -3.601  0.00  0.00    +0.190 C 
BRANCH  14  15
ATOM     15  O   LIG    1       -0.818  -4.035  -3.602  0.00  0.00    -0.540 OA
ATOM     16  H   LIG    1       -1.369  -4.365  -2.880  0.00  0.00    +0.380 HD
ENDBRANCH  14  15
BRANCH  14  17
ATOM     17  C   LIG    1        0.467  -6.078  -3.728  0.00  0.00    +0.170 C 
BRANCH  17  18
ATOM     18  O   LIG    1       -0.076  -6.434  -5.001  0.00  0.00    -0.560 OA
ATOM     19  H   LIG    1       -0.136  -7.387  -5.151  0.00  0.00    +0.390 HD
ENDBRANCH  17  18
ENDBRANCH  14  17
ENDBRANCH  11  14
ENDBRANCH   2  11
TORSDOF 10
ENDMDL
MODEL       86
REMARK  Name = ZINC000072344415
REMARK                            x       y       z     vdW  Elec       q    Type
REMARK                         _______ _______ _______ _____ _____    ______ ____
ROOT
ATOM      1  C   LIG    1       -0.521  -2.140  -1.213  0.00  0.00    -0.010 C 
ATOM      2  C   LIG    1        0.547  -2.884  -0.419  0.00  0.00    +0.200 C 
ATOM      3  N   LIG    1       -0.125  -4.017   0.159  0.00  0.00    -0.690 NA
ATOM      4  H   LIG    1        0.148  -4.147   1.122  0.00  0.00    +0.350 HD
ATOM      5  C   LIG    1        0.095  -5.260  -0.630  0.00  0.00    +0.170 C 
ATOM      6  C   LIG    1        0.070  -4.956  -2.145  0.00  0.00    +0.290 C 
ATOM      7  N   LIG    1       -0.944  -4.042  -2.591  0.00  0.00    -0.980 NA
ATOM      8  C   LIG    1       -0.635  -2.571  -2.610  0.00  0.00    +0.340 C 
ENDROOT
BRANCH   1  11
ATOM      9  C   LIG    1       -0.121   1.484  -0.051  0.00  0.00    +0.290 C 
ATOM     10  N   LIG    1       -0.333   0.035  -0.049  0.00  0.00    -0.620 N 
ATOM     11  C   LIG    1       -0.197  -0.668  -1.191  0.00  0.00    +0.510 C 
ATOM     12  O   LIG    1        0.185  -0.116  -2.201  0.00  0.00    -0.530 OA
ATOM     13  C   LIG    1       -0.693  -0.651   1.195  0.00  0.00    +0.280 C 
ENDBRANCH   1  11
BRANCH   7  14
ATOM     14  S   LIG    1       -2.426  -4.600  -3.077  0.00  0.00    +2.610 S 
ATOM     15  O   LIG    1       -2.174  -5.928  -3.515  0.00  0.00    -0.950 OA
ATOM     16  O   LIG    1       -2.896  -3.607  -3.979  0.00  0.00    -0.950 OA
ATOM     17  C   LIG    1       -3.425  -4.608  -1.563  0.00  0.00    -0.290 C 
ENDBRANCH   7  14
TORSDOF 2
ENDMDL
MODEL       87
REMARK  Name = ZINC000072344416
REMARK                            x       y       z     vdW  Elec       q    Type
REMARK                         _______ _______ _______ _____ _____    ______ ____
ROOT
ATOM      1  C   LIG    1        0.021  -2.178  -1.177  0.00  0.00    -0.040 C 
ATOM      2  C   LIG    1       -1.200  -2.703  -0.454  0.00  0.00    +0.240 C 
ATOM      3  N   LIG    1       -0.860  -3.960   0.210  0.00  0.00    -0.700 NA
ATOM      4  H   LIG    1        0.054  -3.909   0.635  0.00  0.00    +0.350 HD
ATOM      5  C   LIG    1       -0.993  -5.135  -0.566  0.00  0.00    +0.220 C 
ATOM      6  C   LIG    1       -0.009  -5.095  -1.760  0.00  0.00    +0.240 C 
ATOM      7  N   LIG    1       -0.434  -4.086  -2.709  0.00  0.00    -0.990 NA
ATOM      8  C   LIG    1        0.015  -2.683  -2.630  0.00  0.00    +0.320 C 
ENDROOT
BRANCH   1  11
ATOM      9  C   LIG    1       -0.018   1.461   0.010  0.00  0.00    +0.290 C 
ATOM     10  N   LIG    1        0.002  -0.004   0.002  0.00  0.00    -0.620 N 
ATOM     11  C   LIG    1        0.000  -0.672  -1.169  0.00  0.00    +0.520 C 
ATOM     12  O   LIG    1       -0.018  -0.060  -2.216  0.00  0.00    -0.530 OA
ATOM     13  C   LIG    1        0.024  -0.743   1.267  0.00  0.00    +0.280 C 
ENDBRANCH   1  11
BRANCH   7  14
ATOM     14  S   LIG    1       -1.464  -4.525  -3.930  0.00  0.00    +2.600 S 
ATOM     15  O   LIG    1       -1.216  -5.911  -4.116  0.00  0.00    -0.950 OA
ATOM     16  O   LIG    1       -1.200  -3.588  -4.965  0.00  0.00    -0.950 OA
ATOM     17  C   LIG    1       -3.121  -4.261  -3.240  0.00  0.00    -0.290 C 
ENDBRANCH   7  14
TORSDOF 2
ENDMDL
MODEL       88
REMARK  Name = ZINC000514290030
REMARK                            x       y       z     vdW  Elec       q    Type
REMARK                         _______ _______ _______ _____ _____    ______ ____
ROOT
ATOM      1  C   LIG    1       -0.018   1.503   0.010  0.00  0.00    +0.100 C 
ATOM      2  C   LIG    1        0.002  -0.004   0.002  0.00  0.00    +0.510 C 
ATOM      3  N   LIG    1       -1.156  -0.694   0.009  0.00  0.00    -0.620 N 
ATOM      4  C   LIG    1       -2.448   0.022   0.019  0.00  0.00    +0.300 C 
ATOM      5  C   LIG    1       -3.270  -0.564   1.161  0.00  0.00    +0.110 C 
ATOM      6  C   LIG    1       -4.701  -0.022   1.239  0.00  0.00    +0.060 C 
ATOM      7  C   LIG    1       -5.543  -1.237   1.707  0.00  0.00    +0.170 C 
ATOM      8  C   LIG    1       -4.532  -2.412   1.797  0.00  0.00    +0.170 C 
ATOM      9  N   LIG    1       -3.443  -2.017   0.884  0.00  0.00    -0.490 NA
ATOM     10  C   LIG    1       -2.177  -2.711   1.024  0.00  0.00    +0.080 C 
ATOM     11  C   LIG    1       -1.644  -2.797   2.459  0.00  0.00    +0.140 C 
ATOM     12  N   LIG    1       -2.346  -4.099   2.531  0.00  0.00    -0.480 NA
ATOM     13  C   LIG    1       -1.512  -5.111   3.193  0.00  0.00    +0.170 C 
ATOM     14  C   LIG    1       -2.281  -4.240   1.058  0.00  0.00    +0.200 C 
ATOM     15  C   LIG    1       -1.142  -2.164   0.001  0.00  0.00    +0.300 C 
ATOM     16  O   LIG    1        1.060  -0.596  -0.011  0.00  0.00    -0.550 OA
ENDROOT
BRANCH   7  17
ATOM     17  O   LIG    1       -6.565  -1.531   0.752  0.00  0.00    -0.560 OA
ATOM     18  H   LIG    1       -7.123  -2.283   0.993  0.00  0.00    +0.380 HD
ENDBRANCH   7  17
TORSDOF 1
ENDMDL
MODEL       89
REMARK  Name = ZINC000514290033
REMARK                            x       y       z     vdW  Elec       q    Type
REMARK                         _______ _______ _______ _____ _____    ______ ____
ROOT
ATOM      1  C   LIG    1       -0.018   1.503   0.010  0.00  0.00    +0.090 C 
ATOM      2  C   LIG    1        0.002  -0.004   0.002  0.00  0.00    +0.510 C 
ATOM      3  N   LIG    1       -1.156  -0.694   0.009  0.00  0.00    -0.620 N 
ATOM      4  C   LIG    1       -2.448   0.022   0.019  0.00  0.00    +0.300 C 
ATOM      5  C   LIG    1       -3.287  -0.562  -1.111  0.00  0.00    +0.110 C 
ATOM      6  C   LIG    1       -4.719  -0.020  -1.166  0.00  0.00    +0.070 C 
ATOM      7  C   LIG    1       -5.567  -1.234  -1.624  0.00  0.00    +0.170 C 
ATOM      8  C   LIG    1       -4.559  -2.408  -1.732  0.00  0.00    +0.150 C 
ATOM      9  N   LIG    1       -3.456  -2.015  -0.835  0.00  0.00    -0.510 NA
ATOM     10  C   LIG    1       -2.191  -2.707  -0.997  0.00  0.00    +0.080 C 
ATOM     11  C   LIG    1       -2.293  -4.236  -1.040  0.00  0.00    +0.200 C 
ATOM     12  N   LIG    1       -1.278  -4.171  -2.115  0.00  0.00    -0.480 NA
ATOM     13  C   LIG    1       -1.614  -5.087  -3.213  0.00  0.00    +0.160 C 
ATOM     14  C   LIG    1       -1.680  -2.783  -2.441  0.00  0.00    +0.130 C 
ATOM     15  C   LIG    1       -1.142  -2.164   0.001  0.00  0.00    +0.330 C 
ATOM     16  O   LIG    1        1.060  -0.596  -0.011  0.00  0.00    -0.540 OA
ENDROOT
BRANCH   7  17
ATOM     17  O   LIG    1       -6.166  -0.971  -2.894  0.00  0.00    -0.560 OA
ATOM     18  H   LIG    1       -6.709  -1.697  -3.231  0.00  0.00    +0.380 HD
ENDBRANCH   7  17
TORSDOF 1
ENDMDL
MODEL       90
REMARK  Name = ZINC000026657838
REMARK                            x       y       z     vdW  Elec       q    Type
REMARK                         _______ _______ _______ _____ _____    ______ ____
ROOT
ATOM      1  C   LIG    1        0.002  -0.004   0.002  0.00  0.00    +0.180 C 
ATOM      2  C   LIG    1        0.629  -0.541  -1.313  0.00  0.00    +0.130 C 
ATOM      3  C   LIG    1       -0.598  -0.510  -2.259  0.00  0.00    +0.140 C 
ATOM      4  O   LIG    1       -1.716  -0.875  -1.434  0.00  0.00    -0.310 OA
ATOM      5  C   LIG    1       -1.432  -0.573  -0.057  0.00  0.00    +0.430 C 
ENDROOT
BRANCH   5   6
ATOM      6  N   LIG    1       -2.386   0.421   0.441  0.00  0.00    -0.530 N 
ATOM      7  C   LIG    1       -2.277   0.882   1.724  0.00  0.00    +0.380 A 
ATOM      8  C   LIG    1       -3.156   1.799   2.183  0.00  0.00    -0.130 A 
ATOM      9  C   LIG    1       -4.177   2.265   1.321  0.00  0.00    +0.550 A 
ATOM     10  N   LIG    1       -4.251   1.786   0.062  0.00  0.00    -0.660 N 
ATOM     11  H   LIG    1       -4.948   2.101  -0.534  0.00  0.00    +0.430 HD
ATOM     12  O   LIG    1       -4.982   3.092   1.711  0.00  0.00    -0.520 OA
ATOM     13  C   LIG    1       -3.358   0.876  -0.370  0.00  0.00    +0.690 A 
ATOM     14  O   LIG    1       -3.437   0.454  -1.508  0.00  0.00    -0.500 OA
ENDBRANCH   5   6
BRANCH   1  15
ATOM     15  N   LIG    1       -0.018   1.465   0.010  0.00  0.00    -0.820 NA
ATOM     16  H   LIG    1       -0.556   1.823  -0.764  0.00  0.00    +0.340 HD
ATOM     17  H   LIG    1        0.919   1.839   0.003  0.00  0.00    +0.360 HD
ENDBRANCH   1  15
BRANCH   2  18
ATOM     18  O   LIG    1        1.664   0.326  -1.782  0.00  0.00    -0.550 OA
ATOM     19  H   LIG    1        2.084   0.030  -2.601  0.00  0.00    +0.390 HD
ENDBRANCH   2  18
BRANCH   3  20
ATOM     20  C   LIG    1       -0.420  -1.521  -3.393  0.00  0.00    +0.200 C 
BRANCH  20  21
ATOM     21  O   LIG    1       -1.504  -1.396  -4.316  0.00  0.00    -0.560 OA
ATOM     22  H   LIG    1       -1.456  -2.008  -5.064  0.00  0.00    +0.380 HD
ENDBRANCH  20  21
ENDBRANCH   3  20
TORSDOF 5
ENDMDL
MODEL       91
REMARK  Name = ZINC000585295436
REMARK                            x       y       z     vdW  Elec       q    Type
REMARK                         _______ _______ _______ _____ _____    ______ ____
ROOT
ATOM      1  C   LIG    1        0.206   1.168  -0.262  0.00  0.00    +0.050 C 
ATOM      2  C   LIG    1        0.190  -0.348  -0.052  0.00  0.00    +0.140 C 
ATOM      3  C   LIG    1        0.945  -1.058  -1.196  0.00  0.00    +0.140 C 
ATOM      4  C   LIG    1        1.681  -2.234  -0.521  0.00  0.00    +0.150 C 
ATOM      5  C   LIG    1        1.309  -2.135   0.974  0.00  0.00    +0.160 C 
ATOM      6  N   LIG    1        0.942  -0.709   1.177  0.00  0.00    -0.480 NA
ENDROOT
BRANCH   4   7
ATOM      7  O   LIG    1        1.234  -3.477  -1.065  0.00  0.00    -0.550 OA
ATOM      8  H   LIG    1        1.402  -3.575  -2.012  0.00  0.00    +0.380 HD
ENDBRANCH   4   7
BRANCH   3   9
ATOM      9  O   LIG    1        0.023  -1.543  -2.174  0.00  0.00    -0.550 OA
ATOM     10  H   LIG    1        0.441  -1.999  -2.917  0.00  0.00    +0.370 HD
ENDBRANCH   3   9
BRANCH   5  11
ATOM     11  C   LIG    1        2.507  -2.511   1.848  0.00  0.00    +0.190 C 
BRANCH  11  12
ATOM     12  O   LIG    1        3.637  -1.720   1.474  0.00  0.00    -0.560 OA
ATOM     13  H   LIG    1        4.435  -1.906   1.988  0.00  0.00    +0.380 HD
ENDBRANCH  11  12
ENDBRANCH   5  11
BRANCH   6  14
ATOM     14  C   LIG    1        0.109  -0.545   2.376  0.00  0.00    +0.300 C 
BRANCH  14  15
ATOM     15  C   LIG    1       -1.208  -1.248   2.172  0.00  0.00    -0.280 A 
ATOM     16  C   LIG    1       -2.349  -0.682   1.715  0.00  0.00    +0.240 A 
ATOM     17  N   LIG    1       -3.297  -1.642   1.676  0.00  0.00    -0.370 N 
ATOM     18  N   LIG    1       -2.720  -2.837   2.125  0.00  0.00    -0.290 NA
ATOM     19  C   LIG    1       -4.685  -1.466   1.242  0.00  0.00    +0.360 C 
ATOM     20  C   LIG    1       -1.466  -2.600   2.416  0.00  0.00    +0.240 A 
ENDBRANCH  14  15
ENDBRANCH   6  14
TORSDOF 6
ENDMDL
MODEL       92
REMARK  Name = ZINC000585295436
REMARK                            x       y       z     vdW  Elec       q    Type
REMARK                         _______ _______ _______ _____ _____    ______ ____
ROOT
ATOM      1  C   LIG    1        0.206   1.168  -0.262  0.00  0.00    +0.050 C 
ATOM      2  C   LIG    1        0.190  -0.348  -0.052  0.00  0.00    +0.140 C 
ATOM      3  C   LIG    1        0.945  -1.058  -1.196  0.00  0.00    +0.140 C 
ATOM      4  C   LIG    1        1.681  -2.234  -0.521  0.00  0.00    +0.150 C 
ATOM      5  C   LIG    1        1.309  -2.135   0.974  0.00  0.00    +0.160 C 
ATOM      6  N   LIG    1        0.942  -0.709   1.177  0.00  0.00    -0.480 NA
ENDROOT
BRANCH   4   7
ATOM      7  O   LIG    1        1.234  -3.477  -1.065  0.00  0.00    -0.550 OA
ATOM      8  H   LIG    1        1.402  -3.575  -2.012  0.00  0.00    +0.380 HD
ENDBRANCH   4   7
BRANCH   3   9
ATOM      9  O   LIG    1        0.023  -1.543  -2.174  0.00  0.00    -0.550 OA
ATOM     10  H   LIG    1        0.441  -1.999  -2.917  0.00  0.00    +0.370 HD
ENDBRANCH   3   9
BRANCH   5  11
ATOM     11  C   LIG    1        2.507  -2.511   1.848  0.00  0.00    +0.190 C 
BRANCH  11  12
ATOM     12  O   LIG    1        3.637  -1.720   1.474  0.00  0.00    -0.560 OA
ATOM     13  H   LIG    1        4.435  -1.906   1.988  0.00  0.00    +0.380 HD
ENDBRANCH  11  12
ENDBRANCH   5  11
BRANCH   6  14
ATOM     14  C   LIG    1        0.109  -0.545   2.376  0.00  0.00    +0.300 C 
BRANCH  14  15
ATOM     15  C   LIG    1       -1.208  -1.248   2.172  0.00  0.00    -0.280 A 
ATOM     16  C   LIG    1       -2.349  -0.682   1.715  0.00  0.00    +0.240 A 
ATOM     17  N   LIG    1       -3.297  -1.642   1.676  0.00  0.00    -0.370 N 
ATOM     18  N   LIG    1       -2.720  -2.837   2.125  0.00  0.00    -0.290 NA
ATOM     19  C   LIG    1       -4.685  -1.466   1.242  0.00  0.00    +0.360 C 
ATOM     20  C   LIG    1       -1.466  -2.600   2.416  0.00  0.00    +0.240 A 
ENDBRANCH  14  15
ENDBRANCH   6  14
TORSDOF 6
ENDMDL
MODEL       93
REMARK  Name = ZINC000022830038
REMARK                            x       y       z     vdW  Elec       q    Type
REMARK                         _______ _______ _______ _____ _____    ______ ____
ROOT
ATOM      1  C   LIG    1       -0.568  -4.068   1.006  0.00  0.00    +0.180 C 
ENDROOT
BRANCH   1   6
ATOM      2  C   LIG    1       -0.018   1.465   0.010  0.00  0.00    +0.190 C 
ATOM      3  N   LIG    1        0.002  -0.004   0.002  0.00  0.00    -0.550 NA
ATOM      4  C   LIG    1       -1.360  -0.549  -0.079  0.00  0.00    +0.180 C 
ATOM      5  C   LIG    1       -1.292  -2.075  -0.165  0.00  0.00    +0.190 C 
ATOM      6  N   LIG    1       -0.588  -2.599   1.014  0.00  0.00    -0.540 NA
ATOM      7  C   LIG    1        0.774  -2.054   1.095  0.00  0.00    +0.190 C 
ATOM      8  C   LIG    1        0.706  -0.528   1.181  0.00  0.00    +0.180 C 
ENDBRANCH   1   6
BRANCH   1   9
ATOM      9  C   LIG    1       -0.055  -4.578   2.354  0.00  0.00    +0.270 C 
BRANCH   9  10
ATOM     10  N   LIG    1       -0.035  -6.043   2.345  0.00  0.00    -1.120 NA
ATOM     11  H   LIG    1       -0.517  -6.531   1.659  0.00  0.00    +0.420 HD
BRANCH  10  12
ATOM     12  S   LIG    1        0.810  -6.866   3.508  0.00  0.00    +2.620 S 
ATOM     13  O   LIG    1        2.102  -6.274   3.487  0.00  0.00    -0.960 OA
ATOM     14  O   LIG    1        0.626  -8.235   3.172  0.00  0.00    -0.960 OA
ATOM     15  C   LIG    1       -0.047  -6.470   5.057  0.00  0.00    -0.280 C 
ENDBRANCH  10  12
ENDBRANCH   9  10
ENDBRANCH   1   9
TORSDOF 4
ENDMDL
MODEL       94
REMARK  Name = ZINC000016123955
REMARK                            x       y       z     vdW  Elec       q    Type
REMARK                         _______ _______ _______ _____ _____    ______ ____
ROOT
ATOM      1  C   LIG    1       -2.571  -2.688   0.012  0.00  0.00    +0.140 C 
ATOM      2  N   LIG    1       -3.316  -2.106  -1.111  0.00  0.00    -0.680 NA
ATOM      3  H   LIG    1       -3.262  -1.099  -1.098  0.00  0.00    +0.350 HD
ATOM      4  C   LIG    1       -4.713  -2.558  -1.113  0.00  0.00    +0.160 C 
ATOM      5  C   LIG    1       -4.760  -4.078  -1.280  0.00  0.00    +0.150 C 
ATOM      6  C   LIG    1       -3.992  -4.736  -0.130  0.00  0.00    +0.150 C 
ATOM      7  C   LIG    1       -2.553  -4.213  -0.121  0.00  0.00    +0.210 C 
ENDROOT
BRANCH   6   8
ATOM      8  O   LIG    1       -3.985  -6.154  -0.311  0.00  0.00    -0.560 OA
ATOM      9  H   LIG    1       -4.866  -6.552  -0.330  0.00  0.00    +0.390 HD
ENDBRANCH   6   8
BRANCH   5  10
ATOM     10  O   LIG    1       -6.119  -4.519  -1.262  0.00  0.00    -0.570 OA
ATOM     11  H   LIG    1       -6.665  -4.139  -1.963  0.00  0.00    +0.390 HD
ENDBRANCH   5  10
BRANCH   7  12
ATOM     12  O   LIG    1       -1.846  -4.780   0.983  0.00  0.00    -0.560 OA
ATOM     13  H   LIG    1       -1.798  -5.746   0.964  0.00  0.00    +0.390 HD
ENDBRANCH   7  12
BRANCH   1  14
ATOM     14  C   LIG    1       -1.136  -2.159   0.001  0.00  0.00    +0.300 C 
BRANCH  14  17
ATOM     15  C   LIG    1       -0.018   1.503   0.010  0.00  0.00    +0.090 C 
ATOM     16  C   LIG    1        0.002  -0.004   0.002  0.00  0.00    +0.510 C 
ATOM     17  N   LIG    1       -1.156  -0.694   0.009  0.00  0.00    -0.730 N 
ATOM     18  H   LIG    1       -2.002  -0.220   0.020  0.00  0.00    +0.400 HD
ATOM     19  O   LIG    1        1.060  -0.596  -0.011  0.00  0.00    -0.540 OA
ENDBRANCH  14  17
ENDBRANCH   1  14
TORSDOF 5
ENDMDL
MODEL       95
REMARK  Name = ZINC000205681914
REMARK                            x       y       z     vdW  Elec       q    Type
REMARK                         _______ _______ _______ _____ _____    ______ ____
ROOT
ATOM      1  C   LIG    1       -1.349  -0.526  -0.240  0.00  0.00    +0.150 C 
ATOM      2  C   LIG    1       -2.305  -0.153   0.920  0.00  0.00    +0.300 C 
ATOM      3  N   LIG    1       -3.360  -1.182   0.887  0.00  0.00    -1.020 NA
ATOM      4  C   LIG    1       -2.822  -2.387   0.239  0.00  0.00    +0.250 C 
ATOM      5  C   LIG    1       -1.367  -2.076  -0.173  0.00  0.00    +0.190 C 
ENDROOT
BRANCH   1   7
ATOM      6  C   LIG    1        0.930  -0.437  -1.051  0.00  0.00    +0.210 C 
ATOM      7  N   LIG    1        0.002  -0.004   0.002  0.00  0.00    -0.540 NA
ATOM      8  C   LIG    1       -0.013   1.460   0.121  0.00  0.00    +0.190 C 
ENDBRANCH   1   7
BRANCH   3   9
ATOM      9  S   LIG    1       -4.896  -1.009   1.480  0.00  0.00    +2.800 S 
ATOM     10  O   LIG    1       -4.834   0.014   2.464  0.00  0.00    -0.970 OA
ATOM     11  O   LIG    1       -5.371  -2.321   1.752  0.00  0.00    -0.970 OA
BRANCH   9  12
ATOM     12  N   LIG    1       -5.833  -0.419   0.249  0.00  0.00    -1.010 NA
ATOM     13  C   LIG    1       -5.975   1.028   0.066  0.00  0.00    +0.290 C 
ATOM     14  C   LIG    1       -6.521  -1.342  -0.657  0.00  0.00    +0.290 C 
ENDBRANCH   9  12
ENDBRANCH   3   9
BRANCH   5  15
ATOM     15  O   LIG    1       -1.070  -2.646  -1.449  0.00  0.00    -0.560 OA
ATOM     16  H   LIG    1       -1.143  -3.610  -1.476  0.00  0.00    +0.380 HD
ENDBRANCH   5  15
TORSDOF 4
ENDMDL
MODEL       96
REMARK  Name = ZINC000585656245
REMARK                            x       y       z     vdW  Elec       q    Type
REMARK                         _______ _______ _______ _____ _____    ______ ____
ROOT
ATOM      1  N   LIG    1        0.002  -0.004   0.002  0.00  0.00    -0.480 N 
ATOM      2  C   LIG    1       -1.183  -0.876   0.003  0.00  0.00    +0.310 C 
ATOM      3  C   LIG    1       -0.592  -2.299  -0.008  0.00  0.00    +0.200 C 
ATOM      4  O   LIG    1        0.849  -2.082  -0.014  0.00  0.00    -0.290 OA
ATOM      5  C   LIG    1        1.103  -0.768  -0.013  0.00  0.00    +0.630 C 
ATOM      6  O   LIG    1        2.228  -0.310  -0.017  0.00  0.00    -0.510 OA
ENDROOT
BRANCH   3   7
ATOM      7  C   LIG    1       -1.022  -3.040  -1.248  0.00  0.00    +0.510 C 
ATOM      8  N   LIG    1       -2.324  -3.335  -1.439  0.00  0.00    -0.610 N 
ATOM      9  C   LIG    1       -3.340  -2.937  -0.453  0.00  0.00    +0.280 C 
ATOM     10  C   LIG    1       -4.182  -4.167  -0.098  0.00  0.00    +0.170 C 
ATOM     11  N   LIG    1       -4.712  -4.765  -1.331  0.00  0.00    -0.690 NA
ATOM     12  H   LIG    1       -5.365  -5.506  -1.121  0.00  0.00    +0.350 HD
ATOM     13  C   LIG    1       -3.629  -5.249  -2.197  0.00  0.00    +0.170 C 
ATOM     14  C   LIG    1       -2.765  -4.057  -2.641  0.00  0.00    +0.300 C 
ATOM     15  O   LIG    1       -0.198  -3.372  -2.073  0.00  0.00    -0.500 OA
ENDBRANCH   3   7
BRANCH   1  16
ATOM     16  N   LIG    1       -0.016   1.362   0.009  0.00  0.00    -0.560 NA
ATOM     17  H   LIG    1       -0.555   1.720  -0.765  0.00  0.00    +0.350 HD
ATOM     18  H   LIG    1        0.920   1.736   0.003  0.00  0.00    +0.380 HD
ENDBRANCH   1  16
TORSDOF 2
ENDMDL
MODEL       97
REMARK  Name = ZINC000019366703
REMARK                            x       y       z     vdW  Elec       q    Type
REMARK                         _______ _______ _______ _____ _____    ______ ____
ROOT
ATOM      1  C   LIG    1       -1.506  -1.933  -0.055  0.00  0.00    +0.000 C 
ATOM      2  C   LIG    1       -0.657  -2.507   1.063  0.00  0.00    +0.510 C 
ATOM      3  N   LIG    1       -1.269  -3.302   1.966  0.00  0.00    -0.680 NA
ATOM      4  C   LIG    1       -2.575  -3.584   1.892  0.00  0.00    +0.660 C 
ATOM      5  N   LIG    1       -3.401  -3.126   0.945  0.00  0.00    -0.690 N 
ATOM      6  H   LIG    1       -4.336  -3.384   0.971  0.00  0.00    +0.410 HD
ATOM      7  O   LIG    1       -3.044  -4.308   2.747  0.00  0.00    -0.550 OA
ATOM      8  O   LIG    1        0.527  -2.260   1.144  0.00  0.00    -0.550 OA
ATOM      9  C   LIG    1       -2.974  -2.315  -0.046  0.00  0.00    +0.510 C 
ATOM     10  O   LIG    1       -3.735  -1.909  -0.898  0.00  0.00    -0.510 OA
ENDROOT
BRANCH   1  11
ATOM     11  N   LIG    1       -0.927  -2.370  -1.333  0.00  0.00    -0.810 NA
ATOM     12  H   LIG    1       -1.386  -1.919  -2.111  0.00  0.00    +0.350 HD
ATOM     13  H   LIG    1       -0.967  -3.374  -1.423  0.00  0.00    +0.360 HD
ENDBRANCH   1  11
BRANCH   1  14
ATOM     14  C   LIG    1       -1.411  -0.407   0.009  0.00  0.00    +0.280 C 
BRANCH  14  16
ATOM     15  C   LIG    1        0.684  -0.430  -1.160  0.00  0.00    +0.310 C 
ATOM     16  N   LIG    1        0.001  -0.007   0.070  0.00  0.00    -0.380 N 
ATOM     17  C   LIG    1        0.091   1.453   0.202  0.00  0.00    +0.290 C 
ATOM     18  H   LIG    1        0.441  -0.444   0.866  0.00  0.00    +0.430 HD
ENDBRANCH  14  16
ENDBRANCH   1  14
TORSDOF 3
ENDMDL
MODEL       98
REMARK  Name = ZINC000247723560
REMARK                            x       y       z     vdW  Elec       q    Type
REMARK                         _______ _______ _______ _____ _____    ______ ____
ROOT
ATOM      1  C   LIG    1       -1.416  -2.058  -0.121  0.00  0.00    +0.160 C 
ENDROOT
BRANCH   1   2
ATOM      2  O   LIG    1       -0.783  -2.420  -1.350  0.00  0.00    -0.550 OA
ATOM      3  H   LIG    1       -1.223  -2.070  -2.137  0.00  0.00    +0.380 HD
ENDBRANCH   1   2
BRANCH   1   4
ATOM      4  C   LIG    1       -1.433  -0.534   0.013  0.00  0.00    +0.200 C 
BRANCH   4   5
ATOM      5  O   LIG    1       -2.066  -0.171   1.242  0.00  0.00    -0.530 OA
ATOM      6  H   LIG    1       -1.626  -0.521   2.029  0.00  0.00    +0.370 HD
ENDBRANCH   4   5
BRANCH   4   7
ATOM      7  C   LIG    1        0.002  -0.004   0.002  0.00  0.00    +0.150 C 
BRANCH   7   8
ATOM      8  O   LIG    1       -0.017   1.425   0.010  0.00  0.00    -0.570 OA
ATOM      9  H   LIG    1        0.861   1.830   0.004  0.00  0.00    +0.380 HD
ENDBRANCH   7   8
ENDBRANCH   4   7
ENDBRANCH   1   4
BRANCH   1  10
ATOM     10  C   LIG    1       -2.851  -2.587  -0.110  0.00  0.00    +0.210 C 
BRANCH  10  11
ATOM     11  C   LIG    1       -2.833  -4.111  -0.244  0.00  0.00    +0.240 C 
ATOM     12  N   LIG    1       -4.215  -4.640  -0.316  0.00  0.00    -0.670 NA
ATOM     13  H   LIG    1       -4.868  -4.005   0.118  0.00  0.00    +0.360 HD
ATOM     14  C   LIG    1       -4.297  -5.981   0.292  0.00  0.00    +0.240 C 
ATOM     15  C   LIG    1       -3.591  -5.907   1.674  0.00  0.00    +0.110 C 
ATOM     16  S   LIG    1       -2.122  -4.878   1.261  0.00  0.00    -0.330 S 
ENDBRANCH  10  11
BRANCH  10  17
ATOM     17  O   LIG    1       -3.483  -2.224   1.119  0.00  0.00    -0.530 OA
ATOM     18  H   LIG    1       -3.044  -2.575   1.906  0.00  0.00    +0.380 HD
ENDBRANCH  10  17
ENDBRANCH   1  10
TORSDOF 8
ENDMDL
MODEL       99
REMARK  Name = ZINC000034248196
REMARK                            x       y       z     vdW  Elec       q    Type
REMARK                         _______ _______ _______ _____ _____    ______ ____
ROOT
ATOM      1  C   LIG    1        0.038  -0.165  -0.263  0.00  0.00    +0.190 C 
ATOM      2  C   LIG    1       -1.437  -0.565  -0.035  0.00  0.00    +0.450 C 
ATOM      3  O   LIG    1       -1.982  -0.735  -1.362  0.00  0.00    -0.330 OA
ATOM      4  C   LIG    1       -0.946  -1.403  -2.116  0.00  0.00    +0.110 C 
ATOM      5  C   LIG    1        0.371  -0.729  -1.662  0.00  0.00    +0.130 C 
ENDROOT
BRANCH   2   6
ATOM      6  N   LIG    1       -1.515  -1.820   0.716  0.00  0.00    -0.550 N 
ATOM      7  C   LIG    1       -1.995  -2.947   0.105  0.00  0.00    +0.340 A 
ATOM      8  C   LIG    1       -2.066  -4.104   0.798  0.00  0.00    -0.120 A 
ATOM      9  C   LIG    1       -1.640  -4.126   2.148  0.00  0.00    +0.550 A 
ATOM     10  N   LIG    1       -1.174  -2.994   2.713  0.00  0.00    -0.660 N 
ATOM     11  H   LIG    1       -0.880  -3.002   3.638  0.00  0.00    +0.430 HD
ATOM     12  O   LIG    1       -1.695  -5.158   2.792  0.00  0.00    -0.510 OA
ATOM     13  C   LIG    1       -1.109  -1.856   1.998  0.00  0.00    +0.700 A 
ATOM     14  O   LIG    1       -0.685  -0.843   2.521  0.00  0.00    -0.520 OA
ENDBRANCH   2   6
BRANCH   1  15
ATOM     15  N   LIG    1        0.183   1.297  -0.249  0.00  0.00    -0.810 NA
ATOM     16  H   LIG    1       -0.445   1.729  -0.911  0.00  0.00    +0.350 HD
ATOM     17  H   LIG    1        1.138   1.567  -0.428  0.00  0.00    +0.360 HD
ENDBRANCH   1  15
BRANCH   5  18
ATOM     18  O   LIG    1        0.729   0.325  -2.558  0.00  0.00    -0.550 OA
ATOM     19  H   LIG    1        0.888   0.033  -3.466  0.00  0.00    +0.390 HD
ENDBRANCH   5  18
BRANCH   4  20
ATOM     20  C   LIG    1       -1.163  -1.198  -3.616  0.00  0.00    +0.210 C 
BRANCH  20  21
ATOM     21  O   LIG    1       -2.360  -1.866  -4.020  0.00  0.00    -0.560 OA
ATOM     22  H   LIG    1       -2.561  -1.778  -4.962  0.00  0.00    +0.390 HD
ENDBRANCH  20  21
ENDBRANCH   4  20
TORSDOF 5
ENDMDL
MODEL      100
REMARK  Name = ZINC000001736143
REMARK                            x       y       z     vdW  Elec       q    Type
REMARK                         _______ _______ _______ _____ _____    ______ ____
ROOT
ATOM      1  C   LIG    1       -0.018   1.461   0.010  0.00  0.00    +0.360 C 
ATOM      2  N   LIG    1        0.002  -0.004   0.002  0.00  0.00    -0.550 N 
ATOM      3  C   LIG    1        0.005  -0.662  -1.170  0.00  0.00    +0.710 A 
ATOM      4  N   LIG    1        0.024  -2.006  -1.220  0.00  0.00    -0.630 N 
ATOM      5  H   LIG    1        0.026  -2.457  -2.079  0.00  0.00    +0.440 HD
ATOM      6  C   LIG    1        0.040  -2.747  -0.059  0.00  0.00    +0.400 A 
ATOM      7  C   LIG    1        0.036  -2.093   1.155  0.00  0.00    -0.070 A 
ATOM      8  N   LIG    1        0.051  -2.805   2.352  0.00  0.00    -0.590 N 
ATOM      9  H   LIG    1        0.048  -2.333   3.200  0.00  0.00    +0.440 HD
ATOM     10  C   LIG    1        0.070  -4.155   2.328  0.00  0.00    +0.510 A 
ATOM     11  C   LIG    1        0.074  -4.850   1.010  0.00  0.00    +0.520 A 
ATOM     12  O   LIG    1        0.090  -6.063   0.955  0.00  0.00    -0.440 OA
ATOM     13  O   LIG    1        0.082  -4.792   3.363  0.00  0.00    -0.460 OA
ATOM     14  N   LIG    1        0.058  -4.116  -0.121  0.00  0.00    -0.520 N 
ATOM     15  C   LIG    1        0.061  -4.786  -1.424  0.00  0.00    +0.340 C 
ATOM     16  O   LIG    1       -0.008  -0.029  -2.208  0.00  0.00    -0.520 OA
ATOM     17  C   LIG    1        0.022  -0.677   1.170  0.00  0.00    +0.570 A 
ATOM     18  O   LIG    1        0.019  -0.073   2.228  0.00  0.00    -0.490 OA
ENDROOT
TORSDOF 0
ENDMDL
MODEL      101
REMARK  Name = ZINC000016943074
REMARK                            x       y       z     vdW  Elec       q    Type
REMARK                         _______ _______ _______ _____ _____    ______ ____
ROOT
ATOM      1  C   LIG    1       -0.018   1.461   0.010  0.00  0.00    +0.360 C 
ATOM      2  N   LIG    1        0.002  -0.004   0.002  0.00  0.00    -0.550 N 
ATOM      3  C   LIG    1        0.005  -0.664  -1.173  0.00  0.00    +0.570 A 
ATOM      4  C   LIG    1        0.025  -2.080  -1.173  0.00  0.00    -0.070 A 
ATOM      5  C   LIG    1        0.040  -2.747   0.033  0.00  0.00    +0.400 A 
ATOM      6  N   LIG    1        0.035  -2.019   1.202  0.00  0.00    -0.530 N 
ATOM      7  C   LIG    1        0.051  -2.714   2.491  0.00  0.00    +0.360 C 
ATOM      8  N   LIG    1        0.058  -4.117   0.080  0.00  0.00    -0.630 N 
ATOM      9  H   LIG    1        0.068  -4.570   0.938  0.00  0.00    +0.430 HD
ATOM     10  C   LIG    1        0.062  -4.839  -1.059  0.00  0.00    +0.520 A 
ATOM     11  C   LIG    1        0.047  -4.129  -2.370  0.00  0.00    +0.510 A 
ATOM     12  O   LIG    1        0.051  -4.755  -3.412  0.00  0.00    -0.460 OA
ATOM     13  O   LIG    1        0.078  -6.053  -1.018  0.00  0.00    -0.440 OA
ATOM     14  N   LIG    1        0.028  -2.779  -2.379  0.00  0.00    -0.590 N 
ATOM     15  H   LIG    1        0.018  -2.298  -3.221  0.00  0.00    +0.440 HD
ATOM     16  O   LIG    1       -0.007  -0.049  -2.225  0.00  0.00    -0.490 OA
ATOM     17  C   LIG    1        0.022  -0.675   1.167  0.00  0.00    +0.710 A 
ATOM     18  O   LIG    1        0.019  -0.053   2.212  0.00  0.00    -0.520 OA
ENDROOT
TORSDOF 0
ENDMDL
MODEL      102
REMARK  Name = ZINC000001549582
REMARK                            x       y       z     vdW  Elec       q    Type
REMARK                         _______ _______ _______ _____ _____    ______ ____
ROOT
ATOM      1  C   LIG    1       -1.412  -0.526   0.013  0.00  0.00    +0.530 C 
ATOM      2  N   LIG    1       -1.640  -1.854   0.008  0.00  0.00    -0.610 N 
ATOM      3  C   LIG    1       -0.605  -2.904  -0.001  0.00  0.00    +0.250 C 
ATOM      4  C   LIG    1       -1.297  -4.148   0.609  0.00  0.00    +0.040 C 
ATOM      5  C   LIG    1       -2.731  -4.022   0.031  0.00  0.00    +0.050 C 
ATOM      6  C   LIG    1       -2.962  -2.496   0.017  0.00  0.00    +0.230 C 
ATOM      7  O   LIG    1       -2.344   0.250   0.026  0.00  0.00    -0.510 OA
ENDROOT
BRANCH   6   8
ATOM      8  C   LIG    1       -3.727  -2.105  -1.222  0.00  0.00    +0.510 C 
ATOM      9  N   LIG    1       -4.965  -2.594  -1.432  0.00  0.00    -0.720 N 
ATOM     10  H   LIG    1       -5.364  -3.197  -0.786  0.00  0.00    +0.410 HD
ATOM     11  O   LIG    1       -3.227  -1.351  -2.030  0.00  0.00    -0.520 OA
BRANCH   9  12
ATOM     12  C   LIG    1       -5.707  -2.214  -2.636  0.00  0.00    +0.300 C 
BRANCH  12  13
ATOM     13  C   LIG    1       -7.054  -2.891  -2.631  0.00  0.00    +0.510 C 
ATOM     14  O   LIG    1       -7.362  -3.620  -1.712  0.00  0.00    -0.540 OA
ATOM     15  N   LIG    1       -7.915  -2.688  -3.648  0.00  0.00    -0.850 N 
ATOM     16  H   LIG    1       -8.781  -3.124  -3.644  0.00  0.00    +0.410 HD
ATOM     17  H   LIG    1       -7.668  -2.105  -4.383  0.00  0.00    +0.410 HD
ENDBRANCH  12  13
ENDBRANCH   9  12
ENDBRANCH   6   8
BRANCH   1  18
ATOM     18  C   LIG    1        0.002  -0.004   0.002  0.00  0.00    +0.210 C 
BRANCH  18  19
ATOM     19  N   LIG    1       -0.018   1.465   0.010  0.00  0.00    -0.830 NA
ATOM     20  H   LIG    1       -0.556   1.823  -0.764  0.00  0.00    +0.350 HD
ATOM     21  H   LIG    1        0.919   1.839   0.003  0.00  0.00    +0.350 HD
ENDBRANCH  18  19
ENDBRANCH   1  18
TORSDOF 5
ENDMDL
MODEL      103
REMARK  Name = ZINC000006083389
REMARK                            x       y       z     vdW  Elec       q    Type
REMARK                         _______ _______ _______ _____ _____    ______ ____
ROOT
ATOM      1  C   LIG    1       -0.018   1.461   0.010  0.00  0.00    +0.350 C 
ATOM      2  N   LIG    1        0.002  -0.004   0.002  0.00  0.00    -0.410 N 
ATOM      3  C   LIG    1        0.009  -0.800  -1.085  0.00  0.00    +0.290 A 
ATOM      4  N   LIG    1        0.028  -2.054  -0.714  0.00  0.00    -0.470 NA
ATOM      5  C   LIG    1        0.034  -2.132   0.619  0.00  0.00    +0.320 A 
ATOM      6  N   LIG    1        0.053  -3.184   1.520  0.00  0.00    -0.510 N 
ATOM      7  C   LIG    1        0.063  -4.565   1.032  0.00  0.00    +0.350 C 
ATOM      8  C   LIG    1        0.052  -2.939   2.844  0.00  0.00    +0.710 A 
ATOM      9  O   LIG    1        0.064  -3.876   3.620  0.00  0.00    -0.530 OA
ATOM     10  N   LIG    1        0.042  -1.686   3.330  0.00  0.00    -0.550 N 
ATOM     11  C   LIG    1        0.046  -1.474   4.780  0.00  0.00    +0.350 C 
ATOM     12  C   LIG    1        0.028  -0.620   2.503  0.00  0.00    +0.600 A 
ATOM     13  O   LIG    1        0.019   0.510   2.955  0.00  0.00    -0.510 OA
ATOM     14  C   LIG    1        0.024  -0.831   1.107  0.00  0.00    -0.150 A 
ENDROOT
BRANCH   3  15
ATOM     15  C   LIG    1       -0.004  -0.317  -2.513  0.00  0.00    +0.320 C 
BRANCH  15  16
ATOM     16  N   LIG    1        1.377  -0.142  -2.982  0.00  0.00    -0.840 NA
ATOM     17  H   LIG    1        1.888   0.485  -2.378  0.00  0.00    +0.340 HD
ATOM     18  H   LIG    1        1.396   0.181  -3.938  0.00  0.00    +0.360 HD
ENDBRANCH  15  16
ENDBRANCH   3  15
TORSDOF 2
ENDMDL
MODEL      104
REMARK  Name = ZINC000585656246
REMARK                            x       y       z     vdW  Elec       q    Type
REMARK                         _______ _______ _______ _____ _____    ______ ____
ROOT
ATOM      1  N   LIG    1        0.002  -0.004   0.002  0.00  0.00    -0.480 N 
ATOM      2  C   LIG    1       -1.183  -0.876   0.003  0.00  0.00    +0.300 C 
ATOM      3  C   LIG    1       -0.592  -2.299  -0.008  0.00  0.00    +0.200 C 
ATOM      4  O   LIG    1        0.849  -2.082  -0.014  0.00  0.00    -0.290 OA
ATOM      5  C   LIG    1        1.103  -0.768  -0.013  0.00  0.00    +0.630 C 
ATOM      6  O   LIG    1        2.228  -0.310  -0.017  0.00  0.00    -0.510 OA
ENDROOT
BRANCH   3   7
ATOM      7  C   LIG    1       -1.010  -3.054   1.227  0.00  0.00    +0.510 C 
ATOM      8  N   LIG    1       -2.310  -3.351   1.427  0.00  0.00    -0.610 N 
ATOM      9  C   LIG    1       -3.334  -2.952   0.450  0.00  0.00    +0.270 C 
ATOM     10  C   LIG    1       -4.457  -2.221   1.193  0.00  0.00    +0.170 C 
ATOM     11  N   LIG    1       -4.942  -3.064   2.293  0.00  0.00    -0.690 NA
ATOM     12  H   LIG    1       -5.759  -2.659   2.726  0.00  0.00    +0.350 HD
ATOM     13  C   LIG    1       -3.886  -3.306   3.285  0.00  0.00    +0.170 C 
ATOM     14  C   LIG    1       -2.740  -4.088   2.625  0.00  0.00    +0.300 C 
ATOM     15  O   LIG    1       -0.178  -3.395   2.040  0.00  0.00    -0.500 OA
ENDBRANCH   3   7
BRANCH   1  16
ATOM     16  N   LIG    1       -0.016   1.362   0.009  0.00  0.00    -0.560 NA
ATOM     17  H   LIG    1       -0.555   1.720  -0.765  0.00  0.00    +0.350 HD
ATOM     18  H   LIG    1        0.920   1.736   0.003  0.00  0.00    +0.380 HD
ENDBRANCH   1  16
TORSDOF 2
ENDMDL
MODEL      105
REMARK  Name = ZINC000082225302
REMARK                            x       y       z     vdW  Elec       q    Type
REMARK                         _______ _______ _______ _____ _____    ______ ____
ROOT
ATOM      1  C   LIG    1        0.002  -0.004   0.002  0.00  0.00    +0.120 C 
ATOM      2  C   LIG    1        0.648  -0.555   1.296  0.00  0.00    +0.170 C 
ATOM      3  C   LIG    1       -0.235  -1.758   1.677  0.00  0.00    +0.130 C 
ATOM      4  O   LIG    1       -1.242  -1.889   0.659  0.00  0.00    -0.310 OA
ATOM      5  C   LIG    1       -1.435  -0.577   0.087  0.00  0.00    +0.420 C 
ENDROOT
BRANCH   5   6
ATOM      6  N   LIG    1       -2.034  -0.680  -1.247  0.00  0.00    -0.540 N 
ATOM      7  C   LIG    1       -2.266   0.456  -1.974  0.00  0.00    +0.350 A 
ATOM      8  C   LIG    1       -2.817   0.361  -3.203  0.00  0.00    -0.100 A 
ATOM      9  C   LIG    1       -3.145  -0.917  -3.715  0.00  0.00    +0.550 A 
ATOM     10  N   LIG    1       -2.901  -2.012  -2.966  0.00  0.00    -0.660 N 
ATOM     11  H   LIG    1       -3.123  -2.892  -3.310  0.00  0.00    +0.430 HD
ATOM     12  O   LIG    1       -3.643  -1.028  -4.821  0.00  0.00    -0.510 OA
ATOM     13  C   LIG    1       -2.346  -1.889  -1.746  0.00  0.00    +0.690 A 
ATOM     14  O   LIG    1       -2.131  -2.885  -1.083  0.00  0.00    -0.490 OA
ENDBRANCH   5   6
BRANCH   1  15
ATOM     15  N   LIG    1       -0.018   1.465   0.010  0.00  0.00    -0.820 NA
ATOM     16  H   LIG    1       -0.556   1.823  -0.764  0.00  0.00    +0.340 HD
ATOM     17  H   LIG    1        0.919   1.839   0.003  0.00  0.00    +0.360 HD
ENDBRANCH   1  15
BRANCH   2  18
ATOM     18  O   LIG    1        0.623   0.434   2.328  0.00  0.00    -0.530 OA
ATOM     19  H   LIG    1        1.016   0.142   3.162  0.00  0.00    +0.380 HD
ENDBRANCH   2  18
BRANCH   3  20
ATOM     20  C   LIG    1        0.615  -3.029   1.739  0.00  0.00    +0.200 C 
BRANCH  20  21
ATOM     21  O   LIG    1       -0.187  -4.116   2.205  0.00  0.00    -0.560 OA
ATOM     22  H   LIG    1        0.288  -4.956   2.269  0.00  0.00    +0.380 HD
ENDBRANCH  20  21
ENDBRANCH   3  20
TORSDOF 5
ENDMDL
MODEL      106
REMARK  Name = ZINC000247723557
REMARK                            x       y       z     vdW  Elec       q    Type
REMARK                         _______ _______ _______ _____ _____    ______ ____
ROOT
ATOM      1  C   LIG    1       -1.416  -2.058  -0.121  0.00  0.00    +0.150 C 
ENDROOT
BRANCH   1   2
ATOM      2  O   LIG    1       -0.783  -2.420  -1.350  0.00  0.00    -0.530 OA
ATOM      3  H   LIG    1       -1.223  -2.070  -2.137  0.00  0.00    +0.380 HD
ENDBRANCH   1   2
BRANCH   1   4
ATOM      4  C   LIG    1       -1.433  -0.534   0.013  0.00  0.00    +0.200 C 
BRANCH   4   5
ATOM      5  O   LIG    1       -2.066  -0.171   1.242  0.00  0.00    -0.540 OA
ATOM      6  H   LIG    1       -1.626  -0.521   2.029  0.00  0.00    +0.370 HD
ENDBRANCH   4   5
BRANCH   4   7
ATOM      7  C   LIG    1        0.002  -0.004   0.002  0.00  0.00    +0.160 C 
BRANCH   7   8
ATOM      8  O   LIG    1       -0.017   1.425   0.010  0.00  0.00    -0.560 OA
ATOM      9  H   LIG    1        0.861   1.830   0.004  0.00  0.00    +0.380 HD
ENDBRANCH   7   8
ENDBRANCH   4   7
ENDBRANCH   1   4
BRANCH   1  10
ATOM     10  C   LIG    1       -2.851  -2.587  -0.110  0.00  0.00    +0.230 C 
BRANCH  10  11
ATOM     11  C   LIG    1       -2.840  -4.095  -0.369  0.00  0.00    +0.160 C 
ATOM     12  N   LIG    1       -4.228  -4.633  -0.433  0.00  0.00    -0.660 NA
ATOM     13  H   LIG    1       -4.629  -4.710   0.490  0.00  0.00    +0.350 HD
ATOM     14  C   LIG    1       -4.197  -5.945  -1.108  0.00  0.00    +0.190 C 
ATOM     15  C   LIG    1       -3.380  -5.827  -2.415  0.00  0.00    +0.100 C 
ATOM     16  S   LIG    1       -2.199  -4.466  -2.049  0.00  0.00    -0.210 S 
ENDBRANCH  10  11
BRANCH  10  17
ATOM     17  O   LIG    1       -3.607  -1.934  -1.132  0.00  0.00    -0.530 OA
ATOM     18  H   LIG    1       -3.261  -2.068  -2.024  0.00  0.00    +0.370 HD
ENDBRANCH  10  17
ENDBRANCH   1  10
TORSDOF 8
ENDMDL
MODEL      107
REMARK  Name = ZINC000008615468
REMARK                            x       y       z     vdW  Elec       q    Type
REMARK                         _______ _______ _______ _____ _____    ______ ____
ROOT
ATOM      1  C   LIG    1        0.018  -0.004   0.012  0.00  0.00    +0.670 A 
ATOM      2  N   LIG    1       -1.123  -0.658   0.018  0.00  0.00    -0.620 NA
ATOM      3  C   LIG    1       -1.156  -1.996   0.009  0.00  0.00    +0.490 A 
ATOM      4  C   LIG    1        0.035  -2.714  -0.010  0.00  0.00    -0.190 A 
ATOM      5  C   LIG    1        1.246  -2.007  -0.017  0.00  0.00    +0.560 A 
ATOM      6  O   LIG    1        2.313  -2.601  -0.033  0.00  0.00    -0.530 OA
ATOM      7  N   LIG    1        1.212  -0.658  -0.012  0.00  0.00    -0.660 N 
ATOM      8  H   LIG    1        2.040  -0.153  -0.017  0.00  0.00    +0.410 HD
ENDROOT
BRANCH   4   9
ATOM      9  N   LIG    1        0.025  -4.123  -0.021  0.00  0.00    -0.650 N 
ATOM     10  H   LIG    1       -0.397  -4.611   0.704  0.00  0.00    +0.400 HD
ATOM     11  C   LIG    1        0.602  -4.793  -1.038  0.00  0.00    +0.620 C 
ATOM     12  O   LIG    1        1.204  -4.186  -1.900  0.00  0.00    -0.530 OA
ENDBRANCH   4   9
BRANCH   1  13
ATOM     13  N   LIG    1        0.005   1.367   0.022  0.00  0.00    -0.820 N 
ATOM     14  H   LIG    1       -0.839   1.844   0.035  0.00  0.00    +0.430 HD
ATOM     15  H   LIG    1        0.841   1.860   0.013  0.00  0.00    +0.420 HD
ENDBRANCH   1  13
BRANCH   3  16
ATOM     16  N   LIG    1       -2.368  -2.662   0.016  0.00  0.00    -0.700 N 
ATOM     17  H   LIG    1       -2.389  -3.631   0.008  0.00  0.00    +0.410 HD
BRANCH  16  18
ATOM     18  C   LIG    1       -3.620  -1.902   0.034  0.00  0.00    +0.290 C 
BRANCH  18  19
ATOM     19  C   LIG    1       -4.805  -2.870   0.039  0.00  0.00    +0.180 C 
BRANCH  19  20
ATOM     20  O   LIG    1       -4.800  -3.622   1.254  0.00  0.00    -0.570 OA
ATOM     21  H   LIG    1       -5.525  -4.258   1.326  0.00  0.00    +0.380 HD
ENDBRANCH  19  20
ENDBRANCH  18  19
ENDBRANCH  16  18
ENDBRANCH   3  16
TORSDOF 6
ENDMDL
MODEL      108
REMARK  Name = ZINC000253495694
REMARK                            x       y       z     vdW  Elec       q    Type
REMARK                         _______ _______ _______ _____ _____    ______ ____
ROOT
ATOM      1  N   LIG    1       -2.607  -2.683  -0.010  0.00  0.00    -0.480 NA
ATOM      2  C   LIG    1       -3.466  -1.985   0.964  0.00  0.00    +0.150 C 
ATOM      3  C   LIG    1       -4.884  -2.553   0.938  0.00  0.00    +0.240 C 
ATOM      4  N   LIG    1       -4.867  -4.009   1.165  0.00  0.00    -0.660 NA
ATOM      5  H   LIG    1       -4.530  -4.227   2.091  0.00  0.00    +0.350 HD
ATOM      6  C   LIG    1       -4.037  -4.648   0.143  0.00  0.00    +0.210 C 
ATOM      7  C   LIG    1       -3.950  -6.177   0.314  0.00  0.00    -0.290 C 
ATOM      8  S   LIG    1       -2.474  -6.589  -0.700  0.00  0.00    +2.400 S 
ATOM      9  C   LIG    1       -1.686  -4.935  -0.626  0.00  0.00    -0.300 C 
ATOM     10  O   LIG    1       -2.881  -6.862  -2.034  0.00  0.00    -0.920 OA
ATOM     11  O   LIG    1       -1.668  -7.527   0.000  0.00  0.00    -0.930 OA
ATOM     12  C   LIG    1       -2.600  -4.113   0.289  0.00  0.00    +0.120 C 
ENDROOT
BRANCH   1  13
ATOM     13  C   LIG    1       -1.244  -2.135   0.003  0.00  0.00    +0.310 C 
BRANCH  13  14
ATOM     14  C   LIG    1       -0.669  -2.251   1.391  0.00  0.00    +0.430 C 
ATOM     15  O   LIG    1       -1.281  -2.839   2.251  0.00  0.00    -0.510 OA
BRANCH  14  17
ATOM     16  C   LIG    1        1.015  -1.852   3.029  0.00  0.00    +0.250 C 
ATOM     17  O   LIG    1        0.523  -1.702   1.671  0.00  0.00    -0.360 OA
ENDBRANCH  14  17
ENDBRANCH  13  14
ENDBRANCH   1  13
TORSDOF 3
ENDMDL
MODEL      109
REMARK  Name = ZINC000253495697
REMARK                            x       y       z     vdW  Elec       q    Type
REMARK                         _______ _______ _______ _____ _____    ______ ____
ROOT
ATOM      1  N   LIG    1       -2.647  -2.571   0.013  0.00  0.00    -0.500 NA
ATOM      2  C   LIG    1       -3.315  -2.233  -1.257  0.00  0.00    +0.190 C 
ATOM      3  C   LIG    1       -4.777  -2.674  -1.232  0.00  0.00    +0.200 C 
ATOM      4  N   LIG    1       -4.883  -4.111  -0.920  0.00  0.00    -0.670 NA
ATOM      5  H   LIG    1       -5.847  -4.409  -0.909  0.00  0.00    +0.350 HD
ATOM      6  C   LIG    1       -4.239  -4.376   0.364  0.00  0.00    +0.170 C 
ATOM      7  C   LIG    1       -4.324  -5.840   0.804  0.00  0.00    -0.300 C 
ATOM      8  S   LIG    1       -2.821  -6.100   1.822  0.00  0.00    +2.400 S 
ATOM      9  C   LIG    1       -2.094  -4.430   1.574  0.00  0.00    -0.300 C 
ATOM     10  O   LIG    1       -1.994  -7.074   1.202  0.00  0.00    -0.930 OA
ATOM     11  O   LIG    1       -3.196  -6.253   3.185  0.00  0.00    -0.930 OA
ATOM     12  C   LIG    1       -2.746  -4.012   0.244  0.00  0.00    +0.160 C 
ENDROOT
BRANCH   1  13
ATOM     13  C   LIG    1       -1.244  -2.135   0.003  0.00  0.00    +0.260 C 
BRANCH  13  14
ATOM     14  C   LIG    1       -1.185  -0.630   0.010  0.00  0.00    +0.460 C 
ATOM     15  O   LIG    1       -2.208   0.015   0.023  0.00  0.00    -0.490 OA
BRANCH  14  17
ATOM     16  C   LIG    1       -0.018   1.448   0.010  0.00  0.00    +0.260 C 
ATOM     17  O   LIG    1        0.002  -0.004   0.002  0.00  0.00    -0.360 OA
ENDBRANCH  14  17
ENDBRANCH  13  14
ENDBRANCH   1  13
TORSDOF 3
ENDMDL
MODEL      110
REMARK  Name = ZINC000253495812
REMARK                            x       y       z     vdW  Elec       q    Type
REMARK                         _______ _______ _______ _____ _____    ______ ____
ROOT
ATOM      1  N   LIG    1       -2.197  -0.222  -1.203  0.00  0.00    -0.510 NA
ATOM      2  C   LIG    1       -2.006   1.185  -1.601  0.00  0.00    +0.150 C 
ATOM      3  C   LIG    1       -2.794   1.498  -2.872  0.00  0.00    +0.230 C 
ATOM      4  N   LIG    1       -4.220   1.165  -2.696  0.00  0.00    -0.660 NA
ATOM      5  H   LIG    1       -4.644   1.750  -1.992  0.00  0.00    +0.340 HD
ATOM      6  C   LIG    1       -4.346  -0.250  -2.347  0.00  0.00    +0.200 C 
ATOM      7  C   LIG    1       -5.809  -0.683  -2.128  0.00  0.00    -0.290 C 
ATOM      8  S   LIG    1       -5.605  -2.256  -1.200  0.00  0.00    +2.390 S 
ATOM      9  C   LIG    1       -3.936  -1.902  -0.529  0.00  0.00    -0.300 C 
ATOM     10  O   LIG    1       -5.527  -3.337  -2.118  0.00  0.00    -0.930 OA
ATOM     11  O   LIG    1       -6.543  -2.298  -0.133  0.00  0.00    -0.930 OA
ATOM     12  C   LIG    1       -3.622  -0.480  -1.007  0.00  0.00    +0.140 C 
ENDROOT
BRANCH   1  13
ATOM     13  C   LIG    1       -1.433  -0.534   0.013  0.00  0.00    +0.240 C 
BRANCH  13  14
ATOM     14  C   LIG    1       -1.636   0.581   1.042  0.00  0.00    +0.130 C 
BRANCH  14  15
ATOM     15  O   LIG    1       -3.005   0.606   1.453  0.00  0.00    -0.570 OA
ATOM     16  H   LIG    1       -3.206   1.289   2.106  0.00  0.00    +0.380 HD
ENDBRANCH  14  15
ENDBRANCH  13  14
ENDBRANCH   1  13
TORSDOF 3
ENDMDL
MODEL      111
REMARK  Name = ZINC000253495814
REMARK                            x       y       z     vdW  Elec       q    Type
REMARK                         _______ _______ _______ _____ _____    ______ ____
ROOT
ATOM      1  N   LIG    1       -2.003  -0.170  -1.291  0.00  0.00    -0.510 NA
ATOM      2  C   LIG    1       -1.623   1.197  -1.669  0.00  0.00    +0.140 C 
ATOM      3  C   LIG    1       -2.171   1.489  -3.070  0.00  0.00    +0.240 C 
ATOM      4  N   LIG    1       -3.633   1.373  -3.042  0.00  0.00    -0.680 NA
ATOM      5  H   LIG    1       -4.040   2.069  -2.436  0.00  0.00    +0.340 HD
ATOM      6  C   LIG    1       -4.063   0.021  -2.655  0.00  0.00    +0.230 C 
ATOM      7  C   LIG    1       -5.601   0.047  -2.493  0.00  0.00    -0.280 C 
ATOM      8  S   LIG    1       -5.885   0.484  -0.740  0.00  0.00    +2.390 S 
ATOM      9  C   LIG    1       -4.122   0.537  -0.234  0.00  0.00    -0.360 C 
ATOM     10  O   LIG    1       -6.534  -0.596  -0.083  0.00  0.00    -0.930 OA
ATOM     11  O   LIG    1       -6.436   1.792  -0.664  0.00  0.00    -0.930 OA
ATOM     12  C   LIG    1       -3.450  -0.358  -1.300  0.00  0.00    +0.170 C 
ENDROOT
BRANCH   1  13
ATOM     13  C   LIG    1       -1.433  -0.534   0.013  0.00  0.00    +0.200 C 
BRANCH  13  14
ATOM     14  C   LIG    1       -1.610  -2.035   0.246  0.00  0.00    +0.180 C 
BRANCH  14  15
ATOM     15  O   LIG    1       -0.865  -2.760  -0.735  0.00  0.00    -0.560 OA
ATOM     16  H   LIG    1       -0.931  -3.721  -0.648  0.00  0.00    +0.380 HD
ENDBRANCH  14  15
ENDBRANCH  13  14
ENDBRANCH   1  13
TORSDOF 3
ENDMDL
MODEL      112
REMARK  Name = ZINC000253495815
REMARK                            x       y       z     vdW  Elec       q    Type
REMARK                         _______ _______ _______ _____ _____    ______ ____
ROOT
ATOM      1  N   LIG    1       -2.107  -0.147  -1.234  0.00  0.00    -0.510 NA
ATOM      2  C   LIG    1       -1.529  -0.857  -2.389  0.00  0.00    +0.180 C 
ATOM      3  C   LIG    1       -2.223  -0.438  -3.684  0.00  0.00    +0.190 C 
ATOM      4  N   LIG    1       -3.679  -0.645  -3.585  0.00  0.00    -0.670 NA
ATOM      5  H   LIG    1       -4.142  -0.376  -4.440  0.00  0.00    +0.350 HD
ATOM      6  C   LIG    1       -4.198   0.112  -2.448  0.00  0.00    +0.170 C 
ATOM      7  C   LIG    1       -5.716  -0.003  -2.275  0.00  0.00    -0.300 C 
ATOM      8  S   LIG    1       -5.987   0.204  -0.473  0.00  0.00    +2.400 S 
ATOM      9  C   LIG    1       -4.216   0.312   0.007  0.00  0.00    -0.290 C 
ATOM     10  O   LIG    1       -6.550  -0.988   0.058  0.00  0.00    -0.930 OA
ATOM     11  O   LIG    1       -6.618   1.454  -0.232  0.00  0.00    -0.930 OA
ATOM     12  C   LIG    1       -3.541  -0.427  -1.163  0.00  0.00    +0.160 C 
ENDROOT
BRANCH   1  13
ATOM     13  C   LIG    1       -1.433  -0.534   0.013  0.00  0.00    +0.190 C 
BRANCH  13  14
ATOM     14  C   LIG    1        0.002  -0.004   0.002  0.00  0.00    +0.180 C 
BRANCH  14  15
ATOM     15  O   LIG    1       -0.017   1.425   0.010  0.00  0.00    -0.560 OA
ATOM     16  H   LIG    1        0.861   1.830   0.004  0.00  0.00    +0.380 HD
ENDBRANCH  14  15
ENDBRANCH  13  14
ENDBRANCH   1  13
TORSDOF 3
ENDMDL
MODEL      113
REMARK  Name = ZINC000253495696
REMARK                            x       y       z     vdW  Elec       q    Type
REMARK                         _______ _______ _______ _____ _____    ______ ____
ROOT
ATOM      1  N   LIG    1       -2.671  -2.480  -0.062  0.00  0.00    -0.500 NA
ATOM      2  C   LIG    1       -3.460  -1.621   0.830  0.00  0.00    +0.160 C 
ATOM      3  C   LIG    1       -4.943  -1.965   0.656  0.00  0.00    +0.240 C 
ATOM      4  N   LIG    1       -5.149  -3.372   1.017  0.00  0.00    -0.680 NA
ATOM      5  H   LIG    1       -4.940  -3.530   1.991  0.00  0.00    +0.340 HD
ATOM      6  C   LIG    1       -4.366  -4.273   0.158  0.00  0.00    +0.240 C 
ATOM      7  C   LIG    1       -4.519  -5.707   0.719  0.00  0.00    -0.280 C 
ATOM      8  S   LIG    1       -3.150  -5.893   1.919  0.00  0.00    +2.390 S 
ATOM      9  C   LIG    1       -2.380  -4.252   1.636  0.00  0.00    -0.370 C 
ATOM     10  O   LIG    1       -2.267  -6.913   1.472  0.00  0.00    -0.930 OA
ATOM     11  O   LIG    1       -3.681  -5.943   3.236  0.00  0.00    -0.930 OA
ATOM     12  C   LIG    1       -2.880  -3.896   0.217  0.00  0.00    +0.170 C 
ENDROOT
BRANCH   1  13
ATOM     13  C   LIG    1       -1.244  -2.135   0.003  0.00  0.00    +0.270 C 
BRANCH  13  14
ATOM     14  C   LIG    1       -0.509  -2.826  -1.117  0.00  0.00    +0.460 C 
ATOM     15  O   LIG    1       -1.125  -3.441  -1.955  0.00  0.00    -0.490 OA
BRANCH  14  17
ATOM     16  C   LIG    1        1.470  -3.448  -2.290  0.00  0.00    +0.280 C 
ATOM     17  O   LIG    1        0.830  -2.759  -1.184  0.00  0.00    -0.360 OA
ENDBRANCH  14  17
ENDBRANCH  13  14
ENDBRANCH   1  13
TORSDOF 3
ENDMDL
MODEL      114
REMARK  Name = ZINC000001580560
REMARK                            x       y       z     vdW  Elec       q    Type
REMARK                         _______ _______ _______ _____ _____    ______ ____
ROOT
ATOM      1  N   LIG    1        2.781  -2.553   3.982  0.00  0.00    -0.340 N 
ATOM      2  N   LIG    1        2.574  -3.846   4.476  0.00  0.00    -0.300 NA
ATOM      3  C   LIG    1        3.424  -4.079   5.436  0.00  0.00    +0.330 A 
ATOM      4  C   LIG    1        4.229  -2.928   5.605  0.00  0.00    -0.380 A 
ATOM      5  C   LIG    1        3.800  -1.990   4.669  0.00  0.00    +0.460 A 
ENDROOT
BRANCH   1   9
ATOM      6  C   LIG    1        0.694  -0.696   0.992  0.00  0.00    +0.340 A 
ATOM      7  C   LIG    1        0.719  -2.091   0.983  0.00  0.00    +0.010 A 
ATOM      8  C   LIG    1        1.421  -2.735   1.988  0.00  0.00    +0.110 A 
ATOM      9  C   LIG    1        2.059  -1.948   2.947  0.00  0.00    +0.260 A 
ATOM     10  N   LIG    1        1.981  -0.630   2.876  0.00  0.00    -0.230 NA
ATOM     11  N   LIG    1        1.335  -0.032   1.941  0.00  0.00    -0.260 NA
BRANCH   6  12
ATOM     12  N   LIG    1        0.002  -0.004   0.002  0.00  0.00    -0.560 N 
ATOM     13  H   LIG    1       -0.467  -0.492  -0.693  0.00  0.00    +0.420 HD
BRANCH  12  14
ATOM     14  N   LIG    1       -0.016   1.362   0.009  0.00  0.00    -0.600 NA
ATOM     15  H   LIG    1       -0.555   1.720  -0.765  0.00  0.00    +0.360 HD
ATOM     16  H   LIG    1        0.920   1.736   0.003  0.00  0.00    +0.350 HD
ENDBRANCH  12  14
ENDBRANCH   6  12
ENDBRANCH   1   9
BRANCH   4  17
ATOM     17  C   LIG    1        5.316  -2.757   6.577  0.00  0.00    +0.610 C 
ATOM     18  O   LIG    1        5.935  -1.711   6.619  0.00  0.00    -0.570 OA
ATOM     19  N   LIG    1        5.627  -3.760   7.422  0.00  0.00    -0.850 N 
ATOM     20  H   LIG    1        6.345  -3.647   8.065  0.00  0.00    +0.400 HD
ATOM     21  H   LIG    1        5.133  -4.594   7.389  0.00  0.00    +0.400 HD
ENDBRANCH   4  17
BRANCH   5  22
ATOM     22  N   LIG    1        4.312  -0.723   4.483  0.00  0.00    -0.810 N 
ATOM     23  H   LIG    1        3.939  -0.144   3.799  0.00  0.00    +0.410 HD
ATOM     24  H   LIG    1        5.045  -0.410   5.037  0.00  0.00    +0.430 HD
ENDBRANCH   5  22
TORSDOF 5
ENDMDL
MODEL      115
REMARK  Name = ZINC000001631157
REMARK                            x       y       z     vdW  Elec       q    Type
REMARK                         _______ _______ _______ _____ _____    ______ ____
ROOT
ATOM      1  C   LIG    1       -0.018   1.459   0.010  0.00  0.00    +0.360 C 
ATOM      2  N   LIG    1        0.002  -0.004   0.002  0.00  0.00    -0.540 N 
ATOM      3  C   LIG    1       -0.010  -0.598  -1.216  0.00  0.00    +0.710 A 
ATOM      4  N   LIG    1       -0.366  -1.884  -1.359  0.00  0.00    -0.650 N 
ATOM      5  H   LIG    1       -0.400  -2.284  -2.240  0.00  0.00    +0.440 HD
ATOM      6  C   LIG    1       -0.679  -2.618  -0.273  0.00  0.00    +0.580 A 
ATOM      7  C   LIG    1       -0.422  -2.085   1.013  0.00  0.00    -0.080 A 
ATOM      8  N   LIG    1       -0.671  -2.875   2.134  0.00  0.00    -0.590 N 
ATOM      9  H   LIG    1       -0.959  -3.796   2.027  0.00  0.00    +0.430 HD
ATOM     10  C   LIG    1       -0.511  -2.354   3.368  0.00  0.00    +0.510 A 
ATOM     11  O   LIG    1       -0.833  -2.981   4.357  0.00  0.00    -0.460 OA
ATOM     12  C   LIG    1        0.060  -0.984   3.480  0.00  0.00    +0.510 A 
ATOM     13  O   LIG    1        0.177  -0.445   4.558  0.00  0.00    -0.430 OA
ATOM     14  N   LIG    1        0.487  -0.361   2.351  0.00  0.00    -0.530 N 
ATOM     15  C   LIG    1        1.465   0.711   2.536  0.00  0.00    +0.330 C 
ATOM     16  O   LIG    1       -1.157  -3.731  -0.398  0.00  0.00    -0.490 OA
ATOM     17  O   LIG    1        0.261   0.064  -2.196  0.00  0.00    -0.510 OA
ATOM     18  C   LIG    1        0.023  -0.777   1.135  0.00  0.00    +0.420 A 
ENDROOT
TORSDOF 0
ENDMDL
MODEL      116
REMARK  Name = ZINC000002560966
REMARK                            x       y       z     vdW  Elec       q    Type
REMARK                         _______ _______ _______ _____ _____    ______ ____
ROOT
ATOM      1  N   VAL A  2       -1.413  -1.998   0.005  0.00  0.00    -0.660 N 
ATOM      2  H   VAL A  2       -0.649  -2.471  -0.360  0.00  0.00    +0.400 HD
ATOM      3  C   ASN A  1       -2.457  -2.689   0.504  0.00  0.00    +0.500 C 
ATOM      4  O   ASN A  1       -3.413  -2.098   0.961  0.00  0.00    -0.530 OA
ENDROOT
BRANCH   1   5
ATOM      5  CA  VAL A  2       -1.433  -0.534   0.013  0.00  0.00    +0.160 C 
BRANCH   5   7
ATOM      6  CG1 VAL A  2       -0.019   1.526   0.010  0.00  0.00    +0.040 C 
ATOM      7  CB  VAL A  2        0.002  -0.004   0.002  0.00  0.00    -0.020 C 
ATOM      8  CG2 VAL A  2        0.742  -0.511   1.242  0.00  0.00    +0.000 C 
ENDBRANCH   5   7
BRANCH   5   9
ATOM      9  C   VAL A  2       -2.162  -0.034  -1.208  0.00  0.00    +0.490 C 
ATOM     10  OXT VAL A  2       -2.452   1.146  -1.305  0.00  0.00    -0.670 OA
ATOM     11  O   VAL A  2       -2.462  -0.811  -2.099  0.00  0.00    -0.690 OA
ENDBRANCH   5   9
ENDBRANCH   1   5
BRANCH   3  12
ATOM     12  CA  ASN A  1       -2.437  -4.196   0.496  0.00  0.00    +0.200 C 
BRANCH  12  13
ATOM     13  N   ASN A  1       -3.400  -4.704   1.482  0.00  0.00    -0.620 N 
ATOM     14  H1  ASN A  1       -3.150  -4.370   2.400  0.00  0.00    +0.440 HD
ATOM     15  H2  ASN A  1       -3.386  -5.713   1.476  0.00  0.00    +0.440 HD
ATOM     16  H3  ASN A  1       -4.326  -4.379   1.246  0.00  0.00    +0.440 HD
ENDBRANCH  12  13
BRANCH  12  17
ATOM     17  CB  ASN A  1       -2.817  -4.704  -0.896  0.00  0.00    +0.110 C 
BRANCH  17  18
ATOM     18  CG  ASN A  1       -2.677  -6.204  -0.940  0.00  0.00    +0.520 C 
ATOM     19  OD1 ASN A  1       -2.311  -6.807   0.046  0.00  0.00    -0.560 OA
ATOM     20  ND2 ASN A  1       -2.961  -6.874  -2.074  0.00  0.00    -0.830 N 
ATOM     21 HD21 ASN A  1       -2.871  -7.840  -2.102  0.00  0.00    +0.410 HD
ATOM     22 HD22 ASN A  1       -3.254  -6.392  -2.862  0.00  0.00    +0.410 HD
ENDBRANCH  17  18
ENDBRANCH  12  17
ENDBRANCH   3  12
TORSDOF 7
ENDMDL
MODEL      117
REMARK  Name = ZINC000018141564
REMARK                            x       y       z     vdW  Elec       q    Type
REMARK                         _______ _______ _______ _____ _____    ______ ____
ROOT
ATOM      1  C   LIG    1        2.423  -1.867  -2.185  0.00  0.00    +0.000 C 
ATOM      2  C   LIG    1        1.366  -2.700  -2.136  0.00  0.00    +0.040 C 
ENDROOT
BRANCH   1   3
ATOM      3  C   LIG    1        2.217  -0.421  -2.132  0.00  0.00    +0.520 C 
ATOM      4  O   LIG    1        1.091   0.030  -2.043  0.00  0.00    -0.470 OA
BRANCH   3   6
ATOM      5  C   LIG    1        3.001   1.815  -2.124  0.00  0.00    +0.250 C 
ATOM      6  O   LIG    1        3.276   0.413  -2.181  0.00  0.00    -0.340 OA
ENDBRANCH   3   6
ENDBRANCH   1   3
BRANCH   2   7
ATOM      7  O   LIG    1        0.111  -2.201  -2.158  0.00  0.00    -0.420 OA
ATOM      8  H   LIG    1       -0.581  -2.875  -2.119  0.00  0.00    +0.390 HD
ENDBRANCH   2   7
BRANCH   1   9
ATOM      9  O   LIG    1        3.685  -2.373  -2.285  0.00  0.00    -0.450 OA
ATOM     10  H   LIG    1        3.724  -3.339  -2.272  0.00  0.00    +0.390 HD
ENDBRANCH   1   9
BRANCH   2  11
ATOM     11  C   LIG    1        1.583  -4.189  -2.058  0.00  0.00    +0.220 C 
BRANCH  11  12
ATOM     12  O   LIG    1        0.855  -4.719  -0.949  0.00  0.00    -0.530 OA
ATOM     13  H   LIG    1       -0.089  -4.506  -0.960  0.00  0.00    +0.380 HD
ENDBRANCH  11  12
BRANCH  11  14
ATOM     14  C   LIG    1        1.093  -4.845  -3.350  0.00  0.00    +0.210 C 
BRANCH  14  15
ATOM     15  O   LIG    1       -0.268  -4.479  -3.583  0.00  0.00    -0.540 OA
ATOM     16  H   LIG    1       -0.874  -4.749  -2.880  0.00  0.00    +0.370 HD
ENDBRANCH  14  15
BRANCH  14  17
ATOM     17  C   LIG    1        1.198  -6.366  -3.222  0.00  0.00    +0.170 C 
BRANCH  17  18
ATOM     18  O   LIG    1        0.852  -6.974  -4.468  0.00  0.00    -0.560 OA
ATOM     19  H   LIG    1        0.896  -7.940  -4.460  0.00  0.00    +0.390 HD
ENDBRANCH  17  18
ENDBRANCH  14  17
ENDBRANCH  11  14
ENDBRANCH   2  11
TORSDOF 10
ENDMDL
MODEL      118
REMARK  Name = ZINC000004228258
REMARK                            x       y       z     vdW  Elec       q    Type
REMARK                         _______ _______ _______ _____ _____    ______ ____
ROOT
ATOM      1  C   LIG    1       -1.413  -2.063   0.004  0.00  0.00    +0.210 C 
ATOM      2  C   LIG    1       -2.850  -2.602   0.033  0.00  0.00    +0.290 C 
ATOM      3  N   LIG    1       -3.477  -2.183   1.294  0.00  0.00    -0.710 N 
ATOM      4  H   LIG    1       -4.373  -1.812   1.299  0.00  0.00    +0.410 HD
ATOM      5  C   LIG    1       -2.769  -2.325   2.478  0.00  0.00    +0.400 A 
ATOM      6  C   LIG    1       -1.394  -2.510   2.442  0.00  0.00    -0.100 A 
ATOM      7  C   LIG    1       -0.695  -2.648   3.646  0.00  0.00    +0.540 A 
ATOM      8  N   LIG    1       -1.389  -2.597   4.804  0.00  0.00    -0.650 N 
ATOM      9  H   LIG    1       -0.925  -2.690   5.651  0.00  0.00    +0.410 HD
ATOM     10  C   LIG    1       -2.738  -2.416   4.786  0.00  0.00    +0.630 A 
ATOM     11  O   LIG    1        0.516  -2.812   3.650  0.00  0.00    -0.540 OA
ATOM     12  N   LIG    1       -3.401  -2.284   3.657  0.00  0.00    -0.590 NA
ATOM     13  N   LIG    1       -0.716  -2.558   1.203  0.00  0.00    -0.710 N 
ATOM     14  H   LIG    1        0.186  -2.909   1.144  0.00  0.00    +0.410 HD
ENDROOT
BRANCH  10  15
ATOM     15  N   LIG    1       -3.423  -2.368   5.973  0.00  0.00    -0.830 N 
ATOM     16  H   LIG    1       -4.384  -2.239   5.974  0.00  0.00    +0.430 HD
ATOM     17  H   LIG    1       -2.946  -2.463   6.813  0.00  0.00    +0.410 HD
ENDBRANCH  10  15
BRANCH   1  18
ATOM     18  C   LIG    1       -1.433  -0.534   0.013  0.00  0.00    +0.160 C 
BRANCH  18  20
ATOM     19  C   LIG    1       -0.019   1.526   0.010  0.00  0.00    +0.000 C 
ATOM     20  C   LIG    1        0.002  -0.004   0.002  0.00  0.00    +0.170 C 
BRANCH  20  21
ATOM     21  O   LIG    1        0.693  -0.477   1.160  0.00  0.00    -0.540 OA
ATOM     22  H   LIG    1        0.294  -0.202   1.996  0.00  0.00    +0.370 HD
ENDBRANCH  20  21
ENDBRANCH  18  20
BRANCH  18  23
ATOM     23  O   LIG    1       -2.124  -0.060  -1.145  0.00  0.00    -0.550 OA
ATOM     24  H   LIG    1       -1.725  -0.336  -1.981  0.00  0.00    +0.370 HD
ENDBRANCH  18  23
ENDBRANCH   1  18
TORSDOF 5
ENDMDL
MODEL      119
REMARK  Name = ZINC000004533539
REMARK                            x       y       z     vdW  Elec       q    Type
REMARK                         _______ _______ _______ _____ _____    ______ ____
ROOT
ATOM      1  CA  HIS A  1       -0.699   1.479   1.216  0.00  0.00    +0.180 C 
ENDROOT
BRANCH   1   2
ATOM      2  N   HIS A  1       -0.012   1.005   0.008  0.00  0.00    -0.620 N 
ATOM      3  H1  HIS A  1       -0.500   1.339  -0.810  0.00  0.00    +0.440 HD
ATOM      4  H2  HIS A  1        0.935   1.354   0.000  0.00  0.00    +0.430 HD
ATOM      5  H3  HIS A  1        0.002  -0.004   0.002  0.00  0.00    +0.440 HD
ENDBRANCH   1   2
BRANCH   1   6
ATOM      6  C   HIS A  1       -0.720   2.985   1.224  0.00  0.00    +0.480 C 
ATOM      7  N   GLY A  2       -0.920   3.650   2.380  0.00  0.00    -0.660 N 
ATOM      8  H   GLY A  2       -1.052   3.159   3.205  0.00  0.00    +0.420 HD
ATOM      9  O   HIS A  1       -0.555   3.600   0.192  0.00  0.00    -0.550 OA
BRANCH   7  10
ATOM     10  CA  GLY A  2       -0.940   5.115   2.388  0.00  0.00    +0.200 C 
BRANCH  10  11
ATOM     11  C   GLY A  2       -1.181   5.606   3.792  0.00  0.00    +0.490 C 
ATOM     12  OXT GLY A  2       -1.233   6.803   4.018  0.00  0.00    -0.670 OA
ATOM     13  O   GLY A  2       -1.322   4.807   4.702  0.00  0.00    -0.690 OA
ENDBRANCH  10  11
ENDBRANCH   7  10
ENDBRANCH   1   6
BRANCH   1  14
ATOM     14  CB  HIS A  1       -2.135   0.949   1.227  0.00  0.00    +0.200 C 
BRANCH  14  15
ATOM     15  CG  HIS A  1       -2.115  -0.553   1.343  0.00  0.00    -0.040 A 
ATOM     16  CD2 HIS A  1       -2.752  -1.284   2.278  0.00  0.00    +0.180 A 
ATOM     17  NE2 HIS A  1       -2.469  -2.597   2.016  0.00  0.00    -0.560 N 
ATOM     18  HE2 HIS A  1       -2.784  -3.365   2.517  0.00  0.00    +0.430 HD
ATOM     19  CE1 HIS A  1       -1.667  -2.623   0.929  0.00  0.00    +0.440 A 
ATOM     20  ND1 HIS A  1       -1.464  -1.398   0.529  0.00  0.00    -0.530 NA
ENDBRANCH  14  15
ENDBRANCH   1  14
TORSDOF 6
ENDMDL
MODEL      120
REMARK  Name = ZINC000004707332
REMARK                            x       y       z     vdW  Elec       q    Type
REMARK                         _______ _______ _______ _____ _____    ______ ____
ROOT
ATOM      1  C   LIG    1        0.002  -0.004   0.002  0.00  0.00    +0.470 A 
ATOM      2  C   LIG    1       -1.188  -0.734   0.004  0.00  0.00    -0.090 A 
ATOM      3  N   LIG    1       -2.530  -0.419   0.012  0.00  0.00    -0.570 N 
ATOM      4  H   LIG    1       -2.913   0.472   0.020  0.00  0.00    +0.430 HD
ATOM      5  C   LIG    1       -3.214  -1.585   0.009  0.00  0.00    +0.550 A 
ATOM      6  N   LIG    1       -2.384  -2.591  -0.001  0.00  0.00    -0.480 NA
ATOM      7  C   LIG    1       -1.117  -2.137  -0.005  0.00  0.00    +0.300 A 
ATOM      8  N   LIG    1        0.087  -2.718  -0.015  0.00  0.00    -0.420 NA
ATOM      9  C   LIG    1        1.181  -1.989  -0.016  0.00  0.00    -0.170 A 
ATOM     10  N   LIG    1        1.155  -0.669  -0.013  0.00  0.00    -0.500 NA
ENDROOT
BRANCH   1  11
ATOM     11  N   LIG    1       -0.017   1.381   0.010  0.00  0.00    -0.830 N 
ATOM     12  H   LIG    1       -0.863   1.855   0.016  0.00  0.00    +0.410 HD
ATOM     13  H   LIG    1        0.817   1.878   0.004  0.00  0.00    +0.420 HD
ENDBRANCH   1  11
BRANCH   9  14
ATOM     14  S   LIG    1        2.743  -2.805  -0.029  0.00  0.00    +2.730 S 
ATOM     15  O   LIG    1        2.522  -4.102   0.509  0.00  0.00    -0.930 OA
ATOM     16  O   LIG    1        3.680  -1.887   0.516  0.00  0.00    -0.930 OA
BRANCH  14  17
ATOM     17  N   LIG    1        3.169  -3.023  -1.614  0.00  0.00    -1.240 NA
ATOM     18  H   LIG    1        4.006  -3.460  -1.835  0.00  0.00    +0.430 HD
ATOM     19  H   LIG    1        2.581  -2.714  -2.321  0.00  0.00    +0.420 HD
ENDBRANCH  14  17
ENDBRANCH   9  14
TORSDOF 3
ENDMDL
MODEL      121
REMARK  Name = ZINC000257211999
REMARK                            x       y       z     vdW  Elec       q    Type
REMARK                         _______ _______ _______ _____ _____    ______ ____
ROOT
ATOM      1  C   LIG    1       -0.032   1.425  -0.022  0.00  0.00    +0.300 C 
ATOM      2  N   LIG    1       -0.004  -0.039  -0.012  0.00  0.00    -0.600 N 
ATOM      3  C   LIG    1        0.004  -0.747  -1.164  0.00  0.00    +0.490 C 
ATOM      4  C   LIG    1       -0.090  -2.243  -1.235  0.00  0.00    +0.280 C 
ATOM      5  O   LIG    1       -0.094  -2.853   0.069  0.00  0.00    -0.350 OA
ATOM      6  C   LIG    1       -0.825  -2.067   0.983  0.00  0.00    +0.120 C 
ATOM      7  C   LIG    1       -1.032  -2.577   2.401  0.00  0.00    +0.240 C 
ATOM      8  N   LIG    1       -1.022  -1.371   3.271  0.00  0.00    -0.510 NA
ATOM      9  C   LIG    1       -0.736  -0.182   2.417  0.00  0.00    +0.190 C 
ATOM     10  O   LIG    1        0.094  -0.134  -2.207  0.00  0.00    -0.530 OA
ATOM     11  C   LIG    1        0.022  -0.780   1.231  0.00  0.00    +0.190 C 
ENDROOT
BRANCH   8  12
ATOM     12  C   LIG    1       -2.303  -1.218   3.973  0.00  0.00    +0.200 C 
BRANCH  12  13
ATOM     13  C   LIG    1       -2.294   0.085   4.774  0.00  0.00    +0.060 C 
BRANCH  13  14
ATOM     14  C   LIG    1       -3.555   0.180   5.593  0.00  0.00    +0.520 C 
ATOM     15  O   LIG    1       -4.381  -0.707   5.541  0.00  0.00    -0.540 OA
ATOM     16  N   LIG    1       -3.767   1.252   6.383  0.00  0.00    -0.860 N 
ATOM     17  H   LIG    1       -4.579   1.313   6.910  0.00  0.00    +0.400 HD
ATOM     18  H   LIG    1       -3.106   1.961   6.425  0.00  0.00    +0.400 HD
ENDBRANCH  13  14
ENDBRANCH  12  13
ENDBRANCH   8  12
TORSDOF 3
ENDMDL
MODEL      122
REMARK  Name = ZINC000004963836
REMARK                            x       y       z     vdW  Elec       q    Type
REMARK                         _______ _______ _______ _____ _____    ______ ____
ROOT
ATOM      1  N   LIG    1        2.424  -2.608  -0.023  0.00  0.00    -0.700 N 
ATOM      2  H   LIG    1        2.466  -3.577  -0.029  0.00  0.00    +0.410 HD
ENDROOT
BRANCH   1   8
ATOM      3  C   LIG    1        0.002  -0.004   0.002  0.00  0.00    +0.490 A 
ATOM      4  C   LIG    1       -1.188  -0.717   0.004  0.00  0.00    -0.300 A 
ATOM      5  C   LIG    1       -1.135  -2.114  -0.004  0.00  0.00    +0.550 A 
ATOM      6  N   LIG    1        0.071  -2.720  -0.013  0.00  0.00    -0.660 N 
ATOM      7  H   LIG    1        0.126  -3.689  -0.018  0.00  0.00    +0.410 HD
ATOM      8  C   LIG    1        1.210  -1.976  -0.014  0.00  0.00    +0.660 A 
ATOM      9  O   LIG    1       -2.162  -2.775  -0.003  0.00  0.00    -0.560 OA
ATOM     10  N   LIG    1        1.168  -0.660  -0.013  0.00  0.00    -0.620 NA
BRANCH   3  11
ATOM     11  N   LIG    1       -0.017   1.376   0.010  0.00  0.00    -0.830 N 
ATOM     12  H   LIG    1       -0.863   1.850   0.016  0.00  0.00    +0.420 HD
ATOM     13  H   LIG    1        0.817   1.873   0.004  0.00  0.00    +0.410 HD
ENDBRANCH   3  11
ENDBRANCH   1   8
BRANCH   1  14
ATOM     14  C   LIG    1        3.660  -1.821  -0.024  0.00  0.00    +0.310 C 
BRANCH  14  15
ATOM     15  C   LIG    1        4.865  -2.764  -0.035  0.00  0.00    -0.010 C 
BRANCH  15  16
ATOM     16  C   LIG    1        6.156  -1.942  -0.036  0.00  0.00    +0.090 C 
BRANCH  16  17
ATOM     17  CA  LIG    1        7.361  -2.885  -0.047  0.00  0.00    +0.080 C 
BRANCH  17  18
ATOM     18  N   LIG    1        7.380  -3.641  -1.307  0.00  0.00    -0.610 N 
ATOM     19  H1  LIG    1        8.174  -4.263  -1.314  0.00  0.00    +0.430 HD
ATOM     20  H2  LIG    1        7.447  -2.999  -2.083  0.00  0.00    +0.430 HD
ATOM     21  H3  LIG    1        6.530  -4.179  -1.389  0.00  0.00    +0.410 HD
ENDBRANCH  17  18
BRANCH  17  22
ATOM     22  C   LIG    1        8.629  -2.081   0.075  0.00  0.00    +0.490 C 
ATOM     23  OXT LIG    1        9.385  -1.986  -0.876  0.00  0.00    -0.670 OA
ATOM     24  O   LIG    1        8.899  -1.525   1.126  0.00  0.00    -0.630 OA
ENDBRANCH  17  22
ENDBRANCH  16  17
ENDBRANCH  15  16
ENDBRANCH  14  15
ENDBRANCH   1  14
TORSDOF 8
ENDMDL
MODEL      123
REMARK  Name = ZINC000257235233
REMARK                            x       y       z     vdW  Elec       q    Type
REMARK                         _______ _______ _______ _____ _____    ______ ____
ROOT
ATOM      1  C   LIG    1       -0.484  -2.940  -1.422  0.00  0.00    +0.260 C 
ATOM      2  C   LIG    1       -0.750  -3.471  -2.842  0.00  0.00    +0.180 C 
ATOM      3  N   LIG    1       -0.884  -4.940  -2.738  0.00  0.00    -0.520 NA
ATOM      4  C   LIG    1       -0.122  -5.332  -1.525  0.00  0.00    +0.180 C 
ATOM      5  C   LIG    1       -0.348  -5.604  -3.934  0.00  0.00    +0.180 C 
ATOM      6  C   LIG    1       -0.446  -4.195  -0.520  0.00  0.00    +0.000 C 
ENDROOT
BRANCH   6   7
ATOM      7  C   LIG    1        0.639  -4.078   0.520  0.00  0.00    +0.520 C 
ATOM      8  N   LIG    1        0.901  -5.115   1.340  0.00  0.00    -0.730 N 
ATOM      9  H   LIG    1        0.393  -5.937   1.260  0.00  0.00    +0.400 HD
ATOM     10  C   LIG    1        1.956  -5.001   2.350  0.00  0.00    +0.280 C 
ATOM     11  O   LIG    1        1.275  -3.050   0.619  0.00  0.00    -0.530 OA
ENDBRANCH   6   7
BRANCH   1  12
ATOM     12  N   LIG    1        0.802  -2.240  -1.373  0.00  0.00    -1.090 NA
ATOM     13  H   LIG    1        1.625  -2.744  -1.273  0.00  0.00    +0.420 HD
BRANCH  12  14
ATOM     14  S   LIG    1        0.851  -0.589  -1.490  0.00  0.00    +2.610 S 
ATOM     15  O   LIG    1        2.236  -0.275  -1.432  0.00  0.00    -0.960 OA
ATOM     16  O   LIG    1        0.082  -0.297  -2.649  0.00  0.00    -0.960 OA
BRANCH  14  18
ATOM     17  C   LIG    1       -0.019   1.526   0.010  0.00  0.00    +0.070 C 
ATOM     18  C   LIG    1        0.002  -0.004   0.002  0.00  0.00    -0.360 C 
ENDBRANCH  14  18
ENDBRANCH  12  14
ENDBRANCH   1  12
TORSDOF 4
ENDMDL
MODEL      124
REMARK  Name = ZINC000005115824
REMARK                            x       y       z     vdW  Elec       q    Type
REMARK                         _______ _______ _______ _____ _____    ______ ____
ROOT
ATOM      1  CA  HIS A  2        0.738  -0.999  -3.621  0.00  0.00    +0.180 C 
ENDROOT
BRANCH   1   3
ATOM      2  C   ALA A  1        0.707  -0.490  -1.238  0.00  0.00    +0.500 C 
ATOM      3  N   HIS A  2        0.053  -0.526  -2.415  0.00  0.00    -0.660 N 
ATOM      4  H   HIS A  2       -0.873  -0.239  -2.465  0.00  0.00    +0.390 HD
ATOM      5  O   ALA A  1        1.864  -0.849  -1.176  0.00  0.00    -0.530 OA
BRANCH   2   7
ATOM      6  CB  ALA A  1       -0.019   1.526   0.010  0.00  0.00    +0.120 C 
ATOM      7  CA  ALA A  1        0.002  -0.004   0.002  0.00  0.00    +0.160 C 
BRANCH   7   8
ATOM      8  N   ALA A  1        0.713  -0.491   1.192  0.00  0.00    -0.620 N 
ATOM      9  H1  ALA A  1        0.240  -0.165   2.022  0.00  0.00    +0.440 HD
ATOM     10  H2  ALA A  1        1.659  -0.141   1.185  0.00  0.00    +0.440 HD
ATOM     11  H3  ALA A  1        0.726  -1.500   1.187  0.00  0.00    +0.440 HD
ENDBRANCH   7   8
ENDBRANCH   2   7
ENDBRANCH   1   3
BRANCH   1  12
ATOM     12  C   HIS A  2        1.501   0.142  -4.244  0.00  0.00    +0.490 C 
ATOM     13  OXT HIS A  2        2.145  -0.041  -5.263  0.00  0.00    -0.670 OA
ATOM     14  O   HIS A  2        1.474   1.247  -3.730  0.00  0.00    -0.680 OA
ENDBRANCH   1  12
BRANCH   1  15
ATOM     15  CB  HIS A  2       -0.292  -1.529  -4.619  0.00  0.00    +0.150 C 
BRANCH  15  16
ATOM     16  CG  HIS A  2       -0.970  -2.746  -4.043  0.00  0.00    -0.010 A 
ATOM     17  CD2 HIS A  2       -0.522  -4.015  -4.096  0.00  0.00    +0.150 A 
ATOM     18  NE2 HIS A  2       -1.413  -4.796  -3.468  0.00  0.00    -0.490 NA
ATOM     19  CE1 HIS A  2       -2.396  -4.059  -3.027  0.00  0.00    +0.380 A 
ATOM     20  ND1 HIS A  2       -2.155  -2.773  -3.360  0.00  0.00    -0.570 N 
ATOM     21  HD1 HIS A  2       -2.721  -2.011  -3.157  0.00  0.00    +0.410 HD
ENDBRANCH  15  16
ENDBRANCH   1  15
TORSDOF 6
ENDMDL
MODEL      125
REMARK  Name = ZINC000257261277
REMARK                            x       y       z     vdW  Elec       q    Type
REMARK                         _______ _______ _______ _____ _____    ______ ____
ROOT
ATOM      1  N   LIG    1        2.872  -1.808  -2.493  0.00  0.00    -0.500 NA
ATOM      2  C   LIG    1        3.656  -2.645  -1.549  0.00  0.00    +0.150 C 
ATOM      3  C   LIG    1        5.121  -2.388  -1.982  0.00  0.00    +0.180 C 
ATOM      4  C   LIG    1        5.016  -2.296  -3.521  0.00  0.00    +0.260 C 
ATOM      5  C   LIG    1        3.545  -1.939  -3.803  0.00  0.00    +0.180 C 
ENDROOT
BRANCH   4   6
ATOM      6  N   LIG    1        5.903  -1.246  -4.029  0.00  0.00    -0.720 N 
ATOM      7  H   LIG    1        6.160  -0.508  -3.454  0.00  0.00    +0.400 HD
ATOM      8  C   LIG    1        6.361  -1.305  -5.295  0.00  0.00    +0.520 C 
ATOM      9  O   LIG    1        6.040  -2.228  -6.014  0.00  0.00    -0.510 OA
BRANCH   8  10
ATOM     10  C   LIG    1        7.273  -0.225  -5.817  0.00  0.00    +0.200 C 
BRANCH  10  11
ATOM     11  O   LIG    1        7.620  -0.510  -7.174  0.00  0.00    -0.370 OA
ATOM     12  C   LIG    1        8.487   0.459  -7.768  0.00  0.00    +0.210 C 
ENDBRANCH  10  11
ENDBRANCH   8  10
ENDBRANCH   4   6
BRANCH   3  13
ATOM     13  O   LIG    1        5.961  -3.477  -1.593  0.00  0.00    -0.560 OA
ATOM     14  H   LIG    1        5.998  -3.624  -0.638  0.00  0.00    +0.380 HD
ENDBRANCH   3  13
BRANCH   1  15
ATOM     15  C   LIG    1        1.478  -2.265  -2.569  0.00  0.00    +0.200 C 
BRANCH  15  16
ATOM     16  C   LIG    1        0.746  -1.888  -1.280  0.00  0.00    +0.170 C 
BRANCH  16  17
ATOM     17  O   LIG    1        0.671  -0.465  -1.174  0.00  0.00    -0.370 OA
BRANCH  17  19
ATOM     18  C   LIG    1       -0.019   1.526   0.010  0.00  0.00    +0.040 C 
ATOM     19  C   LIG    1        0.002  -0.004   0.002  0.00  0.00    +0.160 C 
ENDBRANCH  17  19
ENDBRANCH  16  17
ENDBRANCH  15  16
ENDBRANCH   1  15
TORSDOF 8
ENDMDL
MODEL      126
REMARK  Name = ZINC000005530332
REMARK                            x       y       z     vdW  Elec       q    Type
REMARK                         _______ _______ _______ _____ _____    ______ ____
ROOT
ATOM      1  C   LIG    1       -0.203   1.710   1.072  0.00  0.00    +0.190 C 
ATOM      2  C   LIG    1       -0.156   0.225   0.818  0.00  0.00    +0.430 A 
ATOM      3  N   LIG    1       -0.178  -0.210  -0.411  0.00  0.00    -0.570 NA
ATOM      4  C   LIG    1       -0.138  -1.523  -0.687  0.00  0.00    +0.470 A 
ATOM      5  C   LIG    1       -0.071  -2.437   0.352  0.00  0.00    -0.360 A 
ATOM      6  C   LIG    1       -0.048  -1.952   1.667  0.00  0.00    +0.540 A 
ATOM      7  O   LIG    1        0.010  -2.721   2.613  0.00  0.00    -0.550 OA
ATOM      8  N   LIG    1       -0.086  -0.618   1.867  0.00  0.00    -0.640 N 
ATOM      9  H   LIG    1       -0.071  -0.265   2.771  0.00  0.00    +0.420 HD
ENDROOT
BRANCH   4  10
ATOM     10  N   LIG    1       -0.162  -1.960  -1.995  0.00  0.00    -0.820 N 
ATOM     11  H   LIG    1       -0.133  -2.910  -2.190  0.00  0.00    +0.410 HD
ATOM     12  H   LIG    1       -0.208  -1.317  -2.720  0.00  0.00    +0.410 HD
ENDBRANCH   4  10
BRANCH   5  13
ATOM     13  C   LIG    1       -0.024  -3.918   0.075  0.00  0.00    +0.250 C 
BRANCH  13  14
ATOM     14  N   LIG    1        1.373  -4.369   0.061  0.00  0.00    -0.510 NA
BRANCH  14  15
ATOM     15  C   LIG    1        1.476  -5.747  -0.436  0.00  0.00    +0.170 C 
BRANCH  15  16
ATOM     16  C   LIG    1        1.308  -5.755  -1.957  0.00  0.00    +0.170 C 
BRANCH  16  17
ATOM     17  O   LIG    1        2.391  -5.043  -2.559  0.00  0.00    -0.550 OA
ATOM     18  H   LIG    1        2.310  -4.941  -3.518  0.00  0.00    +0.370 HD
ENDBRANCH  16  17
ENDBRANCH  15  16
ENDBRANCH  14  15
BRANCH  14  19
ATOM     19  C   LIG    1        1.981  -4.243   1.393  0.00  0.00    +0.200 C 
BRANCH  19  20
ATOM     20  C   LIG    1        3.485  -4.506   1.294  0.00  0.00    +0.160 C 
BRANCH  20  21
ATOM     21  O   LIG    1        4.090  -3.507   0.471  0.00  0.00    -0.550 OA
ATOM     22  H   LIG    1        5.045  -3.611   0.364  0.00  0.00    +0.370 HD
ENDBRANCH  20  21
ENDBRANCH  19  20
ENDBRANCH  14  19
ENDBRANCH  13  14
ENDBRANCH   5  13
TORSDOF 9
ENDMDL
MODEL      127
REMARK  Name = ZINC000001497589
REMARK                            x       y       z     vdW  Elec       q    Type
REMARK                         _______ _______ _______ _____ _____    ______ ____
ROOT
ATOM      1  C   LIG    1       -0.919  -3.680   1.560  0.00  0.00    +0.470 A 
ATOM      2  C   LIG    1       -1.857  -4.538   1.057  0.00  0.00    -0.210 A 
ATOM      3  C   LIG    1       -2.306  -5.601   1.857  0.00  0.00    +0.560 A 
ATOM      4  N   LIG    1       -1.807  -5.757   3.099  0.00  0.00    -0.560 N 
ATOM      5  C   LIG    1       -0.884  -4.903   3.577  0.00  0.00    +0.710 A 
ATOM      6  O   LIG    1       -0.447  -5.062   4.700  0.00  0.00    -0.540 OA
ATOM      7  C   LIG    1       -2.273  -6.866   3.935  0.00  0.00    +0.330 C 
ATOM      8  O   LIG    1       -3.142  -6.379   1.429  0.00  0.00    -0.530 OA
ATOM      9  N   LIG    1       -0.433  -3.880   2.829  0.00  0.00    -0.650 N 
ATOM     10  H   LIG    1        0.233  -3.275   3.191  0.00  0.00    +0.430 HD
ENDROOT
BRANCH   1  15
ATOM     11  C   LIG    1        0.201   1.457   0.131  0.00  0.00    +0.190 C 
ATOM     12  N   LIG    1        0.113  -0.008   0.063  0.00  0.00    -0.540 NA
ATOM     13  C   LIG    1       -1.286  -0.453   0.085  0.00  0.00    +0.180 C 
ATOM     14  C   LIG    1       -1.343  -1.963  -0.169  0.00  0.00    +0.320 C 
ATOM     15  N   LIG    1       -0.463  -2.633   0.801  0.00  0.00    -0.620 N 
ATOM     16  C   LIG    1        0.920  -2.150   0.935  0.00  0.00    +0.290 C 
ATOM     17  C   LIG    1        0.887  -0.632   1.145  0.00  0.00    +0.170 C 
ENDBRANCH   1  15
TORSDOF 1
ENDMDL
MODEL      128
REMARK  Name = ZINC000306771645
REMARK                            x       y       z     vdW  Elec       q    Type
REMARK                         _______ _______ _______ _____ _____    ______ ____
ROOT
ATOM      1  N   LIG    1        0.690  -0.478  -1.207  0.00  0.00    -0.380 N 
ATOM      2  C   LIG    1        2.110  -0.043  -1.200  0.00  0.00    +0.290 C 
ATOM      3  C   LIG    1        2.823  -1.020  -2.158  0.00  0.00    +0.030 C 
ATOM      4  C   LIG    1        2.723  -0.493  -3.572  0.00  0.00    +0.520 C 
ATOM      5  N   LIG    1        1.920  -1.290  -4.287  0.00  0.00    -0.680 N 
ATOM      6  H   LIG    1        1.720  -1.130  -5.223  0.00  0.00    +0.430 HD
ATOM      7  C   LIG    1        1.415  -2.326  -3.606  0.00  0.00    +0.520 C 
ATOM      8  O   LIG    1        0.669  -3.166  -4.061  0.00  0.00    -0.440 OA
ATOM      9  O   LIG    1        3.282   0.497  -3.992  0.00  0.00    -0.450 OA
ATOM     10  C   LIG    1        1.930  -2.291  -2.168  0.00  0.00    +0.050 C 
ATOM     11  C   LIG    1        0.759  -1.961  -1.217  0.00  0.00    +0.320 C 
ATOM     12  H   LIG    1        0.221  -0.141  -2.034  0.00  0.00    +0.430 HD
ENDROOT
BRANCH   1  14
ATOM     13  C   LIG    1       -0.019   1.526   0.010  0.00  0.00    +0.080 C 
ATOM     14  C   LIG    1        0.002  -0.004   0.002  0.00  0.00    +0.080 C 
BRANCH  14  15
ATOM     15  C   LIG    1       -1.412  -0.526   0.013  0.00  0.00    +0.490 C 
ATOM     16  O   LIG    1       -1.974  -0.742   1.073  0.00  0.00    -0.640 OA
ATOM     17  O   LIG    1       -1.994  -0.731  -1.039  0.00  0.00    -0.670 OA
ENDBRANCH  14  15
ENDBRANCH   1  14
TORSDOF 2
ENDMDL
MODEL      129
REMARK  Name = ZINC000307219280
REMARK                            x       y       z     vdW  Elec       q    Type
REMARK                         _______ _______ _______ _____ _____    ______ ____
ROOT
ATOM      1  N   LIG    1       -3.761   1.658   0.029  0.00  0.00    -0.400 N 
ATOM      2  C   LIG    1       -3.970   2.366  -1.260  0.00  0.00    +0.320 C 
ATOM      3  C   LIG    1       -5.495   2.585  -1.344  0.00  0.00    +0.040 C 
ATOM      4  C   LIG    1       -5.853   3.873  -0.638  0.00  0.00    +0.520 C 
ATOM      5  N   LIG    1       -6.539   3.593   0.476  0.00  0.00    -0.680 N 
ATOM      6  H   LIG    1       -6.866   4.280   1.078  0.00  0.00    +0.430 HD
ATOM      7  C   LIG    1       -6.738   2.287   0.693  0.00  0.00    +0.520 C 
ATOM      8  O   LIG    1       -7.333   1.816   1.638  0.00  0.00    -0.450 OA
ATOM      9  O   LIG    1       -5.564   4.986  -1.021  0.00  0.00    -0.440 OA
ATOM     10  C   LIG    1       -6.106   1.480  -0.440  0.00  0.00    +0.040 C 
ATOM     11  C   LIG    1       -4.892   0.699   0.108  0.00  0.00    +0.320 C 
ATOM     12  H   LIG    1       -3.795   2.309   0.799  0.00  0.00    +0.420 HD
ENDROOT
BRANCH   1  13
ATOM     13  C   LIG    1       -2.479   0.941   0.019  0.00  0.00    +0.290 C 
BRANCH  13  14
ATOM     14  C   LIG    1       -1.330   1.951   0.019  0.00  0.00    -0.060 C 
BRANCH  14  16
ATOM     15  O   LIG    1        0.002  -0.004   0.002  0.00  0.00    -0.690 OA
ATOM     16  C   LIG    1       -0.015   1.215   0.009  0.00  0.00    +0.500 C 
ATOM     17  O   LIG    1        1.033   1.839   0.002  0.00  0.00    -0.670 OA
ENDBRANCH  14  16
ENDBRANCH  13  14
ENDBRANCH   1  13
TORSDOF 3
ENDMDL
MODEL      130
REMARK  Name = ZINC000306771647
REMARK                            x       y       z     vdW  Elec       q    Type
REMARK                         _______ _______ _______ _____ _____    ______ ____
ROOT
ATOM      1  N   LIG    1       -1.376  -0.512   0.012  0.00  0.00    -0.380 N 
ATOM      2  C   LIG    1       -1.382  -1.996   0.086  0.00  0.00    +0.330 C 
ATOM      3  C   LIG    1       -2.777  -2.355   0.639  0.00  0.00    +0.030 C 
ATOM      4  C   LIG    1       -3.755  -2.461  -0.509  0.00  0.00    +0.520 C 
ATOM      5  N   LIG    1       -4.629  -1.449  -0.443  0.00  0.00    -0.680 N 
ATOM      6  H   LIG    1       -5.343  -1.330  -1.088  0.00  0.00    +0.430 HD
ATOM      7  C   LIG    1       -4.435  -0.615   0.586  0.00  0.00    +0.520 C 
ATOM      8  O   LIG    1       -5.109   0.362   0.832  0.00  0.00    -0.450 OA
ATOM      9  O   LIG    1       -3.749  -3.327  -1.357  0.00  0.00    -0.440 OA
ATOM     10  C   LIG    1       -3.238  -1.089   1.409  0.00  0.00    +0.030 C 
ATOM     11  C   LIG    1       -2.080  -0.081   1.247  0.00  0.00    +0.290 C 
ATOM     12  H   LIG    1       -1.875  -0.198  -0.806  0.00  0.00    +0.420 HD
ENDROOT
BRANCH   1  14
ATOM     13  C   LIG    1       -0.019   1.526   0.010  0.00  0.00    +0.090 C 
ATOM     14  C   LIG    1        0.002  -0.004   0.002  0.00  0.00    +0.080 C 
BRANCH  14  15
ATOM     15  C   LIG    1        0.707  -0.490  -1.238  0.00  0.00    +0.490 C 
ATOM     16  O   LIG    1        0.074  -1.038  -2.124  0.00  0.00    -0.670 OA
ATOM     17  O   LIG    1        1.911  -0.336  -1.354  0.00  0.00    -0.630 OA
ENDBRANCH  14  15
ENDBRANCH   1  14
TORSDOF 2
ENDMDL
MODEL      131
REMARK  Name = ZINC000409427024
REMARK                            x       y       z     vdW  Elec       q    Type
REMARK                         _______ _______ _______ _____ _____    ______ ____
ROOT
ATOM      1  N   LIG    1       -2.433   0.981   0.019  0.00  0.00    -0.360 N 
ATOM      2  C   LIG    1       -2.369   0.197   1.250  0.00  0.00    +0.270 C 
ATOM      3  C   LIG    1       -3.550  -0.787   1.382  0.00  0.00    +0.110 C 
ATOM      4  C   LIG    1       -4.803   0.058   1.310  0.00  0.00    -0.010 C 
ATOM      5  C   LIG    1       -6.147  -0.594   1.329  0.00  0.00    +0.550 C 
ATOM      6  N   LIG    1       -6.944   0.169   0.533  0.00  0.00    -0.700 N 
ATOM      7  H   LIG    1       -7.910   0.085   0.507  0.00  0.00    +0.420 HD
ATOM      8  C   LIG    1       -6.252   1.064  -0.225  0.00  0.00    +0.560 C 
ATOM      9  O   LIG    1       -6.707   1.999  -0.849  0.00  0.00    -0.450 OA
ATOM     10  O   LIG    1       -6.463  -1.598   1.932  0.00  0.00    -0.450 OA
ATOM     11  C   LIG    1       -4.806   0.677  -0.121  0.00  0.00    -0.030 C 
ATOM     12  C   LIG    1       -3.709   1.713  -0.135  0.00  0.00    +0.290 C 
ATOM     13  H   LIG    1       -2.318   0.360  -0.768  0.00  0.00    +0.420 HD
ENDROOT
BRANCH   1  14
ATOM     14  C   LIG    1       -1.330   1.951   0.019  0.00  0.00    +0.180 C 
BRANCH  14  16
ATOM     15  O   LIG    1        0.002  -0.004   0.002  0.00  0.00    -0.670 OA
ATOM     16  C   LIG    1       -0.015   1.215   0.009  0.00  0.00    +0.490 C 
ATOM     17  O   LIG    1        1.033   1.839   0.002  0.00  0.00    -0.630 OA
ENDBRANCH  14  16
ENDBRANCH   1  14
TORSDOF 2
ENDMDL
MODEL      132
REMARK  Name = ZINC000409427021
REMARK                            x       y       z     vdW  Elec       q    Type
REMARK                         _______ _______ _______ _____ _____    ______ ____
ROOT
ATOM      1  N   LIG    1       -2.433   0.981   0.019  0.00  0.00    -0.350 N 
ATOM      2  C   LIG    1       -2.380   0.206   1.247  0.00  0.00    +0.270 C 
ATOM      3  C   LIG    1       -2.521   1.073   2.475  0.00  0.00    +0.080 C 
ATOM      4  C   LIG    1       -3.696   2.023   2.441  0.00  0.00    +0.020 C 
ATOM      5  C   LIG    1       -3.281   3.318   3.128  0.00  0.00    +0.530 C 
ATOM      6  N   LIG    1       -3.289   4.309   2.225  0.00  0.00    -0.680 N 
ATOM      7  H   LIG    1       -3.015   5.215   2.437  0.00  0.00    +0.430 HD
ATOM      8  C   LIG    1       -3.708   3.941   1.004  0.00  0.00    +0.530 C 
ATOM      9  O   LIG    1       -3.752   4.653   0.024  0.00  0.00    -0.460 OA
ATOM     10  O   LIG    1       -2.992   3.434   4.300  0.00  0.00    -0.450 OA
ATOM     11  C   LIG    1       -4.122   2.482   1.061  0.00  0.00    +0.010 C 
ATOM     12  C   LIG    1       -3.686   1.694  -0.121  0.00  0.00    +0.290 C 
ATOM     13  H   LIG    1       -2.321   0.358  -0.767  0.00  0.00    +0.440 HD
ENDROOT
BRANCH   1  14
ATOM     14  C   LIG    1       -1.330   1.951   0.019  0.00  0.00    +0.140 C 
BRANCH  14  16
ATOM     15  O   LIG    1        0.002  -0.004   0.002  0.00  0.00    -0.670 OA
ATOM     16  C   LIG    1       -0.015   1.215   0.009  0.00  0.00    +0.490 C 
ATOM     17  O   LIG    1        1.033   1.839   0.002  0.00  0.00    -0.630 OA
ENDBRANCH  14  16
ENDBRANCH   1  14
TORSDOF 2
ENDMDL
MODEL      133
REMARK  Name = ZINC000409427018
REMARK                            x       y       z     vdW  Elec       q    Type
REMARK                         _______ _______ _______ _____ _____    ______ ____
ROOT
ATOM      1  N   LIG    1       -2.433   0.981   0.019  0.00  0.00    -0.360 N 
ATOM      2  C   LIG    1       -2.303   0.119   1.192  0.00  0.00    +0.250 C 
ATOM      3  C   LIG    1       -2.492   0.885   2.515  0.00  0.00    +0.110 C 
ATOM      4  C   LIG    1       -3.844   1.553   2.431  0.00  0.00    -0.010 C 
ATOM      5  C   LIG    1       -4.302   2.469   3.519  0.00  0.00    +0.550 C 
ATOM      6  N   LIG    1       -5.054   3.425   2.908  0.00  0.00    -0.700 N 
ATOM      7  H   LIG    1       -5.625   4.043   3.391  0.00  0.00    +0.420 HD
ATOM      8  C   LIG    1       -4.928   3.429   1.552  0.00  0.00    +0.560 C 
ATOM      9  O   LIG    1       -5.630   4.012   0.754  0.00  0.00    -0.440 OA
ATOM     10  O   LIG    1       -4.054   2.379   4.702  0.00  0.00    -0.450 OA
ATOM     11  C   LIG    1       -3.749   2.558   1.243  0.00  0.00    -0.020 C 
ATOM     12  C   LIG    1       -3.717   1.719  -0.010  0.00  0.00    +0.320 C 
ATOM     13  H   LIG    1       -2.366   0.412  -0.812  0.00  0.00    +0.440 HD
ENDROOT
BRANCH   1  14
ATOM     14  C   LIG    1       -1.330   1.951   0.019  0.00  0.00    +0.150 C 
BRANCH  14  16
ATOM     15  O   LIG    1       -2.144   2.438  -2.148  0.00  0.00    -0.670 OA
ATOM     16  C   LIG    1       -1.313   2.693  -1.292  0.00  0.00    +0.490 C 
ATOM     17  O   LIG    1       -0.472   3.552  -1.496  0.00  0.00    -0.640 OA
ENDBRANCH  14  16
ENDBRANCH   1  14
TORSDOF 2
ENDMDL
MODEL      134
REMARK  Name = ZINC000409427016
REMARK                            x       y       z     vdW  Elec       q    Type
REMARK                         _______ _______ _______ _____ _____    ______ ____
ROOT
ATOM      1  N   LIG    1       -2.433   0.981   0.019  0.00  0.00    -0.340 N 
ATOM      2  C   LIG    1       -2.376   0.204   1.246  0.00  0.00    +0.270 C 
ATOM      3  C   LIG    1       -2.515   1.081   2.470  0.00  0.00    +0.090 C 
ATOM      4  C   LIG    1       -3.613   2.090   2.400  0.00  0.00    +0.010 C 
ATOM      5  C   LIG    1       -4.882   1.660   3.090  0.00  0.00    +0.530 C 
ATOM      6  N   LIG    1       -5.921   2.022   2.321  0.00  0.00    -0.680 N 
ATOM      7  H   LIG    1       -6.845   1.882   2.584  0.00  0.00    +0.430 HD
ATOM      8  C   LIG    1       -5.576   2.591   1.158  0.00  0.00    +0.540 C 
ATOM      9  O   LIG    1       -6.346   3.041   0.337  0.00  0.00    -0.460 OA
ATOM     10  O   LIG    1       -4.952   1.087   4.156  0.00  0.00    -0.450 OA
ATOM     11  C   LIG    1       -4.070   2.566   1.036  0.00  0.00    +0.020 C 
ATOM     12  C   LIG    1       -3.682   1.694  -0.125  0.00  0.00    +0.260 C 
ATOM     13  H   LIG    1       -2.320   0.359  -0.767  0.00  0.00    +0.440 HD
ENDROOT
BRANCH   1  14
ATOM     14  C   LIG    1       -1.330   1.951   0.019  0.00  0.00    +0.160 C 
BRANCH  14  16
ATOM     15  O   LIG    1        0.002  -0.004   0.002  0.00  0.00    -0.670 OA
ATOM     16  C   LIG    1       -0.015   1.215   0.009  0.00  0.00    +0.490 C 
ATOM     17  O   LIG    1        1.033   1.839   0.002  0.00  0.00    -0.640 OA
ENDBRANCH  14  16
ENDBRANCH   1  14
TORSDOF 2
ENDMDL
MODEL      135
REMARK  Name = ZINC000030836057
REMARK                            x       y       z     vdW  Elec       q    Type
REMARK                         _______ _______ _______ _____ _____    ______ ____
ROOT
ATOM      1  C   LIG    1        0.119  -0.395  -2.731  0.00  0.00    +0.180 C 
ATOM      2  C   LIG    1        1.086  -1.093  -3.692  0.00  0.00    +0.170 C 
ATOM      3  C   LIG    1        2.445  -0.390  -3.631  0.00  0.00    +0.110 C 
ATOM      4  C   LIG    1        2.260   1.092  -3.967  0.00  0.00    +0.150 C 
ATOM      5  O   LIG    1        1.326   1.673  -3.056  0.00  0.00    -0.380 OA
ATOM      6  C   LIG    1        0.022   1.088  -3.102  0.00  0.00    +0.330 C 
ENDROOT
BRANCH   3   7
ATOM      7  O   LIG    1        2.990  -0.518  -2.316  0.00  0.00    -0.520 OA
ATOM      8  H   LIG    1        3.853  -0.095  -2.205  0.00  0.00    +0.370 HD
ENDBRANCH   3   7
BRANCH   2   9
ATOM      9  O   LIG    1        0.570  -1.025  -5.022  0.00  0.00    -0.550 OA
ATOM     10  H   LIG    1        1.133  -1.448  -5.685  0.00  0.00    +0.380 HD
ENDBRANCH   2   9
BRANCH   6  11
ATOM     11  O   LIG    1       -0.834   1.758  -2.175  0.00  0.00    -0.530 OA
ATOM     12  H   LIG    1       -1.030   2.675  -2.413  0.00  0.00    +0.380 HD
ENDBRANCH   6  11
BRANCH   1  13
ATOM     13  N   LIG    1        0.615  -0.525  -1.354  0.00  0.00    -0.500 NA
BRANCH  13  15
ATOM     14  C   LIG    1        0.360  -2.949  -1.116  0.00  0.00    +0.010 C 
ATOM     15  C   LIG    1        1.350  -1.784  -1.177  0.00  0.00    +0.170 C 
ENDBRANCH  13  15
BRANCH  13  16
ATOM     16  C   LIG    1        1.447   0.628  -0.983  0.00  0.00    +0.200 C 
ATOM     17  C   LIG    1        2.107   0.365   0.372  0.00  0.00    +0.000 C 
ENDBRANCH  13  16
ENDBRANCH   1  13
BRANCH   4  18
ATOM     18  C   LIG    1        3.605   1.813  -3.850  0.00  0.00    +0.200 C 
BRANCH  18  19
ATOM     19  O   LIG    1        3.456   3.169  -4.277  0.00  0.00    -0.560 OA
ATOM     20  H   LIG    1        4.271   3.688  -4.229  0.00  0.00    +0.380 HD
ENDBRANCH  18  19
ENDBRANCH   4  18
TORSDOF 8
ENDMDL
MODEL      136
REMARK  Name = ZINC000409430589
REMARK                            x       y       z     vdW  Elec       q    Type
REMARK                         _______ _______ _______ _____ _____    ______ ____
ROOT
ATOM      1  N   LIG    1        0.688  -0.476  -1.203  0.00  0.00    -0.570 N 
ATOM      2  C   LIG    1        0.047  -0.715  -2.354  0.00  0.00    +0.530 C 
ATOM      3  C   LIG    1        1.040  -1.188  -3.392  0.00  0.00    +0.020 C 
ATOM      4  C   LIG    1        1.182  -0.110  -4.487  0.00  0.00    +0.210 C 
ATOM      5  N   LIG    1        2.646   0.017  -4.703  0.00  0.00    -0.490 NA
ATOM      6  C   LIG    1        3.225  -0.074  -3.338  0.00  0.00    +0.200 C 
ATOM      7  C   LIG    1        2.390  -1.181  -2.626  0.00  0.00    +0.020 C 
ATOM      8  O   LIG    1       -1.143  -0.573  -2.536  0.00  0.00    -0.470 OA
ATOM      9  C   LIG    1        2.006  -0.700  -1.245  0.00  0.00    +0.530 C 
ATOM     10  O   LIG    1        2.775  -0.532  -0.323  0.00  0.00    -0.470 OA
ENDROOT
BRANCH   1  12
ATOM     11  C   LIG    1       -0.019   1.526   0.010  0.00  0.00    +0.030 C 
ATOM     12  C   LIG    1        0.002  -0.004   0.002  0.00  0.00    +0.290 C 
ENDBRANCH   1  12
BRANCH   5  13
ATOM     13  C   LIG    1        2.976   1.304  -5.329  0.00  0.00    +0.180 C 
BRANCH  13  14
ATOM     14  C   LIG    1        4.444   1.300  -5.762  0.00  0.00    +0.180 C 
BRANCH  14  15
ATOM     15  O   LIG    1        4.635   0.321  -6.786  0.00  0.00    -0.560 OA
ATOM     16  H   LIG    1        5.545   0.262  -7.109  0.00  0.00    +0.380 HD
ENDBRANCH  14  15
ENDBRANCH  13  14
ENDBRANCH   5  13
TORSDOF 4
ENDMDL
MODEL      137
REMARK  Name = ZINC000409432126
REMARK                            x       y       z     vdW  Elec       q    Type
REMARK                         _______ _______ _______ _____ _____    ______ ____
ROOT
ATOM      1  C   LIG    1       -0.018   1.461   0.010  0.00  0.00    +0.320 C 
ATOM      2  N   LIG    1        0.002  -0.004   0.002  0.00  0.00    -0.570 N 
ATOM      3  C   LIG    1        0.007  -0.722  -1.127  0.00  0.00    +0.530 C 
ATOM      4  C   LIG    1        0.028  -2.195  -0.786  0.00  0.00    +0.010 C 
ATOM      5  C   LIG    1        1.387  -2.793  -1.207  0.00  0.00    +0.290 C 
ATOM      6  N   LIG    1        1.812  -3.616  -0.046  0.00  0.00    -0.370 N 
ATOM      7  C   LIG    1        1.424  -2.806   1.137  0.00  0.00    +0.320 C 
ATOM      8  H   LIG    1        1.326  -4.500  -0.043  0.00  0.00    +0.440 HD
ATOM      9  C   LIG    1        0.035  -2.203   0.766  0.00  0.00    +0.030 C 
ATOM     10  O   LIG    1       -0.004  -0.262  -2.249  0.00  0.00    -0.450 OA
ATOM     11  C   LIG    1        0.023  -0.734   1.123  0.00  0.00    +0.530 C 
ATOM     12  O   LIG    1        0.039  -0.286   2.250  0.00  0.00    -0.450 OA
ENDROOT
BRANCH   6  13
ATOM     13  C   LIG    1        3.265  -3.829  -0.072  0.00  0.00    +0.170 C 
BRANCH  13  14
ATOM     14  C   LIG    1        3.656  -4.765   1.043  0.00  0.00    +0.490 C 
ATOM     15  O   LIG    1        4.825  -5.074   1.198  0.00  0.00    -0.640 OA
ATOM     16  O   LIG    1        2.803  -5.213   1.790  0.00  0.00    -0.670 OA
ENDBRANCH  13  14
ENDBRANCH   6  13
TORSDOF 2
ENDMDL
MODEL      138
REMARK  Name = ZINC000000897171
REMARK                            x       y       z     vdW  Elec       q    Type
REMARK                         _______ _______ _______ _____ _____    ______ ____
ROOT
ATOM      1  N   LIG    1       -2.154  -0.018  -1.318  0.00  0.00    -0.510 NA
ATOM      2  C   LIG    1       -1.465  -0.580  -2.487  0.00  0.00    +0.150 C 
ATOM      3  C   LIG    1       -2.205  -0.171  -3.762  0.00  0.00    +0.160 C 
ATOM      4  C   LIG    1       -3.645  -0.688  -3.698  0.00  0.00    +0.140 C 
ATOM      5  C   LIG    1       -4.325  -0.126  -2.446  0.00  0.00    +0.220 C 
ATOM      6  C   LIG    1       -3.523  -0.536  -1.209  0.00  0.00    +0.150 C 
ENDROOT
BRANCH   5   7
ATOM      7  O   LIG    1       -5.652  -0.648  -2.350  0.00  0.00    -0.560 OA
ATOM      8  H   LIG    1       -6.217  -0.428  -3.104  0.00  0.00    +0.390 HD
ENDBRANCH   5   7
BRANCH   4   9
ATOM      9  O   LIG    1       -4.357  -0.262  -4.862  0.00  0.00    -0.560 OA
ATOM     10  H   LIG    1       -3.978  -0.579  -5.693  0.00  0.00    +0.390 HD
ENDBRANCH   4   9
BRANCH   3  11
ATOM     11  O   LIG    1       -1.546  -0.735  -4.898  0.00  0.00    -0.570 OA
ATOM     12  H   LIG    1       -0.626  -0.452  -4.999  0.00  0.00    +0.390 HD
ENDBRANCH   3  11
BRANCH   1  13
ATOM     13  C   LIG    1       -1.394  -0.272  -0.087  0.00  0.00    +0.190 C 
BRANCH  13  14
ATOM     14  C   LIG    1       -0.062   0.478  -0.144  0.00  0.00    +0.170 C 
BRANCH  14  15
ATOM     15  O   LIG    1       -0.309   1.886  -0.151  0.00  0.00    -0.550 OA
ATOM     16  H   LIG    1        0.493   2.425  -0.187  0.00  0.00    +0.370 HD
ENDBRANCH  14  15
ENDBRANCH  13  14
ENDBRANCH   1  13
BRANCH   6  17
ATOM     17  C   LIG    1       -4.188   0.040   0.043  0.00  0.00    +0.200 C 
BRANCH  17  18
ATOM     18  O   LIG    1       -4.295   1.459  -0.085  0.00  0.00    -0.550 OA
ATOM     19  H   LIG    1       -4.708   1.893   0.675  0.00  0.00    +0.380 HD
ENDBRANCH  17  18
ENDBRANCH   6  17
TORSDOF 8
ENDMDL
MODEL      139
REMARK  Name = ZINC000253921237
REMARK                            x       y       z     vdW  Elec       q    Type
REMARK                         _______ _______ _______ _____ _____    ______ ____
ROOT
ATOM      1  C   LIG    1        0.739  -2.027  -1.265  0.00  0.00    +0.150 C 
ENDROOT
BRANCH   1   2
ATOM      2  O   LIG    1        1.430  -2.501  -0.107  0.00  0.00    -0.510 OA
ATOM      3  H   LIG    1        2.348  -2.203  -0.049  0.00  0.00    +0.380 HD
ENDBRANCH   1   2
BRANCH   1   4
ATOM      4  C   LIG    1        0.718  -0.497  -1.257  0.00  0.00    +0.150 C 
BRANCH   4   6
ATOM      5  C   LIG    1       -0.019   1.526   0.010  0.00  0.00    +0.010 C 
ATOM      6  C   LIG    1        0.002  -0.004   0.002  0.00  0.00    +0.180 C 
BRANCH   6   7
ATOM      7  O   LIG    1        0.693  -0.477   1.160  0.00  0.00    -0.540 OA
ATOM      8  H   LIG    1        1.611  -0.180   1.219  0.00  0.00    +0.370 HD
ENDBRANCH   6   7
ENDBRANCH   4   6
BRANCH   4   9
ATOM      9  O   LIG    1        0.027  -0.024  -2.414  0.00  0.00    -0.530 OA
ATOM     10  H   LIG    1       -0.891  -0.322  -2.473  0.00  0.00    +0.370 HD
ENDBRANCH   4   9
ENDBRANCH   1   4
BRANCH   1  11
ATOM     11  C   LIG    1        1.455  -2.521  -2.524  0.00  0.00    +0.220 C 
BRANCH  11  12
ATOM     12  C   LIG    1        1.476  -4.051  -2.532  0.00  0.00    +0.150 C 
ATOM     13  N   LIG    1        2.227  -4.565  -3.712  0.00  0.00    -0.670 NA
ATOM     14  H   LIG    1        1.676  -4.485  -4.554  0.00  0.00    +0.350 HD
ATOM     15  C   LIG    1        2.604  -5.968  -3.458  0.00  0.00    +0.190 C 
ATOM     16  C   LIG    1        3.247  -6.079  -2.056  0.00  0.00    +0.100 C 
ATOM     17  S   LIG    1        2.464  -4.699  -1.127  0.00  0.00    -0.200 S 
ENDBRANCH  11  12
BRANCH  11  18
ATOM     18  O   LIG    1        0.764  -2.047  -3.682  0.00  0.00    -0.530 OA
ATOM     19  H   LIG    1       -0.154  -2.345  -3.741  0.00  0.00    +0.370 HD
ENDBRANCH  11  18
ENDBRANCH   1  11
TORSDOF 8
ENDMDL
MODEL      140
REMARK  Name = ZINC000013815072
REMARK                            x       y       z     vdW  Elec       q    Type
REMARK                         _______ _______ _______ _____ _____    ______ ____
ROOT
ATOM      1  C   LIG    1       -1.413  -2.063   0.004  0.00  0.00    +0.230 C 
ATOM      2  C   LIG    1       -2.845  -2.601  -0.128  0.00  0.00    +0.280 C 
ATOM      3  N   LIG    1       -3.384  -2.167  -1.425  0.00  0.00    -0.690 N 
ATOM      4  H   LIG    1       -4.278  -1.795  -1.486  0.00  0.00    +0.410 HD
ATOM      5  C   LIG    1       -2.597  -2.295  -2.558  0.00  0.00    +0.420 A 
ATOM      6  C   LIG    1       -1.228  -2.481  -2.432  0.00  0.00    -0.120 A 
ATOM      7  C   LIG    1       -0.449  -2.605  -3.587  0.00  0.00    +0.540 A 
ATOM      8  N   LIG    1       -1.062  -2.539  -4.788  0.00  0.00    -0.650 N 
ATOM      9  H   LIG    1       -0.541  -2.621  -5.603  0.00  0.00    +0.410 HD
ATOM     10  C   LIG    1       -2.409  -2.357  -4.860  0.00  0.00    +0.630 A 
ATOM     11  O   LIG    1        0.760  -2.769  -3.510  0.00  0.00    -0.550 OA
ATOM     12  N   LIG    1       -3.147  -2.240  -3.777  0.00  0.00    -0.590 NA
ATOM     13  N   LIG    1       -0.636  -2.544  -1.150  0.00  0.00    -0.730 N 
ATOM     14  H   LIG    1        0.261  -2.896  -1.034  0.00  0.00    +0.410 HD
ENDROOT
BRANCH  10  15
ATOM     15  N   LIG    1       -3.011  -2.295  -6.091  0.00  0.00    -0.820 N 
ATOM     16  H   LIG    1       -3.970  -2.166  -6.155  0.00  0.00    +0.430 HD
ATOM     17  H   LIG    1       -2.478  -2.380  -6.897  0.00  0.00    +0.410 HD
ENDBRANCH  10  15
BRANCH   1  18
ATOM     18  C   LIG    1       -1.433  -0.534   0.013  0.00  0.00    +0.170 C 
BRANCH  18  20
ATOM     19  C   LIG    1       -0.019   1.526   0.010  0.00  0.00    +0.010 C 
ATOM     20  C   LIG    1        0.002  -0.004   0.002  0.00  0.00    +0.180 C 
BRANCH  20  21
ATOM     21  O   LIG    1        0.693  -0.477   1.160  0.00  0.00    -0.560 OA
ATOM     22  H   LIG    1        0.294  -0.202   1.996  0.00  0.00    +0.370 HD
ENDBRANCH  20  21
ENDBRANCH  18  20
BRANCH  18  23
ATOM     23  O   LIG    1       -2.124  -0.060  -1.145  0.00  0.00    -0.550 OA
ATOM     24  H   LIG    1       -1.725  -0.336  -1.981  0.00  0.00    +0.370 HD
ENDBRANCH  18  23
ENDBRANCH   1  18
TORSDOF 5
ENDMDL
MODEL      141
REMARK  Name = ZINC000036730058
REMARK                            x       y       z     vdW  Elec       q    Type
REMARK                         _______ _______ _______ _____ _____    ______ ____
ROOT
ATOM      1  C   LIG    1        0.063  -0.349  -2.652  0.00  0.00    +0.180 C 
ATOM      2  C   LIG    1       -0.138   1.130  -2.994  0.00  0.00    +0.330 C 
ATOM      3  O   LIG    1        1.133   1.780  -3.058  0.00  0.00    -0.380 OA
ATOM      4  C   LIG    1        2.007   1.254  -4.058  0.00  0.00    +0.150 C 
ATOM      5  C   LIG    1        2.295  -0.220  -3.759  0.00  0.00    +0.110 C 
ATOM      6  C   LIG    1        0.971  -0.991  -3.706  0.00  0.00    +0.160 C 
ENDROOT
BRANCH   5   7
ATOM      7  O   LIG    1        2.964  -0.330  -2.501  0.00  0.00    -0.510 OA
ATOM      8  H   LIG    1        3.809   0.138  -2.463  0.00  0.00    +0.360 HD
ENDBRANCH   5   7
BRANCH   2   9
ATOM      9  O   LIG    1       -0.940   1.747  -1.985  0.00  0.00    -0.520 OA
ATOM     10  H   LIG    1       -1.174   2.666  -2.176  0.00  0.00    +0.380 HD
ENDBRANCH   2   9
BRANCH   6  11
ATOM     11  O   LIG    1        1.224  -2.353  -3.357  0.00  0.00    -0.520 OA
ATOM     12  H   LIG    1        1.800  -2.818  -3.980  0.00  0.00    +0.360 HD
ENDBRANCH   6  11
BRANCH   1  13
ATOM     13  N   LIG    1        0.688  -0.466  -1.328  0.00  0.00    -0.510 NA
BRANCH  13  15
ATOM     14  C   LIG    1        0.601  -2.910  -1.189  0.00  0.00    +0.010 C 
ATOM     15  C   LIG    1        1.510  -1.681  -1.240  0.00  0.00    +0.200 C 
ENDBRANCH  13  15
BRANCH  13  16
ATOM     16  C   LIG    1        1.480   0.730  -1.013  0.00  0.00    +0.180 C 
ATOM     17  C   LIG    1        2.182   0.536   0.333  0.00  0.00    +0.000 C 
ENDBRANCH  13  16
ENDBRANCH   1  13
BRANCH   4  18
ATOM     18  C   LIG    1        3.319   2.041  -4.054  0.00  0.00    +0.200 C 
BRANCH  18  19
ATOM     19  O   LIG    1        3.066   3.392  -4.445  0.00  0.00    -0.560 OA
ATOM     20  H   LIG    1        3.855   3.950  -4.465  0.00  0.00    +0.390 HD
ENDBRANCH  18  19
ENDBRANCH   4  18
TORSDOF 8
ENDMDL
MODEL      142
REMARK  Name = ZINC000001591018
REMARK                            x       y       z     vdW  Elec       q    Type
REMARK                         _______ _______ _______ _____ _____    ______ ____
ROOT
ATOM      1  N   LIG    1       -2.790  -2.554  -0.231  0.00  0.00    -0.440 N 
ATOM      2  C   LIG    1       -3.570  -3.010   0.795  0.00  0.00    +0.420 A 
ATOM      3  N   LIG    1       -4.738  -3.372   0.328  0.00  0.00    -0.420 NA
ATOM      4  C   LIG    1       -4.760  -3.169  -0.992  0.00  0.00    -0.010 A 
ATOM      5  C   LIG    1       -5.787  -3.386  -2.031  0.00  0.00    +0.370 A 
ATOM      6  N   LIG    1       -6.903  -4.035  -1.791  0.00  0.00    -0.330 NA
ATOM      7  N   LIG    1       -5.489  -2.869  -3.265  0.00  0.00    -0.540 NA
ATOM      8  C   LIG    1       -4.320  -2.383  -3.553  0.00  0.00    +0.620 A 
ATOM      9  N   LIG    1       -3.270  -2.337  -2.683  0.00  0.00    -0.630 N 
ATOM     10  H   LIG    1       -2.380  -2.098  -2.983  0.00  0.00    +0.420 HD
ATOM     11  C   LIG    1       -3.520  -2.641  -1.361  0.00  0.00    +0.230 A 
ENDROOT
BRANCH   6  12
ATOM     12  O   LIG    1       -7.850  -4.223  -2.826  0.00  0.00    -0.400 OA
ATOM     13  H   LIG    1       -8.639  -4.712  -2.554  0.00  0.00    +0.400 HD
ENDBRANCH   6  12
BRANCH   1  14
ATOM     14  C   LIG    1       -1.416  -2.058  -0.121  0.00  0.00    +0.290 C 
BRANCH  14  15
ATOM     15  C   LIG    1       -1.433  -0.534   0.013  0.00  0.00    +0.200 C 
BRANCH  15  16
ATOM     16  O   LIG    1       -2.066  -0.171   1.242  0.00  0.00    -0.540 OA
ATOM     17  H   LIG    1       -1.626  -0.521   2.029  0.00  0.00    +0.380 HD
ENDBRANCH  15  16
BRANCH  15  18
ATOM     18  C   LIG    1        0.002  -0.004   0.002  0.00  0.00    +0.170 C 
BRANCH  18  19
ATOM     19  O   LIG    1       -0.017   1.425   0.010  0.00  0.00    -0.560 OA
ATOM     20  H   LIG    1        0.861   1.830   0.004  0.00  0.00    +0.390 HD
ENDBRANCH  18  19
ENDBRANCH  15  18
ENDBRANCH  14  15
ENDBRANCH   1  14
TORSDOF 6
ENDMDL
MODEL      143
REMARK  Name = ZINC000001591018
REMARK                            x       y       z     vdW  Elec       q    Type
REMARK                         _______ _______ _______ _____ _____    ______ ____
ROOT
ATOM      1  O   LIG    1        0.002  -0.004   0.002  0.00  0.00    -0.490 OA
ATOM      2  N   LIG    1       -0.017   1.412   0.010  0.00  0.00    -0.270 NA
ATOM      3  C   LIG    1        1.111   2.084   0.003  0.00  0.00    +0.080 A 
ATOM      4  N   LIG    1        2.335   1.465  -0.018  0.00  0.00    -0.430 NA
ATOM      5  C   LIG    1        3.442   2.118  -0.201  0.00  0.00    +0.500 A 
ATOM      6  N   LIG    1        3.518   3.466  -0.393  0.00  0.00    -0.640 N 
ATOM      7  H   LIG    1        4.347   3.889  -0.666  0.00  0.00    +0.420 HD
ATOM      8  C   LIG    1        2.374   4.208  -0.184  0.00  0.00    +0.280 A 
ATOM      9  N   LIG    1        2.120   5.531  -0.121  0.00  0.00    -0.400 N 
ATOM     10  C   LIG    1        0.781   5.678   0.113  0.00  0.00    +0.480 A 
ATOM     11  N   LIG    1        0.218   4.499   0.186  0.00  0.00    -0.420 N 
ATOM     12  H   LIG    1       -0.725   4.333   0.342  0.00  0.00    +0.460 HD
ATOM     13  C   LIG    1        1.152   3.560   0.010  0.00  0.00    +0.070 A 
ENDROOT
BRANCH   9  14
ATOM     14  C   LIG    1        3.099   6.611  -0.266  0.00  0.00    +0.320 C 
BRANCH  14  15
ATOM     15  C   LIG    1        3.287   6.932  -1.750  0.00  0.00    +0.210 C 
BRANCH  15  16
ATOM     16  O   LIG    1        2.068   7.453  -2.283  0.00  0.00    -0.540 OA
ATOM     17  H   LIG    1        1.764   8.264  -1.852  0.00  0.00    +0.380 HD
ENDBRANCH  15  16
BRANCH  15  18
ATOM     18  C   LIG    1        4.398   7.972  -1.910  0.00  0.00    +0.170 C 
BRANCH  18  19
ATOM     19  O   LIG    1        4.654   8.186  -3.300  0.00  0.00    -0.560 OA
ATOM     20  H   LIG    1        5.349   8.834  -3.476  0.00  0.00    +0.390 HD
ENDBRANCH  18  19
ENDBRANCH  15  18
ENDBRANCH  14  15
ENDBRANCH   9  14
TORSDOF 5
ENDMDL
MODEL      144
REMARK  Name = ZINC000001605278
REMARK                            x       y       z     vdW  Elec       q    Type
REMARK                         _______ _______ _______ _____ _____    ______ ____
ROOT
ATOM      1  CA  HIS A  1        0.780  -1.133   3.576  0.00  0.00    +0.190 C 
ENDROOT
BRANCH   1   4
ATOM      2  N   ALA A  2        0.711  -0.489   1.189  0.00  0.00    -0.660 N 
ATOM      3  H   ALA A  2        1.654  -0.707   1.135  0.00  0.00    +0.420 HD
ATOM      4  C   HIS A  1        0.051  -0.633   2.355  0.00  0.00    +0.490 C 
ATOM      5  O   HIS A  1       -1.129  -0.361   2.423  0.00  0.00    -0.550 OA
BRANCH   2   7
ATOM      6  CB  ALA A  2       -0.019   1.526   0.010  0.00  0.00    +0.040 C 
ATOM      7  CA  ALA A  2        0.002  -0.004   0.002  0.00  0.00    +0.150 C 
BRANCH   7   8
ATOM      8  C   ALA A  2        0.707  -0.490  -1.238  0.00  0.00    +0.490 C 
ATOM      9  OXT ALA A  2        0.183  -0.354  -2.330  0.00  0.00    -0.670 OA
ATOM     10  O   ALA A  2        1.802  -1.020  -1.149  0.00  0.00    -0.690 OA
ENDBRANCH   7   8
ENDBRANCH   2   7
ENDBRANCH   1   4
BRANCH   1  11
ATOM     11  N   HIS A  1        0.028  -0.761   4.782  0.00  0.00    -0.620 N 
ATOM     12  H1  HIS A  1       -0.058   0.243   4.829  0.00  0.00    +0.440 HD
ATOM     13  H2  HIS A  1        0.516  -1.095   5.599  0.00  0.00    +0.430 HD
ATOM     14  H3  HIS A  1       -0.891  -1.175   4.746  0.00  0.00    +0.440 HD
ENDBRANCH   1  11
BRANCH   1  15
ATOM     15  CB  HIS A  1        0.910  -2.655   3.506  0.00  0.00    +0.190 C 
BRANCH  15  16
ATOM     16  CG  HIS A  1        1.744  -3.143   4.662  0.00  0.00    -0.050 A 
ATOM     17  CD2 HIS A  1        1.381  -4.077   5.562  0.00  0.00    +0.150 A 
ATOM     18  NE2 HIS A  1        2.427  -4.216   6.433  0.00  0.00    -0.560 N 
ATOM     19  HE2 HIS A  1        2.467  -4.816   7.194  0.00  0.00    +0.430 HD
ATOM     20  CE1 HIS A  1        3.394  -3.361   6.035  0.00  0.00    +0.420 A 
ATOM     21  ND1 HIS A  1        2.981  -2.726   4.973  0.00  0.00    -0.490 NA
ENDBRANCH  15  16
ENDBRANCH   1  15
TORSDOF 6
ENDMDL
MODEL      145
REMARK  Name = ZINC000016951295
REMARK                            x       y       z     vdW  Elec       q    Type
REMARK                         _______ _______ _______ _____ _____    ______ ____
ROOT
ATOM      1  N   LIG    1        2.424  -2.608  -0.023  0.00  0.00    -0.700 N 
ATOM      2  H   LIG    1        2.466  -3.577  -0.029  0.00  0.00    +0.410 HD
ENDROOT
BRANCH   1   8
ATOM      3  C   LIG    1        0.002  -0.004   0.002  0.00  0.00    +0.490 A 
ATOM      4  C   LIG    1       -1.188  -0.717   0.004  0.00  0.00    -0.300 A 
ATOM      5  C   LIG    1       -1.135  -2.114  -0.004  0.00  0.00    +0.550 A 
ATOM      6  N   LIG    1        0.071  -2.720  -0.013  0.00  0.00    -0.660 N 
ATOM      7  H   LIG    1        0.126  -3.689  -0.018  0.00  0.00    +0.410 HD
ATOM      8  C   LIG    1        1.210  -1.976  -0.014  0.00  0.00    +0.660 A 
ATOM      9  O   LIG    1       -2.162  -2.775  -0.003  0.00  0.00    -0.560 OA
ATOM     10  N   LIG    1        1.168  -0.660  -0.013  0.00  0.00    -0.620 NA
BRANCH   3  11
ATOM     11  N   LIG    1       -0.017   1.376   0.010  0.00  0.00    -0.830 N 
ATOM     12  H   LIG    1       -0.863   1.850   0.016  0.00  0.00    +0.420 HD
ATOM     13  H   LIG    1        0.817   1.873   0.004  0.00  0.00    +0.410 HD
ENDBRANCH   3  11
ENDBRANCH   1   8
BRANCH   1  14
ATOM     14  C   LIG    1        3.660  -1.821  -0.024  0.00  0.00    +0.300 C 
BRANCH  14  15
ATOM     15  C   LIG    1        4.865  -2.764  -0.035  0.00  0.00    -0.010 C 
BRANCH  15  16
ATOM     16  C   LIG    1        6.156  -1.942  -0.036  0.00  0.00    +0.080 C 
BRANCH  16  17
ATOM     17  CA  LIG    1        7.361  -2.885  -0.047  0.00  0.00    +0.080 C 
BRANCH  17  18
ATOM     18  N   LIG    1        7.391  -3.655   1.203  0.00  0.00    -0.620 N 
ATOM     19  H1  LIG    1        6.543  -4.195   1.287  0.00  0.00    +0.410 HD
ATOM     20  H2  LIG    1        7.466  -3.023   1.986  0.00  0.00    +0.430 HD
ATOM     21  H3  LIG    1        8.186  -4.277   1.196  0.00  0.00    +0.430 HD
ENDBRANCH  17  18
BRANCH  17  22
ATOM     22  C   LIG    1        8.628  -2.079  -0.172  0.00  0.00    +0.490 C 
ATOM     23  OXT LIG    1        9.079  -1.820  -1.275  0.00  0.00    -0.630 OA
ATOM     24  O   LIG    1        9.202  -1.687   0.829  0.00  0.00    -0.670 OA
ENDBRANCH  17  22
ENDBRANCH  16  17
ENDBRANCH  15  16
ENDBRANCH  14  15
ENDBRANCH   1  14
TORSDOF 8
ENDMDL
MODEL      146
REMARK  Name = ZINC000085256424
REMARK                            x       y       z     vdW  Elec       q    Type
REMARK                         _______ _______ _______ _____ _____    ______ ____
ROOT
ATOM      1  O   LIG    1        0.002  -0.004   0.002  0.00  0.00    -0.540 OA
ATOM      2  C   LIG    1       -0.014   1.212   0.009  0.00  0.00    +0.700 A 
ATOM      3  N   LIG    1       -1.194   1.859   0.029  0.00  0.00    -0.640 N 
ATOM      4  H   LIG    1       -2.020   1.351   0.037  0.00  0.00    +0.440 HD
ATOM      5  C   LIG    1       -1.238   3.226   0.037  0.00  0.00    +0.480 A 
ATOM      6  C   LIG    1       -0.088   3.933   0.025  0.00  0.00    -0.780 A 
ATOM      7  C   LIG    1        1.146   3.239   0.004  0.00  0.00    +0.580 A 
ATOM      8  O   LIG    1        2.197   3.855  -0.008  0.00  0.00    -0.480 OA
ATOM      9  N   LIG    1        1.147   1.891   0.001  0.00  0.00    -0.660 N 
ATOM     10  H   LIG    1        1.989   1.409  -0.013  0.00  0.00    +0.430 HD
ENDROOT
BRANCH   6  11
ATOM     11  S   LIG    1       -0.122   5.695   0.036  0.00  0.00    +2.640 S 
ATOM     12  O   LIG    1       -1.491   6.070  -0.026  0.00  0.00    -1.050 OA
ATOM     13  O   LIG    1        0.845   6.120  -0.914  0.00  0.00    -1.010 OA
BRANCH  11  14
ATOM     14  N   LIG    1        0.431   6.186   1.518  0.00  0.00    -1.160 NA
BRANCH  14  15
ATOM     15  C   LIG    1        0.519   7.615   1.830  0.00  0.00    +0.210 C 
ATOM     16  C   LIG    1       -0.810   8.227   2.308  0.00  0.00    +0.210 C 
ATOM     17  N   LIG    1       -0.365   7.876   3.675  0.00  0.00    -0.520 N 
ATOM     18  H   LIG    1       -0.666   6.957   3.963  0.00  0.00    +0.440 HD
ATOM     19  H   LIG    1       -0.586   8.588   4.356  0.00  0.00    +0.400 HD
ATOM     20  C   LIG    1        1.050   7.909   3.244  0.00  0.00    +0.280 C 
ENDBRANCH  14  15
ENDBRANCH  11  14
ENDBRANCH   6  11
TORSDOF 3
ENDMDL
MODEL      147
REMARK  Name = ZINC000001855290
REMARK                            x       y       z     vdW  Elec       q    Type
REMARK                         _______ _______ _______ _____ _____    ______ ____
ROOT
ATOM      1  C   LIG    1       -0.019   1.526   0.010  0.00  0.00    +0.090 C 
ATOM      2  C   LIG    1        0.002  -0.004   0.002  0.00  0.00    +0.270 C 
ATOM      3  N   LIG    1        0.600  -0.455  -1.248  0.00  0.00    -0.510 NA
ATOM      4  C   LIG    1        1.172  -1.634  -1.363  0.00  0.00    +0.250 C 
ATOM      5  C   LIG    1        1.227  -2.430  -0.126  0.00  0.00    -0.060 A 
ATOM      6  C   LIG    1        0.995  -1.815   1.110  0.00  0.00    +0.200 A 
ATOM      7  N   LIG    1        1.112  -2.784   2.043  0.00  0.00    -0.430 N 
ATOM      8  C   LIG    1        1.405  -3.951   1.389  0.00  0.00    +0.400 A 
ATOM      9  N   LIG    1        1.470  -3.728   0.103  0.00  0.00    -0.410 NA
ATOM     10  C   LIG    1       -1.440  -0.512   0.063  0.00  0.00    +0.070 C 
ATOM     11  N   LIG    1        0.715  -0.470   1.196  0.00  0.00    -0.610 N 
ATOM     12  H   LIG    1        1.556   0.066   1.347  0.00  0.00    +0.360 HD
ENDROOT
BRANCH   4  13
ATOM     13  C   LIG    1        1.724  -2.128  -2.653  0.00  0.00    +0.580 C 
ATOM     14  O   LIG    1        2.243  -3.224  -2.711  0.00  0.00    -0.500 OA
ATOM     15  N   LIG    1        1.649  -1.359  -3.757  0.00  0.00    -0.840 N 
ATOM     16  H   LIG    1        2.009  -1.681  -4.598  0.00  0.00    +0.410 HD
ATOM     17  H   LIG    1        1.234  -0.483  -3.710  0.00  0.00    +0.410 HD
ENDBRANCH   4  13
BRANCH   7  18
ATOM     18  C   LIG    1        0.954  -2.616   3.489  0.00  0.00    +0.320 C 
BRANCH  18  19
ATOM     19  C   LIG    1       -0.528  -2.721   3.856  0.00  0.00    +0.180 C 
BRANCH  19  20
ATOM     20  O   LIG    1       -0.683  -2.558   5.267  0.00  0.00    -0.570 OA
ATOM     21  H   LIG    1       -1.599  -2.613   5.571  0.00  0.00    +0.390 HD
ENDBRANCH  19  20
ENDBRANCH  18  19
ENDBRANCH   7  18
TORSDOF 4
ENDMDL
MODEL      148
REMARK  Name = ZINC000085474970
REMARK                            x       y       z     vdW  Elec       q    Type
REMARK                         _______ _______ _______ _____ _____    ______ ____
ROOT
ATOM      1  C   LIG    1        0.002  -0.004   0.002  0.00  0.00    +0.180 C 
ATOM      2  C   LIG    1        0.647  -0.530  -1.300  0.00  0.00    +0.120 C 
ATOM      3  C   LIG    1       -0.478  -1.346  -1.974  0.00  0.00    +0.140 C 
ATOM      4  O   LIG    1       -1.355  -1.728  -0.892  0.00  0.00    -0.360 OA
ATOM      5  C   LIG    1       -1.437  -0.565  -0.035  0.00  0.00    +0.430 C 
ENDROOT
BRANCH   5   6
ATOM      6  N   LIG    1       -1.876  -0.950   1.308  0.00  0.00    -0.520 N 
ATOM      7  C   LIG    1       -1.202  -1.928   1.987  0.00  0.00    +0.360 A 
ATOM      8  C   LIG    1       -1.607  -2.283   3.225  0.00  0.00    -0.120 A 
ATOM      9  C   LIG    1       -2.726  -1.632   3.797  0.00  0.00    +0.550 A 
ATOM     10  N   LIG    1       -3.364  -0.674   3.095  0.00  0.00    -0.660 N 
ATOM     11  H   LIG    1       -4.132  -0.223   3.480  0.00  0.00    +0.430 HD
ATOM     12  O   LIG    1       -3.110  -1.935   4.912  0.00  0.00    -0.510 OA
ATOM     13  C   LIG    1       -2.936  -0.336   1.864  0.00  0.00    +0.710 A 
ATOM     14  O   LIG    1       -3.521   0.530   1.243  0.00  0.00    -0.530 OA
ENDBRANCH   5   6
BRANCH   1  15
ATOM     15  N   LIG    1       -0.018   1.465   0.010  0.00  0.00    -0.820 NA
ATOM     16  H   LIG    1       -0.556   1.823  -0.764  0.00  0.00    +0.350 HD
ATOM     17  H   LIG    1        0.919   1.839   0.003  0.00  0.00    +0.360 HD
ENDBRANCH   1  15
BRANCH   2  18
ATOM     18  O   LIG    1        1.766  -1.367  -1.002  0.00  0.00    -0.550 OA
ATOM     19  H   LIG    1        2.209  -1.724  -1.784  0.00  0.00    +0.380 HD
ENDBRANCH   2  18
BRANCH   3  20
ATOM     20  C   LIG    1        0.099  -2.586  -2.657  0.00  0.00    +0.210 C 
BRANCH  20  21
ATOM     21  O   LIG    1       -0.937  -3.263  -3.371  0.00  0.00    -0.560 OA
ATOM     22  H   LIG    1       -0.642  -4.061  -3.830  0.00  0.00    +0.390 HD
ENDBRANCH  20  21
ENDBRANCH   3  20
TORSDOF 5
ENDMDL
MODEL      149
REMARK  Name = ZINC000018118630
REMARK                            x       y       z     vdW  Elec       q    Type
REMARK                         _______ _______ _______ _____ _____    ______ ____
ROOT
ATOM      1  C   LIG    1       -0.018   1.461   0.010  0.00  0.00    +0.360 C 
ATOM      2  N   LIG    1        0.002  -0.004   0.002  0.00  0.00    -0.490 N 
ATOM      3  C   LIG    1        0.009  -0.820  -1.118  0.00  0.00    +0.520 A 
ATOM      4  N   LIG    1        0.029  -2.134  -0.680  0.00  0.00    -0.640 N 
ATOM      5  H   LIG    1        0.037  -2.920  -1.249  0.00  0.00    +0.430 HD
ATOM      6  C   LIG    1        0.035  -2.138   0.691  0.00  0.00    +0.350 A 
ATOM      7  N   LIG    1        0.053  -3.161   1.614  0.00  0.00    -0.520 N 
ATOM      8  C   LIG    1        0.065  -4.553   1.160  0.00  0.00    +0.350 C 
ATOM      9  C   LIG    1        0.051  -2.886   2.932  0.00  0.00    +0.710 A 
ATOM     10  O   LIG    1        0.063  -3.801   3.732  0.00  0.00    -0.530 OA
ATOM     11  N   LIG    1        0.041  -1.617   3.379  0.00  0.00    -0.550 N 
ATOM     12  C   LIG    1        0.044  -1.356   4.820  0.00  0.00    +0.360 C 
ATOM     13  C   LIG    1        0.027  -0.585   2.512  0.00  0.00    +0.580 A 
ATOM     14  O   LIG    1        0.017   0.563   2.923  0.00  0.00    -0.510 OA
ATOM     15  N   LIG    1       -0.002  -0.422  -2.357  0.00  0.00    -0.330 NA
ATOM     16  C   LIG    1        0.024  -0.843   1.129  0.00  0.00    -0.090 A 
ENDROOT
BRANCH  15  17
ATOM     17  N   LIG    1        0.006  -1.364  -3.395  0.00  0.00    -0.790 N 
ATOM     18  H   LIG    1        0.021  -2.312  -3.189  0.00  0.00    +0.360 HD
ATOM     19  H   LIG    1       -0.002  -1.068  -4.319  0.00  0.00    +0.420 HD
ENDBRANCH  15  17
TORSDOF 1
ENDMDL
MODEL      150
REMARK  Name = ZINC000104251181
REMARK                            x       y       z     vdW  Elec       q    Type
REMARK                         _______ _______ _______ _____ _____    ______ ____
ROOT
ATOM      1  C   LIG    1       -1.436  -0.286   0.105  0.00  0.00    +0.160 C 
ATOM      2  C   LIG    1       -1.645  -1.773   0.407  0.00  0.00    +0.220 C 
ATOM      3  C   LIG    1       -3.148  -2.071   0.435  0.00  0.00    +0.120 C 
ATOM      4  C   LIG    1       -3.767  -1.656  -0.902  0.00  0.00    +0.150 C 
ATOM      5  O   LIG    1       -3.509  -0.270  -1.136  0.00  0.00    -0.380 OA
ATOM      6  C   LIG    1       -2.122   0.061  -1.219  0.00  0.00    +0.370 C 
ENDROOT
BRANCH   1   8
ATOM      7  C   LIG    1        0.238   1.315  -0.601  0.00  0.00    +0.190 C 
ATOM      8  N   LIG    1        0.002  -0.004   0.002  0.00  0.00    -0.530 NA
ATOM      9  C   LIG    1        0.654  -0.107   1.314  0.00  0.00    +0.190 C 
ENDBRANCH   1   8
BRANCH   3  10
ATOM     10  O   LIG    1       -3.761  -1.334   1.495  0.00  0.00    -0.540 OA
ATOM     11  H   LIG    1       -4.714  -1.474   1.572  0.00  0.00    +0.370 HD
ENDBRANCH   3  10
BRANCH   2  12
ATOM     12  O   LIG    1       -1.070  -2.089   1.677  0.00  0.00    -0.550 OA
ATOM     13  H   LIG    1       -1.166  -3.017   1.932  0.00  0.00    +0.380 HD
ENDBRANCH   2  12
BRANCH   6  14
ATOM     14  O   LIG    1       -1.516  -0.685  -2.277  0.00  0.00    -0.560 OA
ATOM     15  H   LIG    1       -1.902  -0.517  -3.147  0.00  0.00    +0.380 HD
ENDBRANCH   6  14
BRANCH   4  16
ATOM     16  C   LIG    1       -5.278  -1.895  -0.861  0.00  0.00    +0.200 C 
BRANCH  16  17
ATOM     17  O   LIG    1       -5.839  -1.619  -2.145  0.00  0.00    -0.560 OA
ATOM     18  H   LIG    1       -6.796  -1.749  -2.192  0.00  0.00    +0.380 HD
ENDBRANCH  16  17
ENDBRANCH   4  16
TORSDOF 6
ENDMDL
MODEL      151
REMARK  Name = ZINC000104251174
REMARK                            x       y       z     vdW  Elec       q    Type
REMARK                         _______ _______ _______ _____ _____    ______ ____
ROOT
ATOM      1  C   LIG    1       -1.339  -0.531   0.286  0.00  0.00    +0.180 C 
ATOM      2  C   LIG    1       -2.305  -0.096  -0.818  0.00  0.00    +0.290 C 
ATOM      3  O   LIG    1       -3.595  -0.657  -0.570  0.00  0.00    -0.390 OA
ATOM      4  C   LIG    1       -3.618  -2.086  -0.561  0.00  0.00    +0.150 C 
ATOM      5  C   LIG    1       -2.704  -2.602   0.555  0.00  0.00    +0.120 C 
ATOM      6  C   LIG    1       -1.288  -2.061   0.337  0.00  0.00    +0.200 C 
ENDROOT
BRANCH   1   8
ATOM      7  C   LIG    1        0.390  -0.276  -1.389  0.00  0.00    +0.170 C 
ATOM      8  N   LIG    1        0.002  -0.004   0.002  0.00  0.00    -0.520 NA
ATOM      9  C   LIG    1        0.077   1.433   0.298  0.00  0.00    +0.210 C 
ENDBRANCH   1   8
BRANCH   5  10
ATOM     10  O   LIG    1       -3.196  -2.155   1.820  0.00  0.00    -0.540 OA
ATOM     11  H   LIG    1       -4.092  -2.458   2.022  0.00  0.00    +0.380 HD
ENDBRANCH   5  10
BRANCH   2  12
ATOM     12  O   LIG    1       -2.401   1.330  -0.833  0.00  0.00    -0.530 OA
ATOM     13  H   LIG    1       -2.997   1.677  -1.510  0.00  0.00    +0.390 HD
ENDBRANCH   2  12
BRANCH   6  14
ATOM     14  O   LIG    1       -0.446  -2.480   1.413  0.00  0.00    -0.530 OA
ATOM     15  H   LIG    1       -0.373  -3.440   1.505  0.00  0.00    +0.380 HD
ENDBRANCH   6  14
BRANCH   4  16
ATOM     16  C   LIG    1       -5.047  -2.573  -0.316  0.00  0.00    +0.210 C 
BRANCH  16  17
ATOM     17  O   LIG    1       -5.876  -2.189  -1.415  0.00  0.00    -0.560 OA
ATOM     18  H   LIG    1       -6.798  -2.466  -1.327  0.00  0.00    +0.390 HD
ENDBRANCH  16  17
ENDBRANCH   4  16
TORSDOF 6
ENDMDL
MODEL      152
REMARK  Name = ZINC000104251178
REMARK                            x       y       z     vdW  Elec       q    Type
REMARK                         _______ _______ _______ _____ _____    ______ ____
ROOT
ATOM      1  C   LIG    1       -1.339  -0.479  -0.275  0.00  0.00    +0.140 C 
ATOM      2  C   LIG    1       -1.391  -2.009  -0.256  0.00  0.00    +0.210 C 
ATOM      3  C   LIG    1       -1.006  -2.505   1.142  0.00  0.00    +0.120 C 
ATOM      4  C   LIG    1       -1.947  -1.879   2.174  0.00  0.00    +0.150 C 
ATOM      5  O   LIG    1       -1.873  -0.455   2.082  0.00  0.00    -0.360 OA
ATOM      6  C   LIG    1       -2.267   0.071   0.812  0.00  0.00    +0.370 C 
ENDROOT
BRANCH   1   8
ATOM      7  C   LIG    1        0.878  -0.202  -1.209  0.00  0.00    +0.190 C 
ATOM      8  N   LIG    1        0.037  -0.031  -0.017  0.00  0.00    -0.500 NA
ATOM      9  C   LIG    1        0.059   1.363   0.447  0.00  0.00    +0.170 C 
ENDBRANCH   1   8
BRANCH   3  10
ATOM     10  O   LIG    1        0.342  -2.125   1.429  0.00  0.00    -0.510 OA
ATOM     11  H   LIG    1        0.683  -2.483   2.260  0.00  0.00    +0.360 HD
ENDBRANCH   3  10
BRANCH   2  12
ATOM     12  O   LIG    1       -0.473  -2.531  -1.219  0.00  0.00    -0.540 OA
ATOM     13  H   LIG    1       -0.454  -3.497  -1.261  0.00  0.00    +0.370 HD
ENDBRANCH   2  12
BRANCH   6  14
ATOM     14  O   LIG    1       -3.613  -0.320   0.531  0.00  0.00    -0.580 OA
ATOM     15  H   LIG    1       -4.257  -0.008   1.181  0.00  0.00    +0.390 HD
ENDBRANCH   6  14
BRANCH   4  16
ATOM     16  C   LIG    1       -1.531  -2.322   3.578  0.00  0.00    +0.200 C 
BRANCH  16  17
ATOM     17  O   LIG    1       -2.477  -1.833   4.532  0.00  0.00    -0.560 OA
ATOM     18  H   LIG    1       -2.276  -2.077   5.446  0.00  0.00    +0.380 HD
ENDBRANCH  16  17
ENDBRANCH   4  16
TORSDOF 6
ENDMDL
MODEL      153
REMARK  Name = ZINC000002457180
REMARK                            x       y       z     vdW  Elec       q    Type
REMARK                         _______ _______ _______ _____ _____    ______ ____
ROOT
ATOM      1  C   LIG    1       -2.462   0.956   0.019  0.00  0.00    +0.520 C 
ATOM      2  N   LIG    1       -3.738   1.388   0.027  0.00  0.00    -0.650 N 
ATOM      3  C   LIG    1       -4.051   2.825   0.030  0.00  0.00    +0.310 C 
ATOM      4  C   LIG    1       -5.065   3.105  -1.083  0.00  0.00    +0.250 C 
ATOM      5  N   LIG    1       -6.232   2.231  -0.911  0.00  0.00    -0.380 N 
ATOM      6  C   LIG    1       -5.836   0.827  -1.081  0.00  0.00    +0.250 C 
ATOM      7  H   LIG    1       -6.615   2.361   0.013  0.00  0.00    +0.430 HD
ATOM      8  C   LIG    1       -4.859   0.435   0.028  0.00  0.00    +0.300 C 
ATOM      9  O   LIG    1       -2.224  -0.233   0.011  0.00  0.00    -0.450 OA
ENDROOT
BRANCH   1  10
ATOM     10  C   LIG    1       -1.330   1.951   0.019  0.00  0.00    -0.030 C 
BRANCH  10  12
ATOM     11  O   LIG    1        0.002  -0.004   0.002  0.00  0.00    -0.650 OA
ATOM     12  C   LIG    1       -0.015   1.215   0.009  0.00  0.00    +0.490 C 
ATOM     13  O   LIG    1        1.033   1.839   0.002  0.00  0.00    -0.690 OA
ENDBRANCH  10  12
ENDBRANCH   1  10
BRANCH   5  14
ATOM     14  C   LIG    1       -7.250   2.573  -1.913  0.00  0.00    +0.280 C 
BRANCH  14  15
ATOM     15  C   LIG    1       -8.515   1.750  -1.658  0.00  0.00    +0.210 C 
BRANCH  15  16
ATOM     16  O   LIG    1       -9.081   2.125  -0.401  0.00  0.00    -0.580 OA
ATOM     17  H   LIG    1       -9.887   1.643  -0.173  0.00  0.00    +0.410 HD
ENDBRANCH  15  16
ENDBRANCH  14  15
ENDBRANCH   5  14
TORSDOF 5
ENDMDL
MODEL      154
REMARK  Name = ZINC000253921238
REMARK                            x       y       z     vdW  Elec       q    Type
REMARK                         _______ _______ _______ _____ _____    ______ ____
ROOT
ATOM      1  C   LIG    1        0.739  -2.027  -1.265  0.00  0.00    +0.160 C 
ENDROOT
BRANCH   1   2
ATOM      2  O   LIG    1        1.430  -2.501  -0.107  0.00  0.00    -0.510 OA
ATOM      3  H   LIG    1        2.348  -2.203  -0.049  0.00  0.00    +0.370 HD
ENDBRANCH   1   2
BRANCH   1   4
ATOM      4  C   LIG    1        0.718  -0.497  -1.257  0.00  0.00    +0.160 C 
BRANCH   4   6
ATOM      5  C   LIG    1       -0.019   1.526   0.010  0.00  0.00    +0.010 C 
ATOM      6  C   LIG    1        0.002  -0.004   0.002  0.00  0.00    +0.180 C 
BRANCH   6   7
ATOM      7  O   LIG    1        0.693  -0.477   1.160  0.00  0.00    -0.540 OA
ATOM      8  H   LIG    1        1.611  -0.180   1.219  0.00  0.00    +0.370 HD
ENDBRANCH   6   7
ENDBRANCH   4   6
BRANCH   4   9
ATOM      9  O   LIG    1        0.027  -0.024  -2.414  0.00  0.00    -0.540 OA
ATOM     10  H   LIG    1       -0.891  -0.322  -2.473  0.00  0.00    +0.370 HD
ENDBRANCH   4   9
ENDBRANCH   1   4
BRANCH   1  11
ATOM     11  C   LIG    1        1.455  -2.521  -2.524  0.00  0.00    +0.220 C 
BRANCH  11  12
ATOM     12  C   LIG    1        1.586  -4.044  -2.472  0.00  0.00    +0.160 C 
ATOM     13  N   LIG    1        2.340  -4.553  -3.652  0.00  0.00    -0.660 NA
ATOM     14  H   LIG    1        1.763  -4.547  -4.480  0.00  0.00    +0.350 HD
ATOM     15  C   LIG    1        2.825  -5.914  -3.353  0.00  0.00    +0.190 C 
ATOM     16  C   LIG    1        3.511  -5.920  -1.968  0.00  0.00    +0.100 C 
ATOM     17  S   LIG    1        2.655  -4.562  -1.072  0.00  0.00    -0.210 S 
ENDBRANCH  11  12
BRANCH  11  18
ATOM     18  O   LIG    1        2.756  -1.933  -2.594  0.00  0.00    -0.530 OA
ATOM     19  H   LIG    1        3.324  -2.145  -1.840  0.00  0.00    +0.370 HD
ENDBRANCH  11  18
ENDBRANCH   1  11
TORSDOF 8
ENDMDL
MODEL      155
REMARK  Name = ZINC000253921235
REMARK                            x       y       z     vdW  Elec       q    Type
REMARK                         _______ _______ _______ _____ _____    ______ ____
ROOT
ATOM      1  C   LIG    1        0.739  -2.027  -1.265  0.00  0.00    +0.160 C 
ENDROOT
BRANCH   1   2
ATOM      2  O   LIG    1        1.430  -2.501  -0.107  0.00  0.00    -0.530 OA
ATOM      3  H   LIG    1        2.348  -2.203  -0.049  0.00  0.00    +0.370 HD
ENDBRANCH   1   2
BRANCH   1   4
ATOM      4  C   LIG    1        0.718  -0.497  -1.257  0.00  0.00    +0.160 C 
BRANCH   4   6
ATOM      5  C   LIG    1       -0.019   1.526   0.010  0.00  0.00    +0.010 C 
ATOM      6  C   LIG    1        0.002  -0.004   0.002  0.00  0.00    +0.180 C 
BRANCH   6   7
ATOM      7  O   LIG    1        0.693  -0.477   1.160  0.00  0.00    -0.540 OA
ATOM      8  H   LIG    1        1.611  -0.180   1.219  0.00  0.00    +0.370 HD
ENDBRANCH   6   7
ENDBRANCH   4   6
BRANCH   4   9
ATOM      9  O   LIG    1        0.027  -0.024  -2.414  0.00  0.00    -0.540 OA
ATOM     10  H   LIG    1       -0.891  -0.322  -2.473  0.00  0.00    +0.380 HD
ENDBRANCH   4   9
ENDBRANCH   1   4
BRANCH   1  11
ATOM     11  C   LIG    1        1.455  -2.521  -2.524  0.00  0.00    +0.210 C 
BRANCH  11  12
ATOM     12  C   LIG    1        1.586  -4.044  -2.472  0.00  0.00    +0.230 C 
ATOM     13  N   LIG    1        2.347  -4.538  -3.643  0.00  0.00    -0.660 NA
ATOM     14  H   LIG    1        2.287  -3.888  -4.413  0.00  0.00    +0.350 HD
ATOM     15  C   LIG    1        1.882  -5.879  -4.045  0.00  0.00    +0.240 C 
ATOM     16  C   LIG    1        0.331  -5.828  -4.123  0.00  0.00    +0.100 C 
ATOM     17  S   LIG    1       -0.061  -4.833  -2.624  0.00  0.00    -0.320 S 
ENDBRANCH  11  12
BRANCH  11  18
ATOM     18  O   LIG    1        2.756  -1.933  -2.594  0.00  0.00    -0.540 OA
ATOM     19  H   LIG    1        3.324  -2.145  -1.840  0.00  0.00    +0.370 HD
ENDBRANCH  11  18
ENDBRANCH   1  11
TORSDOF 8
ENDMDL
MODEL      156
REMARK  Name = ZINC000030836054
REMARK                            x       y       z     vdW  Elec       q    Type
REMARK                         _______ _______ _______ _____ _____    ______ ____
ROOT
ATOM      1  C   LIG    1        0.075  -0.158  -2.502  0.00  0.00    +0.190 C 
ATOM      2  C   LIG    1        1.010  -0.597  -3.634  0.00  0.00    +0.220 C 
ATOM      3  C   LIG    1        0.325  -0.330  -4.978  0.00  0.00    +0.130 C 
ATOM      4  C   LIG    1       -1.016  -1.067  -5.014  0.00  0.00    +0.150 C 
ATOM      5  O   LIG    1       -1.825  -0.635  -3.918  0.00  0.00    -0.390 OA
ATOM      6  C   LIG    1       -1.258  -0.900  -2.633  0.00  0.00    +0.300 C 
ENDROOT
BRANCH   3   7
ATOM      7  O   LIG    1        0.105   1.074  -5.132  0.00  0.00    -0.550 OA
ATOM      8  H   LIG    1       -0.326   1.315  -5.963  0.00  0.00    +0.380 HD
ENDBRANCH   3   7
BRANCH   2   9
ATOM      9  O   LIG    1        1.292  -1.992  -3.508  0.00  0.00    -0.550 OA
ATOM     10  H   LIG    1        1.879  -2.338  -4.193  0.00  0.00    +0.380 HD
ENDBRANCH   2   9
BRANCH   6  11
ATOM     11  O   LIG    1       -2.155  -0.455  -1.615  0.00  0.00    -0.540 OA
ATOM     12  H   LIG    1       -3.021  -0.885  -1.638  0.00  0.00    +0.380 HD
ENDBRANCH   6  11
BRANCH   1  13
ATOM     13  N   LIG    1        0.690  -0.478  -1.207  0.00  0.00    -0.520 NA
BRANCH  13  15
ATOM     14  C   LIG    1        0.652   1.797  -0.299  0.00  0.00    +0.020 C 
ATOM     15  C   LIG    1        0.136   0.365  -0.139  0.00  0.00    +0.170 C 
ENDBRANCH  13  15
BRANCH  13  16
ATOM     16  C   LIG    1        0.533  -1.903  -0.887  0.00  0.00    +0.170 C 
ATOM     17  C   LIG    1        1.490  -2.280   0.246  0.00  0.00    +0.030 C 
ENDBRANCH  13  16
ENDBRANCH   1  13
BRANCH   4  18
ATOM     18  C   LIG    1       -1.733  -0.757  -6.330  0.00  0.00    +0.200 C 
BRANCH  18  19
ATOM     19  O   LIG    1       -2.929  -1.534  -6.415  0.00  0.00    -0.560 OA
ATOM     20  H   LIG    1       -3.436  -1.389  -7.225  0.00  0.00    +0.380 HD
ENDBRANCH  18  19
ENDBRANCH   4  18
TORSDOF 8
ENDMDL
MODEL      157
REMARK  Name = ZINC000000895154
REMARK                            x       y       z     vdW  Elec       q    Type
REMARK                         _______ _______ _______ _____ _____    ______ ____
ROOT
ATOM      1  C   LIG    1       -1.413  -2.059   0.130  0.00  0.00    +0.220 C 
ATOM      2  C   LIG    1       -2.852  -2.596   0.159  0.00  0.00    +0.280 C 
ATOM      3  N   LIG    1       -3.516  -2.076   1.363  0.00  0.00    -0.690 N 
ATOM      4  H   LIG    1       -4.412  -1.708   1.310  0.00  0.00    +0.410 HD
ATOM      5  C   LIG    1       -2.844  -2.120   2.574  0.00  0.00    +0.420 A 
ATOM      6  C   LIG    1       -1.468  -2.305   2.596  0.00  0.00    -0.120 A 
ATOM      7  C   LIG    1       -0.806  -2.343   3.828  0.00  0.00    +0.540 A 
ATOM      8  N   LIG    1       -1.535  -2.198   4.956  0.00  0.00    -0.650 N 
ATOM      9  H   LIG    1       -1.097  -2.221   5.821  0.00  0.00    +0.410 HD
ATOM     10  C   LIG    1       -2.882  -2.021   4.882  0.00  0.00    +0.630 A 
ATOM     11  O   LIG    1        0.404  -2.503   3.881  0.00  0.00    -0.550 OA
ATOM     12  N   LIG    1       -3.511  -1.984   3.727  0.00  0.00    -0.590 NA
ATOM     13  N   LIG    1       -0.754  -2.453   1.386  0.00  0.00    -0.720 N 
ATOM     14  H   LIG    1        0.150  -2.805   1.383  0.00  0.00    +0.410 HD
ENDROOT
BRANCH  10  15
ATOM     15  N   LIG    1       -3.603  -1.878   6.041  0.00  0.00    -0.830 N 
ATOM     16  H   LIG    1       -4.564  -1.752   6.002  0.00  0.00    +0.430 HD
ATOM     17  H   LIG    1       -3.152  -1.904   6.899  0.00  0.00    +0.410 HD
ENDBRANCH  10  15
BRANCH   1  18
ATOM     18  C   LIG    1       -1.433  -0.534   0.013  0.00  0.00    +0.170 C 
BRANCH  18  20
ATOM     19  C   LIG    1       -0.019   1.526   0.010  0.00  0.00    +0.000 C 
ATOM     20  C   LIG    1        0.002  -0.004   0.002  0.00  0.00    +0.170 C 
BRANCH  20  21
ATOM     21  O   LIG    1        0.693  -0.477   1.160  0.00  0.00    -0.540 OA
ATOM     22  H   LIG    1        0.294  -0.202   1.996  0.00  0.00    +0.370 HD
ENDBRANCH  20  21
ENDBRANCH  18  20
BRANCH  18  23
ATOM     23  O   LIG    1       -2.137   0.021   1.126  0.00  0.00    -0.550 OA
ATOM     24  H   LIG    1       -1.747  -0.195   1.985  0.00  0.00    +0.370 HD
ENDBRANCH  18  23
ENDBRANCH   1  18
TORSDOF 5
ENDMDL
